(PID.TID 0000.0001) 
(PID.TID 0000.0001) // ======================================================
(PID.TID 0000.0001) //                      MITgcm UV
(PID.TID 0000.0001) //                      =========
(PID.TID 0000.0001) // ======================================================
(PID.TID 0000.0001) // execution environment starting up...
(PID.TID 0000.0001) 
(PID.TID 0000.0001) // MITgcmUV version:  checkpoint66k
(PID.TID 0000.0001) // Build user:        dmenemen
(PID.TID 0000.0001) // Build host:        borg01y166
(PID.TID 0000.0001) // Build date:        Thu Sep 21 17:20:49 EDT 2017
(PID.TID 0000.0001) 
(PID.TID 0000.0001) // =======================================================
(PID.TID 0000.0001) // Execution Environment parameter file "eedata"
(PID.TID 0000.0001) // =======================================================
(PID.TID 0000.0001) ># Example "eedata" file
(PID.TID 0000.0001) ># Lines beginning "#" are comments
(PID.TID 0000.0001) ># nTx - No. threads per process in X
(PID.TID 0000.0001) ># nTy - No. threads per process in Y
(PID.TID 0000.0001) > &EEPARMS
(PID.TID 0000.0001) > useCubedSphereExchange=.TRUE.,
(PID.TID 0000.0001) > nTx=1,
(PID.TID 0000.0001) > nTy=1,
(PID.TID 0000.0001) > /
(PID.TID 0000.0001) ># Note: Some systems use & as the
(PID.TID 0000.0001) ># namelist terminator. Other systems
(PID.TID 0000.0001) ># use a / character (as shown here).
(PID.TID 0000.0001) 
(PID.TID 0000.0001) // =======================================================
(PID.TID 0000.0001) // Computational Grid Specification ( see files "SIZE.h" )
(PID.TID 0000.0001) //                                  ( and "eedata"       )
(PID.TID 0000.0001) // =======================================================
(PID.TID 0000.0001)      nPx =   96 ; /* No. processes in X */
(PID.TID 0000.0001)      nPy =    1 ; /* No. processes in Y */
(PID.TID 0000.0001)      nSx =    1 ; /* No. tiles in X per process */
(PID.TID 0000.0001)      nSy =    1 ; /* No. tiles in Y per process */
(PID.TID 0000.0001)      sNx =   30 ; /* Tile size in X */
(PID.TID 0000.0001)      sNy =   30 ; /* Tile size in Y */
(PID.TID 0000.0001)      OLx =    4 ; /* Tile overlap distance in X */
(PID.TID 0000.0001)      OLy =    4 ; /* Tile overlap distance in Y */
(PID.TID 0000.0001)      nTx =    1 ; /* No. threads in X per process */
(PID.TID 0000.0001)      nTy =    1 ; /* No. threads in Y per process */
(PID.TID 0000.0001)       Nr =   50 ; /* No. levels in the vertical   */
(PID.TID 0000.0001)       Nx = 2880 ; /* Total domain size in X ( = nPx*nSx*sNx ) */
(PID.TID 0000.0001)       Ny =   30 ; /* Total domain size in Y ( = nPy*nSy*sNy ) */
(PID.TID 0000.0001)   nTiles =    1 ; /* Total no. tiles per process ( = nSx*nSy ) */
(PID.TID 0000.0001)   nProcs =   96 ; /* Total no. processes ( = nPx*nPy ) */
(PID.TID 0000.0001) nThreads =    1 ; /* Total no. threads per process ( = nTx*nTy ) */
(PID.TID 0000.0001) usingMPI =    T ; /* Flag used to control whether MPI is in use */
(PID.TID 0000.0001)                   /*  note: To execute a program with MPI calls */
(PID.TID 0000.0001)                   /*  it must be launched appropriately e.g     */
(PID.TID 0000.0001)                   /*  "mpirun -np 64 ......"                    */
(PID.TID 0000.0001) useCoupler=    F ;/* Flag used to control communications with   */
(PID.TID 0000.0001)                   /*  other model components, through a coupler */
(PID.TID 0000.0001) debugMode =    F ; /* print debug msg. (sequence of S/R calls)  */
(PID.TID 0000.0001) printMapIncludesZeros=    F ; /* print zeros in Std.Output maps */
(PID.TID 0000.0001) maxLengthPrt1D=   65 /* maxLength of 1D array printed to StdOut */
(PID.TID 0000.0001) 
(PID.TID 0000.0001) ======= Starting MPI parallel Run =========
(PID.TID 0000.0001)  My Processor Name (len: 10 ) = borg01z125
(PID.TID 0000.0001)  Located at (  0,  0) on processor grid (0: 95,0:  0)
(PID.TID 0000.0001)  Origin at  (     1,     1) on global grid (1:  2880,1:    30)
(PID.TID 0000.0001)  North neighbor = processor 0000
(PID.TID 0000.0001)  South neighbor = processor 0000
(PID.TID 0000.0001)   East neighbor = processor 0001
(PID.TID 0000.0001)   West neighbor = processor 0095
(PID.TID 0000.0001) // ======================================================
(PID.TID 0000.0001) // Mapping of tiles to threads
(PID.TID 0000.0001) // ======================================================
(PID.TID 0000.0001) // -o- Thread   1, tiles (   1:   1,   1:   1)
(PID.TID 0000.0001) 
(PID.TID 0000.0001) W2_READPARMS: opening data.exch2
(PID.TID 0000.0001)  OPEN_COPY_DATA_FILE: opening file data.exch2
(PID.TID 0000.0001) // =======================================================
(PID.TID 0000.0001) // Parameter file "data.exch2"
(PID.TID 0000.0001) // =======================================================
(PID.TID 0000.0001) ># EXCH2 Package: Wrapper-2 User Choice
(PID.TID 0000.0001) >#--------------------
(PID.TID 0000.0001) >#  preDefTopol   :: pre-defined Topology selector:
(PID.TID 0000.0001) >#                :: = 0 : topology defined from processing "data.exch2";
(PID.TID 0000.0001) >#                :: = 1 : simple, single facet topology;
(PID.TID 0000.0001) >#                :: = 2 : customized topology (w2_set_myown_facets)
(PID.TID 0000.0001) >#                :: = 3 : 6-facet Cube (3 face-dims: nRed, nGreen, nBlue).
(PID.TID 0000.0001) >#  dimsFacets    :: facet pair of dimensions (n1x,n1y, n2x,n2y ...)
(PID.TID 0000.0001) >#  facetEdgeLink :: Face-Edge connectivity map:
(PID.TID 0000.0001) >#    facetEdgeLink(i,j)=XX.1 : face(j)-edge(i) (i=1,2,3,4 <==> N,S,E,W)
(PID.TID 0000.0001) >#    is connected to Northern edge of face "XX" ; similarly,
(PID.TID 0000.0001) >#    = XX.2 : to Southern.E, XX.3 = Eastern.E, XX.4 = Western.E of face "XX"
(PID.TID 0000.0001) >#  blankList     :: List of "blank" tiles
(PID.TID 0000.0001) >#  W2_mapIO      :: global map IO selector (-1 = old type ; 0 = 1 long line in X
(PID.TID 0000.0001) >#                :: 1 = compact, mostly in Y dir)
(PID.TID 0000.0001) >#  W2_printMsg   :: option for information messages printing
(PID.TID 0000.0001) >#                :: <0 : write to log file ; =0 : minimum print ;
(PID.TID 0000.0001) >#                :: =1 : no duplicated print ; =2 : all processes do print
(PID.TID 0000.0001) >#--------------------
(PID.TID 0000.0001) > &W2_EXCH2_PARM01
(PID.TID 0000.0001) ># W2_printMsg= 0,
(PID.TID 0000.0001) >  W2_mapIO   = 1,
(PID.TID 0000.0001) >#
(PID.TID 0000.0001) >  preDefTopol=0,
(PID.TID 0000.0001) >#-- 5 facets llc_120 topology (drop facet 6 and its connection):
(PID.TID 0000.0001) >  dimsFacets(1:10) = 90, 270, 90, 270, 90, 90, 270, 90, 270, 90,
(PID.TID 0000.0001) >  facetEdgeLink(1:4,1)= 3.4, 0. , 2.4, 5.1,
(PID.TID 0000.0001) >  facetEdgeLink(1:4,2)= 3.2, 0. , 4.2, 1.3,
(PID.TID 0000.0001) >  facetEdgeLink(1:4,3)= 5.4, 2.1, 4.4, 1.1,
(PID.TID 0000.0001) >  facetEdgeLink(1:4,4)= 5.2, 2.3, 0. , 3.3,
(PID.TID 0000.0001) >  facetEdgeLink(1:4,5)= 1.4, 4.1, 0. , 3.1,
(PID.TID 0000.0001) >#-- full 6 facets llc_120 topology (equivalent to default preDefTopol=3):
(PID.TID 0000.0001) ># dimsFacets(1:12) = 120, 360, 120, 360, 120, 120, 360, 120, 360, 120, 120, 120,
(PID.TID 0000.0001) ># facetEdgeLink(1:4,1)= 3.4, 6.1, 2.4, 5.1,
(PID.TID 0000.0001) ># facetEdgeLink(1:4,2)= 3.2, 6.3, 4.2, 1.3,
(PID.TID 0000.0001) ># facetEdgeLink(1:4,3)= 5.4, 2.1, 4.4, 1.1,
(PID.TID 0000.0001) ># facetEdgeLink(1:4,4)= 5.2, 2.3, 6.2, 3.3,
(PID.TID 0000.0001) ># facetEdgeLink(1:4,5)= 1.4, 4.1, 6.4, 3.1,
(PID.TID 0000.0001) ># facetEdgeLink(1:4,6)= 1.2, 4.3, 2.2, 5.3,
(PID.TID 0000.0001) >#
(PID.TID 0000.0001) >#90x30   nprocs = 36
(PID.TID 0000.0001) >#  blankList(1:3)=1,10,11,
(PID.TID 0000.0001) >#30x90
(PID.TID 0000.0001) >#
(PID.TID 0000.0001) >#45x30   nprocs = 72
(PID.TID 0000.0001) >#  blankList(1:6)=1,2,19,20,21,22
(PID.TID 0000.0001) >#old:  blankList(1:8)=1,2,19,20,21,22,33,72
(PID.TID 0000.0001) >#30x45   nprocs = 68
(PID.TID 0000.0001) >#  blankList(1:10)=2,3,19,20,21,35,51,60,69,78
(PID.TID 0000.0001) >#45x45   nprocs = 48
(PID.TID 0000.0001) >#  blankList(1:4)=2,13,14,23
(PID.TID 0000.0001) >#old:  blankList(1:3)=2,13,14
(PID.TID 0000.0001) >#30x30   nprocs = 96
(PID.TID 0000.0001) >  blankList(1:21)=1,2,3,5,6,28,29,30,31,32,33,49,50,52,53,72,81,90,99,108,117
(PID.TID 0000.0001) >#old:   blankList(1:18)=1,2,3,28,29,30,31,32,33,49,50,53,72,81,90,99,108,117
(PID.TID 0000.0001) >#15x30   nprocs = 192
(PID.TID 0000.0001) >#  blankList(1:42)=1,2,3,4,5,6,9,10,11,12,55,56,57,58,59,60,61,62,63,64,65,66,
(PID.TID 0000.0001) >#            97,98,99,100,103,104,105,106,143,144,
(PID.TID 0000.0001) >#            161,162,179,180,197,198,215,216,233,234
(PID.TID 0000.0001) >#15x15   nprocs = 360
(PID.TID 0000.0001) >#  blankList(1:108)=1,2,3,4,5,6,7,8,9,10,11,12,14,15,16,17,18,21,22,23,24,
(PID.TID 0000.0001) >#  65,71,75,76,90,95,96,101,102,109,110,111,112,113,114,115,116,117,118,119,
(PID.TID 0000.0001) >#  120,121,122,123,124,125,126,127,128,129,130,131,132,
(PID.TID 0000.0001) >#  188,189,190,193,194,195,196,199,
(PID.TID 0000.0001) >#  200,201,202,203,205,206,207,208,209,211,212,213,214,215,216,242,247,253,
(PID.TID 0000.0001) >#  267,268,269,270,287,288,305,306,323,324,341,342,359,360,362,376,377,378,
(PID.TID 0000.0001) >#  380,381,382,395,396,400,412,413,414,430,
(PID.TID 0000.0001) >#
(PID.TID 0000.0001) > &
(PID.TID 0000.0001) 
(PID.TID 0000.0001) W2_READPARMS: finished reading data.exch2
(PID.TID 0000.0001) W2_useE2ioLayOut=    T ;/* T: use Exch2 glob IO map; F: use model default */
(PID.TID 0000.0001) W2_mapIO        =   1 ; /* select option for Exch2 global-IO map */
(PID.TID 0000.0001) W2_printMsg     =  -1 ; /* select option for printing information */
(PID.TID 0000.0001) ===== Start setting W2 TOPOLOGY:
(PID.TID 0000.0001)  write to log-file: w2_tile_topology.0000.log
(PID.TID 0000.0001) =====       setting W2 TOPOLOGY: Done
(PID.TID 0000.0001) 
(PID.TID 0000.0001)  INI_PARMS: opening model parameter file "data"
(PID.TID 0000.0001)  OPEN_COPY_DATA_FILE: opening file data
(PID.TID 0000.0001) // =======================================================
(PID.TID 0000.0001) // Parameter file "data"
(PID.TID 0000.0001) // =======================================================
(PID.TID 0000.0001) ># ====================
(PID.TID 0000.0001) ># | Model parameters |
(PID.TID 0000.0001) ># ====================
(PID.TID 0000.0001) >#
(PID.TID 0000.0001) ># Continuous equation parameters
(PID.TID 0000.0001) > &PARM01
(PID.TID 0000.0001) > tRef               = 3*23.,3*22.,21.,2*20.,19.,2*18.,17.,2*16.,15.,14.,13.,
(PID.TID 0000.0001) >                      12.,11.,2*9.,8.,7.,2*6.,2*5.,3*4.,3*3.,4*2.,12*1.,
(PID.TID 0000.0001) > sRef               = 50*34.5,
(PID.TID 0000.0001) > no_slip_sides  = .TRUE.,
(PID.TID 0000.0001) > no_slip_bottom = .TRUE.,
(PID.TID 0000.0001) >#
(PID.TID 0000.0001) > viscAr=1.E-3,
(PID.TID 0000.0001) >#
(PID.TID 0000.0001) > viscAh=1.E0,
(PID.TID 0000.0001) > viscAhGrid=2.E-2,
(PID.TID 0000.0001) >#
(PID.TID 0000.0001) > diffKhT=1.E1,
(PID.TID 0000.0001) > diffKrT=1.E-5,
(PID.TID 0000.0001) > diffKhS=1.E1,
(PID.TID 0000.0001) > diffKrS=1.E-5,
(PID.TID 0000.0001) >#
(PID.TID 0000.0001) > bottomDragQuadratic = 0.001,
(PID.TID 0000.0001) >#when using ggl90
(PID.TID 0000.0001) > ivdc_kappa=10.,
(PID.TID 0000.0001) > implicitDiffusion=.TRUE.,
(PID.TID 0000.0001) > implicitViscosity=.TRUE.,
(PID.TID 0000.0001) > useRealFreshWaterFlux=.TRUE.,
(PID.TID 0000.0001) > allowFreezing=.FALSE.,
(PID.TID 0000.0001) > hFacMin=.2,
(PID.TID 0000.0001) > hFacMinDr=5.,
(PID.TID 0000.0001) > gravity=9.81,
(PID.TID 0000.0001) > rhonil=1029.,
(PID.TID 0000.0001) > rhoConst=1029.,
(PID.TID 0000.0001) > rhoConstFresh=1000.,
(PID.TID 0000.0001) > convertFW2Salt=-1.,
(PID.TID 0000.0001) > eosType='JMD95Z',
(PID.TID 0000.0001) > implicitFreeSurface=.TRUE.,
(PID.TID 0000.0001) > exactConserv=.TRUE.,
(PID.TID 0000.0001) > useSingleCpuIO=.TRUE.,
(PID.TID 0000.0001) > tempAdvScheme=33,
(PID.TID 0000.0001) > saltAdvScheme=33,
(PID.TID 0000.0001) > staggerTimeStep=.TRUE.,
(PID.TID 0000.0001) > vectorInvariantMomentum=.TRUE.,
(PID.TID 0000.0001) > useJamartWetPoints=.TRUE.,
(PID.TID 0000.0001) > readBinaryPrec=32,
(PID.TID 0000.0001) > writeBinaryPrec=64,
(PID.TID 0000.0001) > debugLevel=1,
(PID.TID 0000.0001) > &
(PID.TID 0000.0001) >
(PID.TID 0000.0001) ># Elliptic solver parameters
(PID.TID 0000.0001) > &PARM02
(PID.TID 0000.0001) > cg2dMaxIters=300,
(PID.TID 0000.0001) > cg2dTargetResWunit=1.E-12,
(PID.TID 0000.0001) > &
(PID.TID 0000.0001) >
(PID.TID 0000.0001) ># Time stepping parameters
(PID.TID 0000.0001) > &PARM03
(PID.TID 0000.0001) > nIter0=0,
(PID.TID 0000.0001) > nTimeSteps=0,
(PID.TID 0000.0001) > forcing_In_AB=.FALSE.,
(PID.TID 0000.0001) > momDissip_In_AB=.FALSE.,
(PID.TID 0000.0001) > deltaT=900.,
(PID.TID 0000.0001) > doAB_onGtGs=.FALSE.,
(PID.TID 0000.0001) >#
(PID.TID 0000.0001) > pChkptFreq  =31536000.0,
(PID.TID 0000.0001) > chkptFreq   =31536000.0,
(PID.TID 0000.0001) > monitorFreq = 3600.0,
(PID.TID 0000.0001) > dumpInitAndLast = .FALSE.,
(PID.TID 0000.0001) > adjMonitorFreq = 864000.0,
(PID.TID 0000.0001) > pickupStrictlyMatch=.FALSE.,
(PID.TID 0000.0001) > &
(PID.TID 0000.0001) >
(PID.TID 0000.0001) ># Gridding parameters
(PID.TID 0000.0001) > &PARM04
(PID.TID 0000.0001) > usingCurvilinearGrid=.TRUE.,
(PID.TID 0000.0001) > delR =
(PID.TID 0000.0001) >     10.00, 10.00, 10.00, 10.00, 10.00, 10.00, 10.00, 10.01,
(PID.TID 0000.0001) >     10.03, 10.11, 10.32, 10.80, 11.76, 13.42, 16.04, 19.82, 24.85,
(PID.TID 0000.0001) >     31.10, 38.42, 46.50, 55.00, 63.50, 71.58, 78.90, 85.15, 90.18,
(PID.TID 0000.0001) >     93.96, 96.58, 98.25, 99.25,100.01,101.33,104.56,111.33,122.83,
(PID.TID 0000.0001) >     139.09,158.94,180.83,203.55,226.50,249.50,272.50,295.50,318.50,
(PID.TID 0000.0001) >     341.50,364.50,387.50,410.50,433.50,456.50,
(PID.TID 0000.0001) > &
(PID.TID 0000.0001) >
(PID.TID 0000.0001) ># Input datasets
(PID.TID 0000.0001) > &PARM05
(PID.TID 0000.0001) > bathyFile      ='bathy.bin',
(PID.TID 0000.0001) > hydrogThetaFile='initial_theta.bin',
(PID.TID 0000.0001) > &
(PID.TID 0000.0001) 
(PID.TID 0000.0001)  INI_PARMS ; starts to read PARM01
(PID.TID 0000.0001)  INI_PARMS ; read PARM01 : OK
(PID.TID 0000.0001)  INI_PARMS ; starts to read PARM02
(PID.TID 0000.0001)  INI_PARMS ; read PARM02 : OK
(PID.TID 0000.0001)  INI_PARMS ; starts to read PARM03
(PID.TID 0000.0001)  INI_PARMS ; read PARM03 : OK
(PID.TID 0000.0001)  INI_PARMS ; starts to read PARM04
(PID.TID 0000.0001)  INI_PARMS ; read PARM04 : OK
(PID.TID 0000.0001)  INI_PARMS ; starts to read PARM05
(PID.TID 0000.0001)  INI_PARMS ; read PARM05 : OK
(PID.TID 0000.0001)  INI_PARMS: finished reading file "data"
(PID.TID 0000.0001)  PACKAGES_BOOT: opening data.pkg
(PID.TID 0000.0001)  OPEN_COPY_DATA_FILE: opening file data.pkg
(PID.TID 0000.0001) // =======================================================
(PID.TID 0000.0001) // Parameter file "data.pkg"
(PID.TID 0000.0001) // =======================================================
(PID.TID 0000.0001) ># Packages
(PID.TID 0000.0001) > &PACKAGES
(PID.TID 0000.0001) > useDiagnostics     = .TRUE.,
(PID.TID 0000.0001) > &
(PID.TID 0000.0001) 
(PID.TID 0000.0001)  PACKAGES_BOOT: finished reading data.pkg
(PID.TID 0000.0001)  PACKAGES_BOOT: On/Off package Summary
 --------  pkgs with a standard "usePKG" On/Off switch in "data.pkg":  --------
 pkg/diagnostics          compiled   and   used ( useDiagnostics           = T )
 -------- pkgs without standard "usePKG" On/Off switch in "data.pkg":  --------
 pkg/generic_advdiff      compiled   and   used ( useGAD                   = T )
 pkg/mom_common           compiled   and   used ( momStepping              = T )
 pkg/mom_vecinv           compiled   and   used ( +vectorInvariantMomentum = T )
 pkg/mom_fluxform         compiled but not used ( & not vectorInvariantMom = F )
 pkg/monitor              compiled   and   used ( monitorFreq > 0.         = T )
 pkg/debug                compiled but not used ( debugMode                = F )
 pkg/exch2                compiled   and   used
 pkg/rw                   compiled   and   used
 pkg/mdsio                compiled   and   used
(PID.TID 0000.0001)  PACKAGES_BOOT: End of package Summary
(PID.TID 0000.0001) 
(PID.TID 0000.0001)  DIAGNOSTICS_READPARMS: opening data.diagnostics
(PID.TID 0000.0001)  OPEN_COPY_DATA_FILE: opening file data.diagnostics
(PID.TID 0000.0001) // =======================================================
(PID.TID 0000.0001) // Parameter file "data.diagnostics"
(PID.TID 0000.0001) // =======================================================
(PID.TID 0000.0001) ># Diagnostic Package Choices
(PID.TID 0000.0001) >#--------------------
(PID.TID 0000.0001) >#  dumpAtLast (logical): always write output at the end of simulation (default=F)
(PID.TID 0000.0001) >#  diag_mnc   (logical): write to NetCDF files (default=useMNC)
(PID.TID 0000.0001) >#--for each output-stream:
(PID.TID 0000.0001) >#  fileName(n) : prefix of the output file name (max 80c long) for outp.stream n
(PID.TID 0000.0001) >#  frequency(n):< 0 : write snap-shot output every |frequency| seconds
(PID.TID 0000.0001) >#               > 0 : write time-average output every frequency seconds
(PID.TID 0000.0001) >#  timePhase(n)     : write at time = timePhase + multiple of |frequency|
(PID.TID 0000.0001) >#    averagingFreq  : frequency (in s) for periodic averaging interval
(PID.TID 0000.0001) >#    averagingPhase : phase     (in s) for periodic averaging interval
(PID.TID 0000.0001) >#    repeatCycle    : number of averaging intervals in 1 cycle
(PID.TID 0000.0001) >#  levels(:,n) : list of levels to write to file (Notes: declared as REAL)
(PID.TID 0000.0001) >#                when this entry is missing, select all common levels of this list
(PID.TID 0000.0001) >#  fields(:,n) : list of selected diagnostics fields (8.c) in outp.stream n
(PID.TID 0000.0001) >#                (see "available_diagnostics.log" file for the full list of diags)
(PID.TID 0000.0001) >#  missing_value(n) : missing value for real-type fields in output file "n"
(PID.TID 0000.0001) >#  fileFlags(n)     : specific code (8c string) for output file "n"
(PID.TID 0000.0001) >#--------------------
(PID.TID 0000.0001) ># oceTAUX  zonal surface wind stress, >0 increases uVel (N/m^2)
(PID.TID 0000.0001) ># oceTAUY  meridional surf. wind stress, >0 increases vVel (N/m^2)
(PID.TID 0000.0001) ># oceFWflx net surface Fresh-Water flux into ocean, >0 decreases salinity (kg/m^2/s)
(PID.TID 0000.0001) ># oceSflux net surface Salt flux into the ocean, >0 increases salinity (g/m^2/s)
(PID.TID 0000.0001) ># oceQnet  net surface heat flux into the ocean, >0 increases theta (W/m^2)
(PID.TID 0000.0001) ># oceQsw   net Short-Wave radiation (+=down), >0 increases theta (W/m^2)
(PID.TID 0000.0001) ># SSS      Sea Surface Salinity (g/kg)
(PID.TID 0000.0001) ># SST      Sea Surface Temperature (degC)
(PID.TID 0000.0001) ># UVEL1    Zonal Surface Velocity (m/s)
(PID.TID 0000.0001) ># VVEL1    Meridional Surface Velocity (m/s)
(PID.TID 0000.0001) >
(PID.TID 0000.0001) > &DIAGNOSTICS_LIST
(PID.TID 0000.0001) >   frequency(1)  = -3600.,
(PID.TID 0000.0001) >    fields(1,1)  = 'THETA   ',
(PID.TID 0000.0001) >    levels(1,1)  = 1.,
(PID.TID 0000.0001) >    filename(1)  = 'SST',
(PID.TID 0000.0001) > &
(PID.TID 0000.0001) >
(PID.TID 0000.0001) > &DIAG_STATIS_PARMS
(PID.TID 0000.0001) > &
(PID.TID 0000.0001) 
(PID.TID 0000.0001) S/R DIAGNOSTICS_READPARMS, read namelist "diagnostics_list": start
(PID.TID 0000.0001) S/R DIAGNOSTICS_READPARMS, read namelist "diagnostics_list": OK
(PID.TID 0000.0001) S/R DIAGNOSTICS_READPARMS, read namelist "DIAG_STATIS_PARMS": start
(PID.TID 0000.0001) S/R DIAGNOSTICS_READPARMS, read namelist "DIAG_STATIS_PARMS": OK
(PID.TID 0000.0001)  DIAGNOSTICS_READPARMS: global parameter summary:
(PID.TID 0000.0001)  dumpAtLast = /* always write time-ave diags at the end */
(PID.TID 0000.0001)                   F
(PID.TID 0000.0001)     ;
(PID.TID 0000.0001)  diag_mnc =   /* write NetCDF output files */
(PID.TID 0000.0001)                   F
(PID.TID 0000.0001)     ;
(PID.TID 0000.0001)  useMissingValue = /* put MissingValue where mask = 0 */
(PID.TID 0000.0001)                   F
(PID.TID 0000.0001)     ;
(PID.TID 0000.0001)  diagCG_maxIters = /* max number of iters in diag_cg2d */
(PID.TID 0000.0001)                     300
(PID.TID 0000.0001)     ;
(PID.TID 0000.0001)  diagCG_resTarget = /* residual target for diag_cg2d */
(PID.TID 0000.0001)                 1.000000000000000E-07
(PID.TID 0000.0001)     ;
(PID.TID 0000.0001)  diagCG_pcOffDFac = /* preconditioner off-diagonal factor */
(PID.TID 0000.0001)                 9.611687812379854E-01
(PID.TID 0000.0001)     ;
(PID.TID 0000.0001) -----------------------------------------------------
(PID.TID 0000.0001)  DIAGNOSTICS_READPARMS: active diagnostics summary:
(PID.TID 0000.0001) -----------------------------------------------------
(PID.TID 0000.0001) Creating Output Stream: SST
(PID.TID 0000.0001) Output Frequency:      -3600.000000 ; Phase:        1800.000000
(PID.TID 0000.0001)  Averaging Freq.:          0.000000 , Phase:           0.000000 , Cycle:   1
(PID.TID 0000.0001)  missing value: -9.990000000000E+02
(PID.TID 0000.0001)  Levels:       1.
(PID.TID 0000.0001)  Fields:    THETA
(PID.TID 0000.0001) -----------------------------------------------------
(PID.TID 0000.0001)  DIAGNOSTICS_READPARMS: statistics diags. summary:
(PID.TID 0000.0001) -----------------------------------------------------
(PID.TID 0000.0001) 
(PID.TID 0000.0001) SET_PARMS: done
(PID.TID 0000.0001) Enter INI_VERTICAL_GRID: setInterFDr=    T ; setCenterDr=    F
(PID.TID 0000.0001) tile:   4 ; Read from file tile001.mitgrid
(PID.TID 0000.0001)   => xC yC dxF dyF rA xG yG dxV dyU rAz dxC dyC rAw rAs dxG dyG
(PID.TID 0000.0001) %MON XC_max                       =   1.7997758946678E+02
(PID.TID 0000.0001) %MON XC_min                       =  -1.7998895680928E+02
(PID.TID 0000.0001) %MON XC_mean                      =  -6.8997670631350E+00
(PID.TID 0000.0001) %MON XC_sd                        =   1.0548127462941E+02
(PID.TID 0000.0001) %MON XG_max                       =   1.8000000000000E+02
(PID.TID 0000.0001) %MON XG_min                       =  -1.7999919444240E+02
(PID.TID 0000.0001) %MON XG_mean                      =  -6.3521159278861E+00
(PID.TID 0000.0001) %MON XG_sd                        =   1.0549598176576E+02
(PID.TID 0000.0001) %MON DXC_max                      =   1.1117680031365E+05
(PID.TID 0000.0001) %MON DXC_min                      =   1.3362789164732E+04
(PID.TID 0000.0001) %MON DXC_mean                     =   7.1345115143606E+04
(PID.TID 0000.0001) %MON DXC_sd                       =   2.6107013089865E+04
(PID.TID 0000.0001) %MON DXF_max                      =   1.1117680031365E+05
(PID.TID 0000.0001) %MON DXF_min                      =   1.3491575949394E+04
(PID.TID 0000.0001) %MON DXF_mean                     =   7.1334806791260E+04
(PID.TID 0000.0001) %MON DXF_sd                       =   2.6121349328995E+04
(PID.TID 0000.0001) %MON DXG_max                      =   1.1117747335204E+05
(PID.TID 0000.0001) %MON DXG_min                      =   1.0930409249570E+04
(PID.TID 0000.0001) %MON DXG_mean                     =   7.1313583950284E+04
(PID.TID 0000.0001) %MON DXG_sd                       =   2.6131714747840E+04
(PID.TID 0000.0001) %MON DXV_max                      =   1.1117747335204E+05
(PID.TID 0000.0001) %MON DXV_min                      =   9.4742518926426E+03
(PID.TID 0000.0001) %MON DXV_mean                     =   7.1323777998314E+04
(PID.TID 0000.0001) %MON DXV_sd                       =   2.6117603792432E+04
(PID.TID 0000.0001) %MON YC_max                       =   8.9739397429324E+01
(PID.TID 0000.0001) %MON YC_min                       =  -8.1637173529390E+01
(PID.TID 0000.0001) %MON YC_mean                      =  -5.9338515025079E-01
(PID.TID 0000.0001) %MON YC_sd                        =   5.1058908630085E+01
(PID.TID 0000.0001) %MON YG_max                       =   9.0000000000000E+01
(PID.TID 0000.0001) %MON YG_min                       =  -8.1805478609906E+01
(PID.TID 0000.0001) %MON YG_mean                      =  -5.7357831765458E-01
(PID.TID 0000.0001) %MON YG_sd                        =   5.1060174609345E+01
(PID.TID 0000.0001) %MON DYC_max                      =   1.1117680031365E+05
(PID.TID 0000.0001) %MON DYC_min                      =   1.3362789164732E+04
(PID.TID 0000.0001) %MON DYC_mean                     =   7.0982792089666E+04
(PID.TID 0000.0001) %MON DYC_sd                       =   2.6607387075348E+04
(PID.TID 0000.0001) %MON DYF_max                      =   1.1117680031365E+05
(PID.TID 0000.0001) %MON DYF_min                      =   1.3491575949394E+04
(PID.TID 0000.0001) %MON DYF_mean                     =   7.1000127494934E+04
(PID.TID 0000.0001) %MON DYF_sd                       =   2.6603606017547E+04
(PID.TID 0000.0001) %MON DYG_max                      =   1.1117747335204E+05
(PID.TID 0000.0001) %MON DYG_min                      =   1.0930409249570E+04
(PID.TID 0000.0001) %MON DYG_mean                     =   7.1022116512585E+04
(PID.TID 0000.0001) %MON DYG_sd                       =   2.6571715830406E+04
(PID.TID 0000.0001) %MON DYU_max                      =   1.1117747335204E+05
(PID.TID 0000.0001) %MON DYU_min                      =   9.4742518926426E+03
(PID.TID 0000.0001) %MON DYU_mean                     =   7.1004694583927E+04
(PID.TID 0000.0001) %MON DYU_sd                       =   2.6575655787476E+04
(PID.TID 0000.0001) %MON RA_max                       =   1.1896090857160E+10
(PID.TID 0000.0001) %MON RA_min                       =   2.1263387742345E+08
(PID.TID 0000.0001) %MON RA_mean                      =   5.6344293572480E+09
(PID.TID 0000.0001) %MON RA_sd                        =   3.5929461176606E+09
(PID.TID 0000.0001) %MON RAW_max                      =   1.1896090856781E+10
(PID.TID 0000.0001) %MON RAW_min                      =   1.7369571508711E+08
(PID.TID 0000.0001) %MON RAW_mean                     =   5.6355850434318E+09
(PID.TID 0000.0001) %MON RAW_sd                       =   3.5915487677190E+09
(PID.TID 0000.0001) %MON RAS_max                      =   1.1896090856781E+10
(PID.TID 0000.0001) %MON RAS_min                      =   1.7369571508711E+08
(PID.TID 0000.0001) %MON RAS_mean                     =   5.6320332286162E+09
(PID.TID 0000.0001) %MON RAS_sd                       =   3.5937184228135E+09
(PID.TID 0000.0001) %MON RAZ_max                      =   1.1891903479271E+10
(PID.TID 0000.0001) %MON RAZ_min                      =   1.0413402423292E+08
(PID.TID 0000.0001) %MON RAZ_mean                     =   5.6331824674695E+09
(PID.TID 0000.0001) %MON RAZ_sd                       =   3.5923307220197E+09
(PID.TID 0000.0001) %MON AngleCS_max                  =   1.0000000000000E+00
(PID.TID 0000.0001) %MON AngleCS_min                  =  -9.9996641938864E-01
(PID.TID 0000.0001) %MON AngleCS_mean                 =   4.0572930529500E-01
(PID.TID 0000.0001) %MON AngleCS_sd                   =   5.3874397836718E-01
(PID.TID 0000.0001) %MON AngleSN_max                  =   9.9996641938864E-01
(PID.TID 0000.0001) %MON AngleSN_min                  =  -1.0000000000000E+00
(PID.TID 0000.0001) %MON AngleSN_mean                 =  -4.9986154624599E-01
(PID.TID 0000.0001) %MON AngleSN_sd                   =   5.4339404779819E-01
(PID.TID 0000.0001) GAD_INIT_FIXED: GAD_OlMinSize=  2  0  2
(PID.TID 0000.0001) 
(PID.TID 0000.0001) // ===================================
(PID.TID 0000.0001) // GAD parameters :
(PID.TID 0000.0001) // ===================================
(PID.TID 0000.0001) tempAdvScheme =   /* Temp. Horiz.Advection scheme selector */
(PID.TID 0000.0001)                      33
(PID.TID 0000.0001)     ;
(PID.TID 0000.0001) tempVertAdvScheme =   /* Temp. Vert. Advection scheme selector */
(PID.TID 0000.0001)                      33
(PID.TID 0000.0001)     ;
(PID.TID 0000.0001) tempMultiDimAdvec =   /* use Muti-Dim Advec method for Temp */
(PID.TID 0000.0001)                   T
(PID.TID 0000.0001)     ;
(PID.TID 0000.0001) tempSOM_Advection = /* use 2nd Order Moment Advection for Temp */
(PID.TID 0000.0001)                   F
(PID.TID 0000.0001)     ;
(PID.TID 0000.0001) AdamsBashforthGt = /* apply Adams-Bashforth extrapolation on Gt */
(PID.TID 0000.0001)                   F
(PID.TID 0000.0001)     ;
(PID.TID 0000.0001) AdamsBashforth_T = /* apply Adams-Bashforth extrapolation on Temp */
(PID.TID 0000.0001)                   F
(PID.TID 0000.0001)     ;
(PID.TID 0000.0001) saltAdvScheme =   /* Salt. Horiz.advection scheme selector */
(PID.TID 0000.0001)                      33
(PID.TID 0000.0001)     ;
(PID.TID 0000.0001) saltVertAdvScheme =   /* Salt. Vert. Advection scheme selector */
(PID.TID 0000.0001)                      33
(PID.TID 0000.0001)     ;
(PID.TID 0000.0001) saltMultiDimAdvec =   /* use Muti-Dim Advec method for Salt */
(PID.TID 0000.0001)                   T
(PID.TID 0000.0001)     ;
(PID.TID 0000.0001) saltSOM_Advection = /* use 2nd Order Moment Advection for Salt */
(PID.TID 0000.0001)                   F
(PID.TID 0000.0001)     ;
(PID.TID 0000.0001) AdamsBashforthGs = /* apply Adams-Bashforth extrapolation on Gs */
(PID.TID 0000.0001)                   F
(PID.TID 0000.0001)     ;
(PID.TID 0000.0001) AdamsBashforth_S = /* apply Adams-Bashforth extrapolation on Salt */
(PID.TID 0000.0001)                   F
(PID.TID 0000.0001)     ;
(PID.TID 0000.0001) // ===================================
(PID.TID 0000.0001) ------------------------------------------------------------
(PID.TID 0000.0001) DIAGNOSTICS_SET_LEVELS: done
(PID.TID 0000.0001)  Total Nb of available Diagnostics: ndiagt=   186
(PID.TID 0000.0001)  write list of available Diagnostics to file: available_diagnostics.log
(PID.TID 0000.0001) SETDIAG: Allocate 50 x  1 Levels for Diagnostic #    26 THETA
(PID.TID 0000.0001)   space allocated for all diagnostics:      50 levels
(PID.TID 0000.0001) DIAGNOSTICS_SET_POINTERS: done
(PID.TID 0000.0001) ------------------------------------------------------------
(PID.TID 0000.0001) DIAGSTATS_SET_REGIONS: define no region
(PID.TID 0000.0001) ------------------------------------------------------------
(PID.TID 0000.0001)   space allocated for all stats-diags:       0 levels
(PID.TID 0000.0001) DIAGSTATS_SET_POINTERS: done
(PID.TID 0000.0001) ------------------------------------------------------------
(PID.TID 0000.0001) INI_GLOBAL_DOMAIN: Found   0 CS-corner Pts in the domain
(PID.TID 0000.0001) %MON fCori_max                    =   1.4584096177006E-04
(PID.TID 0000.0001) %MON fCori_min                    =  -1.4429171327635E-04
(PID.TID 0000.0001) %MON fCori_mean                   =  -1.9531894197173E-06
(PID.TID 0000.0001) %MON fCori_sd                     =   1.0434730642309E-04
(PID.TID 0000.0001) %MON fCoriG_max                   =   1.4584247033981E-04
(PID.TID 0000.0001) %MON fCoriG_min                   =  -1.4435339896041E-04
(PID.TID 0000.0001) %MON fCoriG_mean                  =  -1.9303770726087E-06
(PID.TID 0000.0001) %MON fCoriG_sd                    =   1.0435958182593E-04
(PID.TID 0000.0001) %MON fCoriCos_max                 =   1.4584158744890E-04
(PID.TID 0000.0001) %MON fCoriCos_min                 =   6.6334365221135E-07
(PID.TID 0000.0001) %MON fCoriCos_mean                =   9.3876998486639E-05
(PID.TID 0000.0001) %MON fCoriCos_sd                  =   3.9559575367967E-05
(PID.TID 0000.0001) INI_CG2D: CG2D normalisation factor =  7.1522409280111305E-05
(PID.TID 0000.0001) INI_CG2D: cg2dTolerance = 2.845112656120382E-05 (Area=3.5801386115E+14)
(PID.TID 0000.0001) 
(PID.TID 0000.0001) // =======================================================
(PID.TID 0000.0001) // Model configuration
(PID.TID 0000.0001) // =======================================================
(PID.TID 0000.0001) //
(PID.TID 0000.0001) // "Physical" paramters ( PARM01 in namelist )
(PID.TID 0000.0001) //
(PID.TID 0000.0001) buoyancyRelation = /* Type of relation to get Buoyancy */
(PID.TID 0000.0001)               'OCEANIC'
(PID.TID 0000.0001)     ;
(PID.TID 0000.0001) fluidIsAir   =  /* fluid major constituent is Air */
(PID.TID 0000.0001)                   F
(PID.TID 0000.0001)     ;
(PID.TID 0000.0001) fluidIsWater =  /* fluid major constituent is Water */
(PID.TID 0000.0001)                   T
(PID.TID 0000.0001)     ;
(PID.TID 0000.0001) usingPCoords =  /* use p (or p*) vertical coordinate */
(PID.TID 0000.0001)                   F
(PID.TID 0000.0001)     ;
(PID.TID 0000.0001) usingZCoords =  /* use z (or z*) vertical coordinate */
(PID.TID 0000.0001)                   T
(PID.TID 0000.0001)     ;
(PID.TID 0000.0001) tRef =   /* Reference temperature profile ( oC or K ) */
(PID.TID 0000.0001)     3 @  2.300000000000000E+01,             /* K =  1:  3 */
(PID.TID 0000.0001)     3 @  2.200000000000000E+01,             /* K =  4:  6 */
(PID.TID 0000.0001)                 2.100000000000000E+01,      /* K =  7 */
(PID.TID 0000.0001)     2 @  2.000000000000000E+01,             /* K =  8:  9 */
(PID.TID 0000.0001)                 1.900000000000000E+01,      /* K = 10 */
(PID.TID 0000.0001)     2 @  1.800000000000000E+01,             /* K = 11: 12 */
(PID.TID 0000.0001)                 1.700000000000000E+01,      /* K = 13 */
(PID.TID 0000.0001)     2 @  1.600000000000000E+01,             /* K = 14: 15 */
(PID.TID 0000.0001)                 1.500000000000000E+01,      /* K = 16 */
(PID.TID 0000.0001)                 1.400000000000000E+01,      /* K = 17 */
(PID.TID 0000.0001)                 1.300000000000000E+01,      /* K = 18 */
(PID.TID 0000.0001)                 1.200000000000000E+01,      /* K = 19 */
(PID.TID 0000.0001)                 1.100000000000000E+01,      /* K = 20 */
(PID.TID 0000.0001)     2 @  9.000000000000000E+00,             /* K = 21: 22 */
(PID.TID 0000.0001)                 8.000000000000000E+00,      /* K = 23 */
(PID.TID 0000.0001)                 7.000000000000000E+00,      /* K = 24 */
(PID.TID 0000.0001)     2 @  6.000000000000000E+00,             /* K = 25: 26 */
(PID.TID 0000.0001)     2 @  5.000000000000000E+00,             /* K = 27: 28 */
(PID.TID 0000.0001)     3 @  4.000000000000000E+00,             /* K = 29: 31 */
(PID.TID 0000.0001)     3 @  3.000000000000000E+00,             /* K = 32: 34 */
(PID.TID 0000.0001)     4 @  2.000000000000000E+00,             /* K = 35: 38 */
(PID.TID 0000.0001)    12 @  1.000000000000000E+00              /* K = 39: 50 */
(PID.TID 0000.0001)     ;
(PID.TID 0000.0001) sRef =   /* Reference salinity profile ( psu ) */
(PID.TID 0000.0001)    50 @  3.450000000000000E+01              /* K =  1: 50 */
(PID.TID 0000.0001)     ;
(PID.TID 0000.0001) useStrainTensionVisc= /* Use StrainTension Form of Viscous Operator */
(PID.TID 0000.0001)                   F
(PID.TID 0000.0001)     ;
(PID.TID 0000.0001) useVariableVisc = /* Use variable horizontal viscosity */
(PID.TID 0000.0001)                   T
(PID.TID 0000.0001)     ;
(PID.TID 0000.0001) useHarmonicVisc = /* Use harmonic horizontal viscosity */
(PID.TID 0000.0001)                   T
(PID.TID 0000.0001)     ;
(PID.TID 0000.0001) useBiharmonicVisc= /* Use biharmonic horiz.  viscosity */
(PID.TID 0000.0001)                   F
(PID.TID 0000.0001)     ;
(PID.TID 0000.0001) useSmag3D = /* Use isotropic 3-D Smagorinsky viscosity */
(PID.TID 0000.0001)                   F
(PID.TID 0000.0001)     ;
(PID.TID 0000.0001) viscAh  =   /* Lateral harmonic viscosity ( m^2/s ) */
(PID.TID 0000.0001)                 1.000000000000000E+00
(PID.TID 0000.0001)     ;
(PID.TID 0000.0001) viscAhMax = /* Maximum lateral harmonic viscosity ( m^2/s ) */
(PID.TID 0000.0001)                 1.000000000000000E+21
(PID.TID 0000.0001)     ;
(PID.TID 0000.0001) viscAhGrid = /* Grid dependent lateral harmonic viscosity ( non-dim. ) */
(PID.TID 0000.0001)                 2.000000000000000E-02
(PID.TID 0000.0001)     ;
(PID.TID 0000.0001) useFullLeith = /* Use Full Form of Leith Viscosity on/off flag*/
(PID.TID 0000.0001)                   F
(PID.TID 0000.0001)     ;
(PID.TID 0000.0001) useAreaViscLength = /* Use area for visc length instead of geom. mean*/
(PID.TID 0000.0001)                   F
(PID.TID 0000.0001)     ;
(PID.TID 0000.0001) viscC2leith = /* Leith harmonic visc. factor (on grad(vort),non-dim.) */
(PID.TID 0000.0001)                 0.000000000000000E+00
(PID.TID 0000.0001)     ;
(PID.TID 0000.0001) viscC2leithD = /* Leith harmonic viscosity factor (on grad(div),non-dim.)*/
(PID.TID 0000.0001)                 0.000000000000000E+00
(PID.TID 0000.0001)     ;
(PID.TID 0000.0001) viscC2smag = /* Smagorinsky harmonic viscosity factor (non-dim.) */
(PID.TID 0000.0001)                 0.000000000000000E+00
(PID.TID 0000.0001)     ;
(PID.TID 0000.0001) viscA4  =   /* Lateral biharmonic viscosity ( m^4/s ) */
(PID.TID 0000.0001)                 0.000000000000000E+00
(PID.TID 0000.0001)     ;
(PID.TID 0000.0001) viscA4Max = /* Maximum biharmonic viscosity ( m^2/s ) */
(PID.TID 0000.0001)                 1.000000000000000E+21
(PID.TID 0000.0001)     ;
(PID.TID 0000.0001) viscA4Grid = /* Grid dependent biharmonic viscosity ( non-dim. ) */
(PID.TID 0000.0001)                 0.000000000000000E+00
(PID.TID 0000.0001)     ;
(PID.TID 0000.0001) viscC4leith = /* Leith biharm viscosity factor (on grad(vort), non-dim.)*/
(PID.TID 0000.0001)                 0.000000000000000E+00
(PID.TID 0000.0001)     ;
(PID.TID 0000.0001) viscC4leithD = /* Leith biharm viscosity factor (on grad(div), non-dim.) */
(PID.TID 0000.0001)                 0.000000000000000E+00
(PID.TID 0000.0001)     ;
(PID.TID 0000.0001) viscC4Smag = /* Smagorinsky biharm viscosity factor (non-dim) */
(PID.TID 0000.0001)                 0.000000000000000E+00
(PID.TID 0000.0001)     ;
(PID.TID 0000.0001) no_slip_sides =  /* Viscous BCs: No-slip sides */
(PID.TID 0000.0001)                   T
(PID.TID 0000.0001)     ;
(PID.TID 0000.0001) sideDragFactor = /* side-drag scaling factor (non-dim) */
(PID.TID 0000.0001)                 2.000000000000000E+00
(PID.TID 0000.0001)     ;
(PID.TID 0000.0001) viscArNr = /* vertical profile of vertical viscosity ( m^2/s )*/
(PID.TID 0000.0001)    50 @  1.000000000000000E-03              /* K =  1: 50 */
(PID.TID 0000.0001)     ;
(PID.TID 0000.0001) no_slip_bottom =  /* Viscous BCs: No-slip bottom */
(PID.TID 0000.0001)                   T
(PID.TID 0000.0001)     ;
(PID.TID 0000.0001) bottomVisc_pCell = /* Partial-cell in bottom Visc. BC */
(PID.TID 0000.0001)                   F
(PID.TID 0000.0001)     ;
(PID.TID 0000.0001) bottomDragLinear = /* linear bottom-drag coefficient ( m/s ) */
(PID.TID 0000.0001)                 0.000000000000000E+00
(PID.TID 0000.0001)     ;
(PID.TID 0000.0001) bottomDragQuadratic = /* quadratic bottom-drag coefficient (-) */
(PID.TID 0000.0001)                 1.000000000000000E-03
(PID.TID 0000.0001)     ;
(PID.TID 0000.0001) selectBotDragQuadr = /* select quadratic bottom drag options */
(PID.TID 0000.0001)                       0
(PID.TID 0000.0001)     ;
(PID.TID 0000.0001) diffKhT =   /* Laplacian diffusion of heat laterally ( m^2/s ) */
(PID.TID 0000.0001)                 1.000000000000000E+01
(PID.TID 0000.0001)     ;
(PID.TID 0000.0001) diffK4T =   /* Biharmonic diffusion of heat laterally ( m^4/s ) */
(PID.TID 0000.0001)                 0.000000000000000E+00
(PID.TID 0000.0001)     ;
(PID.TID 0000.0001) diffKhS =   /* Laplacian diffusion of salt laterally ( m^2/s ) */
(PID.TID 0000.0001)                 1.000000000000000E+01
(PID.TID 0000.0001)     ;
(PID.TID 0000.0001) diffK4S =   /* Biharmonic diffusion of salt laterally ( m^4/s ) */
(PID.TID 0000.0001)                 0.000000000000000E+00
(PID.TID 0000.0001)     ;
(PID.TID 0000.0001) diffKrNrT = /* vertical profile of vertical diffusion of Temp ( m^2/s )*/
(PID.TID 0000.0001)    50 @  1.000000000000000E-05              /* K =  1: 50 */
(PID.TID 0000.0001)     ;
(PID.TID 0000.0001) diffKrNrS = /* vertical profile of vertical diffusion of Salt ( m^2/s )*/
(PID.TID 0000.0001)    50 @  1.000000000000000E-05              /* K =  1: 50 */
(PID.TID 0000.0001)     ;
(PID.TID 0000.0001) diffKrBL79surf = /* Surface diffusion for Bryan and Lewis 79 ( m^2/s ) */
(PID.TID 0000.0001)                 0.000000000000000E+00
(PID.TID 0000.0001)     ;
(PID.TID 0000.0001) diffKrBL79deep = /* Deep diffusion for Bryan and Lewis 1979 ( m^2/s ) */
(PID.TID 0000.0001)                 0.000000000000000E+00
(PID.TID 0000.0001)     ;
(PID.TID 0000.0001) diffKrBL79scl = /* Depth scale for Bryan and Lewis 1979 ( m ) */
(PID.TID 0000.0001)                 2.000000000000000E+02
(PID.TID 0000.0001)     ;
(PID.TID 0000.0001) diffKrBL79Ho = /* Turning depth for Bryan and Lewis 1979 ( m ) */
(PID.TID 0000.0001)                -2.000000000000000E+03
(PID.TID 0000.0001)     ;
(PID.TID 0000.0001) ivdc_kappa = /* Implicit Vertical Diffusivity for Convection ( m^2/s) */
(PID.TID 0000.0001)                 1.000000000000000E+01
(PID.TID 0000.0001)     ;
(PID.TID 0000.0001) hMixCriteria=  /* Criteria for mixed-layer diagnostic */
(PID.TID 0000.0001)                -8.000000000000000E-01
(PID.TID 0000.0001)     ;
(PID.TID 0000.0001) dRhoSmall =  /* Parameter for mixed-layer diagnostic */
(PID.TID 0000.0001)                 1.000000000000000E-06
(PID.TID 0000.0001)     ;
(PID.TID 0000.0001) hMixSmooth=  /* Smoothing parameter for mixed-layer diagnostic */
(PID.TID 0000.0001)                 0.000000000000000E+00
(PID.TID 0000.0001)     ;
(PID.TID 0000.0001) eosType =  /* Type of Equation of State */
(PID.TID 0000.0001)               'JMD95Z'
(PID.TID 0000.0001)     ;
(PID.TID 0000.0001) selectP_inEOS_Zc = /* select pressure to use in EOS (0,1,2,3) */
(PID.TID 0000.0001)                       0
(PID.TID 0000.0001)     0= -g*rhoConst*z ; 1= pRef (from tRef,sRef); 2= Hyd P ; 3= Hyd+NH P
(PID.TID 0000.0001)     ;
(PID.TID 0000.0001) HeatCapacity_Cp =  /* Specific heat capacity ( J/kg/K ) */
(PID.TID 0000.0001)                 3.994000000000000E+03
(PID.TID 0000.0001)     ;
(PID.TID 0000.0001) celsius2K = /* 0 degree Celsius converted to Kelvin ( K ) */
(PID.TID 0000.0001)                 2.731500000000000E+02
(PID.TID 0000.0001)     ;
(PID.TID 0000.0001) rhoConst  = /* Reference density (Boussinesq)  ( kg/m^3 ) */
(PID.TID 0000.0001)                 1.029000000000000E+03
(PID.TID 0000.0001)     ;
(PID.TID 0000.0001) rhoFacC = /* normalized Reference density @ cell-Center (-) */
(PID.TID 0000.0001)    50 @  1.000000000000000E+00              /* K =  1: 50 */
(PID.TID 0000.0001)     ;
(PID.TID 0000.0001) rhoFacF = /* normalized Reference density @ W-Interface (-) */
(PID.TID 0000.0001)    51 @  1.000000000000000E+00              /* K =  1: 51 */
(PID.TID 0000.0001)     ;
(PID.TID 0000.0001) rhoConstFresh = /* Fresh-water reference density ( kg/m^3 ) */
(PID.TID 0000.0001)                 1.000000000000000E+03
(PID.TID 0000.0001)     ;
(PID.TID 0000.0001) gravity =   /* Gravitational acceleration ( m/s^2 ) */
(PID.TID 0000.0001)                 9.810000000000000E+00
(PID.TID 0000.0001)     ;
(PID.TID 0000.0001) gBaro =   /* Barotropic gravity ( m/s^2 ) */
(PID.TID 0000.0001)                 9.810000000000000E+00
(PID.TID 0000.0001)     ;
(PID.TID 0000.0001) gravFacC = /* gravity factor (vs surf.) @ cell-Center (-) */
(PID.TID 0000.0001)    50 @  1.000000000000000E+00              /* K =  1: 50 */
(PID.TID 0000.0001)     ;
(PID.TID 0000.0001) gravFacF = /* gravity factor (vs surf.) @ W-Interface (-) */
(PID.TID 0000.0001)    51 @  1.000000000000000E+00              /* K =  1: 51 */
(PID.TID 0000.0001)     ;
(PID.TID 0000.0001) rotationPeriod =   /* Rotation Period ( s ) */
(PID.TID 0000.0001)                 8.616400000000000E+04
(PID.TID 0000.0001)     ;
(PID.TID 0000.0001) omega =   /* Angular velocity ( rad/s ) */
(PID.TID 0000.0001)                 7.292123516990375E-05
(PID.TID 0000.0001)     ;
(PID.TID 0000.0001) f0 =   /* Reference coriolis parameter ( 1/s ) */
(PID.TID 0000.0001)                 1.000000000000000E-04
(PID.TID 0000.0001)     ;
(PID.TID 0000.0001) beta =   /* Beta ( 1/(m.s) ) */
(PID.TID 0000.0001)                 9.999999999999999E-12
(PID.TID 0000.0001)     ;
(PID.TID 0000.0001) fPrime =   /* Second coriolis parameter ( 1/s ) */
(PID.TID 0000.0001)                 0.000000000000000E+00
(PID.TID 0000.0001)     ;
(PID.TID 0000.0001) rigidLid =   /* Rigid lid on/off flag */
(PID.TID 0000.0001)                   F
(PID.TID 0000.0001)     ;
(PID.TID 0000.0001) implicitFreeSurface =   /* Implicit free surface on/off flag */
(PID.TID 0000.0001)                   T
(PID.TID 0000.0001)     ;
(PID.TID 0000.0001) freeSurfFac =   /* Implicit free surface factor */
(PID.TID 0000.0001)                 1.000000000000000E+00
(PID.TID 0000.0001)     ;
(PID.TID 0000.0001) implicSurfPress =  /* Surface Pressure implicit factor (0-1)*/
(PID.TID 0000.0001)                 1.000000000000000E+00
(PID.TID 0000.0001)     ;
(PID.TID 0000.0001) implicDiv2DFlow =  /* Barot. Flow Div. implicit factor (0-1)*/
(PID.TID 0000.0001)                 1.000000000000000E+00
(PID.TID 0000.0001)     ;
(PID.TID 0000.0001) uniformLin_PhiSurf = /* use uniform Bo_surf on/off flag*/
(PID.TID 0000.0001)                   T
(PID.TID 0000.0001)     ;
(PID.TID 0000.0001) uniformFreeSurfLev = /* free-surface level-index is uniform */
(PID.TID 0000.0001)                   T
(PID.TID 0000.0001)     ;
(PID.TID 0000.0001) hFacMin =   /* minimum partial cell factor (hFac) */
(PID.TID 0000.0001)                 2.000000000000000E-01
(PID.TID 0000.0001)     ;
(PID.TID 0000.0001) hFacMinDr = /* minimum partial cell thickness ( m) */
(PID.TID 0000.0001)                 5.000000000000000E+00
(PID.TID 0000.0001)     ;
(PID.TID 0000.0001) exactConserv =  /* Exact Volume Conservation on/off flag*/
(PID.TID 0000.0001)                   T
(PID.TID 0000.0001)     ;
(PID.TID 0000.0001) linFSConserveTr = /* Tracer correction for Lin Free Surface on/off flag*/
(PID.TID 0000.0001)                   F
(PID.TID 0000.0001)     ;
(PID.TID 0000.0001) nonlinFreeSurf = /* Non-linear Free Surf. options (-1,0,1,2,3)*/
(PID.TID 0000.0001)                       0
(PID.TID 0000.0001)      -1,0= Off ; 1,2,3= On, 2=+rescale gU,gV, 3=+update cg2d solv.
(PID.TID 0000.0001)     ;
(PID.TID 0000.0001) hFacInf =   /* lower threshold for hFac (nonlinFreeSurf only)*/
(PID.TID 0000.0001)                 2.000000000000000E-01
(PID.TID 0000.0001)     ;
(PID.TID 0000.0001) hFacSup =   /* upper threshold for hFac (nonlinFreeSurf only)*/
(PID.TID 0000.0001)                 2.000000000000000E+00
(PID.TID 0000.0001)     ;
(PID.TID 0000.0001) select_rStar = /* r* Vertical coord. options (=0 r coord.; >0 uses r*)*/
(PID.TID 0000.0001)                       0
(PID.TID 0000.0001)     ;
(PID.TID 0000.0001) useRealFreshWaterFlux = /* Real Fresh Water Flux on/off flag*/
(PID.TID 0000.0001)                   T
(PID.TID 0000.0001)     ;
(PID.TID 0000.0001) temp_EvPrRn = /* Temp. of Evap/Prec/R (UNSET=use local T)(oC)*/
(PID.TID 0000.0001)                 1.234567000000000E+05
(PID.TID 0000.0001)     ;
(PID.TID 0000.0001) salt_EvPrRn = /* Salin. of Evap/Prec/R (UNSET=use local S)(psu)*/
(PID.TID 0000.0001)                 0.000000000000000E+00
(PID.TID 0000.0001)     ;
(PID.TID 0000.0001) selectAddFluid = /* option for mass source/sink of fluid (=0: off) */
(PID.TID 0000.0001)                       0
(PID.TID 0000.0001)     ;
(PID.TID 0000.0001) temp_addMass = /* Temp. of addMass array (UNSET=use local T)(oC)*/
(PID.TID 0000.0001)                 1.234567000000000E+05
(PID.TID 0000.0001)     ;
(PID.TID 0000.0001) salt_addMass = /* Salin. of addMass array (UNSET=use local S)(psu)*/
(PID.TID 0000.0001)                 0.000000000000000E+00
(PID.TID 0000.0001)     ;
(PID.TID 0000.0001) convertFW2Salt = /* convert F.W. Flux to Salt Flux (-1=use local S)(psu)*/
(PID.TID 0000.0001)                -1.000000000000000E+00
(PID.TID 0000.0001)     ;
(PID.TID 0000.0001) use3Dsolver = /* use 3-D pressure solver on/off flag */
(PID.TID 0000.0001)                   F
(PID.TID 0000.0001)     ;
(PID.TID 0000.0001) nonHydrostatic =  /* Non-Hydrostatic on/off flag */
(PID.TID 0000.0001)                   F
(PID.TID 0000.0001)     ;
(PID.TID 0000.0001) nh_Am2 = /* Non-Hydrostatic terms scaling factor */
(PID.TID 0000.0001)                 1.000000000000000E+00
(PID.TID 0000.0001)     ;
(PID.TID 0000.0001) implicitNHPress = /* Non-Hyd Pressure implicit factor (0-1)*/
(PID.TID 0000.0001)                 1.000000000000000E+00
(PID.TID 0000.0001)     ;
(PID.TID 0000.0001) selectNHfreeSurf = /* Non-Hyd (free-)Surface option */
(PID.TID 0000.0001)                       0
(PID.TID 0000.0001)     ;
(PID.TID 0000.0001) quasiHydrostatic = /* Quasi-Hydrostatic on/off flag */
(PID.TID 0000.0001)                   F
(PID.TID 0000.0001)     ;
(PID.TID 0000.0001) calc_wVelocity = /* vertical velocity calculation on/off flag */
(PID.TID 0000.0001)                   T
(PID.TID 0000.0001)     ;
(PID.TID 0000.0001) momStepping =  /* Momentum equation on/off flag */
(PID.TID 0000.0001)                   T
(PID.TID 0000.0001)     ;
(PID.TID 0000.0001) vectorInvariantMomentum= /* Vector-Invariant Momentum on/off */
(PID.TID 0000.0001)                   T
(PID.TID 0000.0001)     ;
(PID.TID 0000.0001) momAdvection =  /* Momentum advection on/off flag */
(PID.TID 0000.0001)                   T
(PID.TID 0000.0001)     ;
(PID.TID 0000.0001) momViscosity =  /* Momentum viscosity on/off flag */
(PID.TID 0000.0001)                   T
(PID.TID 0000.0001)     ;
(PID.TID 0000.0001) momImplVertAdv= /* Momentum implicit vert. advection on/off*/
(PID.TID 0000.0001)                   F
(PID.TID 0000.0001)     ;
(PID.TID 0000.0001) implicitViscosity = /* Implicit viscosity on/off flag */
(PID.TID 0000.0001)                   T
(PID.TID 0000.0001)     ;
(PID.TID 0000.0001) selectImplicitDrag= /* Implicit bot Drag options (0,1,2)*/
(PID.TID 0000.0001)                       0
(PID.TID 0000.0001)     0= Expl. ; 1= Impl. on provis. Vel ; 2= Fully Impl (with surf.P)
(PID.TID 0000.0001)     ;
(PID.TID 0000.0001) metricTerms =  /* metric-Terms on/off flag */
(PID.TID 0000.0001)                   F
(PID.TID 0000.0001)     ;
(PID.TID 0000.0001) useNHMTerms = /* Non-Hydrostatic Metric-Terms on/off */
(PID.TID 0000.0001)                   F
(PID.TID 0000.0001)     ;
(PID.TID 0000.0001) selectCoriMap = /* Coriolis Map options (0,1,2,3)*/
(PID.TID 0000.0001)                       2
(PID.TID 0000.0001)     0= f-Plane ; 1= Beta-Plane ; 2= Spherical ; 3= read from file
(PID.TID 0000.0001)     ;
(PID.TID 0000.0001) use3dCoriolis = /* 3-D Coriolis on/off flag */
(PID.TID 0000.0001)                   F
(PID.TID 0000.0001)     ;
(PID.TID 0000.0001) useCoriolis =  /* Coriolis on/off flag */
(PID.TID 0000.0001)                   T
(PID.TID 0000.0001)     ;
(PID.TID 0000.0001) useCDscheme =  /* CD scheme on/off flag */
(PID.TID 0000.0001)                   F
(PID.TID 0000.0001)     ;
(PID.TID 0000.0001) useEnergyConservingCoriolis= /* Flx-Form Coriolis scheme flag */
(PID.TID 0000.0001)                   F
(PID.TID 0000.0001)     ;
(PID.TID 0000.0001) useJamartWetPoints= /* Coriolis WetPoints method flag */
(PID.TID 0000.0001)                   T
(PID.TID 0000.0001)     ;
(PID.TID 0000.0001) useJamartMomAdv= /* V.I Non-linear terms Jamart flag */
(PID.TID 0000.0001)                   F
(PID.TID 0000.0001)     ;
(PID.TID 0000.0001) useAbsVorticity= /* V.I Works with f+zeta in Coriolis */
(PID.TID 0000.0001)                   F
(PID.TID 0000.0001)     ;
(PID.TID 0000.0001) selectVortScheme= /* V.I Scheme selector for Vorticity-Term */
(PID.TID 0000.0001)                       1
(PID.TID 0000.0001)    = 0 : enstrophy (Shallow-Water Eq.) conserving scheme by Sadourny, JAS 75
(PID.TID 0000.0001)    = 1 : same as 0 with modified hFac
(PID.TID 0000.0001)    = 2 : energy conserving scheme (used by Sadourny in JAS 75 paper)
(PID.TID 0000.0001)    = 3 : energy (general) and enstrophy (2D, nonDiv.) conserving scheme
(PID.TID 0000.0001)          from Sadourny (Burridge & Haseler, ECMWF Rep.4, 1977)
(PID.TID 0000.0001)     ;
(PID.TID 0000.0001) upwindVorticity= /* V.I Upwind bias vorticity flag */
(PID.TID 0000.0001)                   F
(PID.TID 0000.0001)     ;
(PID.TID 0000.0001) highOrderVorticity= /* V.I High order vort. advect. flag */
(PID.TID 0000.0001)                   F
(PID.TID 0000.0001)     ;
(PID.TID 0000.0001) upwindShear= /* V.I Upwind vertical Shear advection flag */
(PID.TID 0000.0001)                   F
(PID.TID 0000.0001)     ;
(PID.TID 0000.0001) selectKEscheme= /* V.I Kinetic Energy scheme selector */
(PID.TID 0000.0001)                       0
(PID.TID 0000.0001)     ;
(PID.TID 0000.0001) momForcing =  /* Momentum forcing on/off flag */
(PID.TID 0000.0001)                   T
(PID.TID 0000.0001)     ;
(PID.TID 0000.0001) momPressureForcing =  /* Momentum pressure term on/off flag */
(PID.TID 0000.0001)                   T
(PID.TID 0000.0001)     ;
(PID.TID 0000.0001) implicitIntGravWave= /* Implicit Internal Gravity Wave flag */
(PID.TID 0000.0001)                   F
(PID.TID 0000.0001)     ;
(PID.TID 0000.0001) staggerTimeStep =    /* Stagger time stepping on/off flag */
(PID.TID 0000.0001)                   T
(PID.TID 0000.0001)     ;
(PID.TID 0000.0001) doResetHFactors = /* reset thickness factors @ each time-step */
(PID.TID 0000.0001)                   F
(PID.TID 0000.0001)     ;
(PID.TID 0000.0001) multiDimAdvection =  /* enable/disable Multi-Dim Advection */
(PID.TID 0000.0001)                   T
(PID.TID 0000.0001)     ;
(PID.TID 0000.0001) useMultiDimAdvec =   /* Multi-Dim Advection is/is-not used */
(PID.TID 0000.0001)                   T
(PID.TID 0000.0001)     ;
(PID.TID 0000.0001) implicitDiffusion = /* Implicit Diffusion on/off flag */
(PID.TID 0000.0001)                   T
(PID.TID 0000.0001)     ;
(PID.TID 0000.0001) tempStepping =  /* Temperature equation on/off flag */
(PID.TID 0000.0001)                   T
(PID.TID 0000.0001)     ;
(PID.TID 0000.0001) tempAdvection = /* Temperature advection on/off flag */
(PID.TID 0000.0001)                   T
(PID.TID 0000.0001)     ;
(PID.TID 0000.0001) tempImplVertAdv = /* Temp. implicit vert. advection on/off */
(PID.TID 0000.0001)                   F
(PID.TID 0000.0001)     ;
(PID.TID 0000.0001) tempForcing  =  /* Temperature forcing on/off flag */
(PID.TID 0000.0001)                   T
(PID.TID 0000.0001)     ;
(PID.TID 0000.0001) doThetaClimRelax = /* apply SST relaxation on/off flag */
(PID.TID 0000.0001)                   F
(PID.TID 0000.0001)     ;
(PID.TID 0000.0001) tempIsActiveTr = /* Temp. is a dynamically Active Tracer */
(PID.TID 0000.0001)                   T
(PID.TID 0000.0001)     ;
(PID.TID 0000.0001) saltStepping =  /* Salinity equation on/off flag */
(PID.TID 0000.0001)                   T
(PID.TID 0000.0001)     ;
(PID.TID 0000.0001) saltAdvection = /* Salinity advection on/off flag */
(PID.TID 0000.0001)                   T
(PID.TID 0000.0001)     ;
(PID.TID 0000.0001) saltImplVertAdv = /* Sali. implicit vert. advection on/off */
(PID.TID 0000.0001)                   F
(PID.TID 0000.0001)     ;
(PID.TID 0000.0001) saltForcing  =  /* Salinity forcing on/off flag */
(PID.TID 0000.0001)                   T
(PID.TID 0000.0001)     ;
(PID.TID 0000.0001) doSaltClimRelax = /* apply SSS relaxation on/off flag */
(PID.TID 0000.0001)                   F
(PID.TID 0000.0001)     ;
(PID.TID 0000.0001) saltIsActiveTr = /* Salt  is a dynamically Active Tracer */
(PID.TID 0000.0001)                   T
(PID.TID 0000.0001)     ;
(PID.TID 0000.0001)  readBinaryPrec = /* Precision used for reading binary files */
(PID.TID 0000.0001)                      32
(PID.TID 0000.0001)     ;
(PID.TID 0000.0001) writeBinaryPrec = /* Precision used for writing binary files */
(PID.TID 0000.0001)                      64
(PID.TID 0000.0001)     ;
(PID.TID 0000.0001)  rwSuffixType =   /* select format of mds file suffix */
(PID.TID 0000.0001)                       0
(PID.TID 0000.0001)    = 0 : myIter (I10.10) ;   = 1 : 100*myTime (100th sec) ;
(PID.TID 0000.0001)    = 2 : myTime (seconds);   = 3 : myTime/360 (10th of hr);
(PID.TID 0000.0001)    = 4 : myTime/3600 (hours)
(PID.TID 0000.0001)     ;
(PID.TID 0000.0001)  globalFiles = /* write "global" (=not per tile) files */
(PID.TID 0000.0001)                   F
(PID.TID 0000.0001)     ;
(PID.TID 0000.0001)  useSingleCpuIO = /* only master MPI process does I/O */
(PID.TID 0000.0001)                   T
(PID.TID 0000.0001)     ;
(PID.TID 0000.0001)  useSingleCpuInput = /* only master process reads input */
(PID.TID 0000.0001)                   T
(PID.TID 0000.0001)     ;
(PID.TID 0000.0001) /* debLev[*]  : level of debug & auxiliary message printing */
(PID.TID 0000.0001) debLevZero =  0 ; /* level of disabled aux. msg printing */
(PID.TID 0000.0001)    debLevA =  1 ; /* level of minimum  aux. msg printing */
(PID.TID 0000.0001)    debLevB =  2 ; /* level of low aux. print (report read-file opening)*/
(PID.TID 0000.0001)    debLevC =  3 ; /* level of moderate debug prt (most pkgs debug msg) */
(PID.TID 0000.0001)    debLevD =  4 ; /* level of enhanced debug prt (add DEBUG_STATS prt) */
(PID.TID 0000.0001)    debLevE =  5 ; /* level of extensive debug printing */
(PID.TID 0000.0001) debugLevel =  /* select debug printing level */
(PID.TID 0000.0001)                       1
(PID.TID 0000.0001)     ;
(PID.TID 0000.0001)  plotLevel =  /* select PLOT_FIELD printing level */
(PID.TID 0000.0001)                       1
(PID.TID 0000.0001)     ;
(PID.TID 0000.0001) //
(PID.TID 0000.0001) // Elliptic solver(s) paramters ( PARM02 in namelist )
(PID.TID 0000.0001) //
(PID.TID 0000.0001) cg2dMaxIters =   /* Upper limit on 2d con. grad iterations  */
(PID.TID 0000.0001)                     300
(PID.TID 0000.0001)     ;
(PID.TID 0000.0001) cg2dChkResFreq =   /* 2d con. grad convergence test frequency */
(PID.TID 0000.0001)                       1
(PID.TID 0000.0001)     ;
(PID.TID 0000.0001) cg2dUseMinResSol= /* use cg2d last-iter(=0) / min-resid.(=1) solution */
(PID.TID 0000.0001)                       0
(PID.TID 0000.0001)     ;
(PID.TID 0000.0001) cg2dTargetResidual =   /* 2d con. grad target residual  */
(PID.TID 0000.0001)                 1.000000000000000E-07
(PID.TID 0000.0001)     ;
(PID.TID 0000.0001) cg2dTargetResWunit =   /* CG2d target residual [W units] */
(PID.TID 0000.0001)                 1.000000000000000E-12
(PID.TID 0000.0001)     ;
(PID.TID 0000.0001) cg2dPreCondFreq =   /* Freq. for updating cg2d preconditioner */
(PID.TID 0000.0001)                       1
(PID.TID 0000.0001)     ;
(PID.TID 0000.0001) useSRCGSolver =  /* use single reduction CG solver(s) */
(PID.TID 0000.0001)                   F
(PID.TID 0000.0001)     ;
(PID.TID 0000.0001) printResidualFreq = /* Freq. for printing CG residual */
(PID.TID 0000.0001)                       0
(PID.TID 0000.0001)     ;
(PID.TID 0000.0001) //
(PID.TID 0000.0001) // Time stepping paramters ( PARM03 in namelist )
(PID.TID 0000.0001) //
(PID.TID 0000.0001) deltaTMom =   /* Momentum equation timestep ( s ) */
(PID.TID 0000.0001)                 9.000000000000000E+02
(PID.TID 0000.0001)     ;
(PID.TID 0000.0001) deltaTFreeSurf = /* FreeSurface equation timestep ( s ) */
(PID.TID 0000.0001)                 9.000000000000000E+02
(PID.TID 0000.0001)     ;
(PID.TID 0000.0001) dTtracerLev =  /* Tracer equation timestep ( s ) */
(PID.TID 0000.0001)    50 @  9.000000000000000E+02              /* K =  1: 50 */
(PID.TID 0000.0001)     ;
(PID.TID 0000.0001) deltaTClock  =   /* Model clock timestep ( s ) */
(PID.TID 0000.0001)                 9.000000000000000E+02
(PID.TID 0000.0001)     ;
(PID.TID 0000.0001) cAdjFreq =   /* Convective adjustment interval ( s ) */
(PID.TID 0000.0001)                 0.000000000000000E+00
(PID.TID 0000.0001)     ;
(PID.TID 0000.0001) momForcingOutAB = /* =1: take Momentum Forcing out of Adams-Bash. stepping */
(PID.TID 0000.0001)                       1
(PID.TID 0000.0001)     ;
(PID.TID 0000.0001) tracForcingOutAB = /* =1: take T,S,pTr Forcing out of Adams-Bash. stepping */
(PID.TID 0000.0001)                       1
(PID.TID 0000.0001)     ;
(PID.TID 0000.0001) momDissip_In_AB = /* put Dissipation Tendency in Adams-Bash. stepping */
(PID.TID 0000.0001)                   F
(PID.TID 0000.0001)     ;
(PID.TID 0000.0001) doAB_onGtGs = /* apply AB on Tendencies (rather than on T,S)*/
(PID.TID 0000.0001)                   F
(PID.TID 0000.0001)     ;
(PID.TID 0000.0001) abEps =   /* Adams-Bashforth-2 stabilizing weight */
(PID.TID 0000.0001)                 1.000000000000000E-02
(PID.TID 0000.0001)     ;
(PID.TID 0000.0001) applyExchUV_early = /* Apply EXCH to U,V earlier in time-step */
(PID.TID 0000.0001)                   F
(PID.TID 0000.0001)     ;
(PID.TID 0000.0001) pickupStrictlyMatch= /* stop if pickup do not strictly match */
(PID.TID 0000.0001)                   F
(PID.TID 0000.0001)     ;
(PID.TID 0000.0001) nIter0   =   /* Run starting timestep number */
(PID.TID 0000.0001)                       0
(PID.TID 0000.0001)     ;
(PID.TID 0000.0001) nTimeSteps = /* Number of timesteps */
(PID.TID 0000.0001)                       0
(PID.TID 0000.0001)     ;
(PID.TID 0000.0001) nEndIter =   /* Run ending timestep number */
(PID.TID 0000.0001)                       0
(PID.TID 0000.0001)     ;
(PID.TID 0000.0001) baseTime =   /* Model base time ( s ) */
(PID.TID 0000.0001)                 0.000000000000000E+00
(PID.TID 0000.0001)     ;
(PID.TID 0000.0001) startTime =  /* Run start time ( s ) */
(PID.TID 0000.0001)                 0.000000000000000E+00
(PID.TID 0000.0001)     ;
(PID.TID 0000.0001) endTime  =   /* Integration ending time ( s ) */
(PID.TID 0000.0001)                 0.000000000000000E+00
(PID.TID 0000.0001)     ;
(PID.TID 0000.0001) pChkPtFreq = /* Permanent restart/pickup file interval ( s ) */
(PID.TID 0000.0001)                 3.153600000000000E+07
(PID.TID 0000.0001)     ;
(PID.TID 0000.0001) chkPtFreq  = /* Rolling restart/pickup file interval ( s ) */
(PID.TID 0000.0001)                 3.153600000000000E+07
(PID.TID 0000.0001)     ;
(PID.TID 0000.0001) pickup_write_mdsio =   /* Model IO flag. */
(PID.TID 0000.0001)                   T
(PID.TID 0000.0001)     ;
(PID.TID 0000.0001) pickup_read_mdsio =   /* Model IO flag. */
(PID.TID 0000.0001)                   T
(PID.TID 0000.0001)     ;
(PID.TID 0000.0001) writePickupAtEnd =   /* Model IO flag. */
(PID.TID 0000.0001)                   T
(PID.TID 0000.0001)     ;
(PID.TID 0000.0001) dumpFreq =   /* Model state write out interval ( s ). */
(PID.TID 0000.0001)                 0.000000000000000E+00
(PID.TID 0000.0001)     ;
(PID.TID 0000.0001) dumpInitAndLast= /* write out Initial & Last iter. model state */
(PID.TID 0000.0001)                   F
(PID.TID 0000.0001)     ;
(PID.TID 0000.0001) snapshot_mdsio =   /* Model IO flag. */
(PID.TID 0000.0001)                   T
(PID.TID 0000.0001)     ;
(PID.TID 0000.0001) monitorFreq =   /* Monitor output interval ( s ). */
(PID.TID 0000.0001)                 3.600000000000000E+03
(PID.TID 0000.0001)     ;
(PID.TID 0000.0001) monitorSelect = /* select group of variables to monitor */
(PID.TID 0000.0001)                       3
(PID.TID 0000.0001)     ;
(PID.TID 0000.0001) monitor_stdio =   /* Model IO flag. */
(PID.TID 0000.0001)                   T
(PID.TID 0000.0001)     ;
(PID.TID 0000.0001) externForcingPeriod =   /* forcing period (s) */
(PID.TID 0000.0001)                 0.000000000000000E+00
(PID.TID 0000.0001)     ;
(PID.TID 0000.0001) externForcingCycle =   /* period of the cyle (s). */
(PID.TID 0000.0001)                 0.000000000000000E+00
(PID.TID 0000.0001)     ;
(PID.TID 0000.0001) tauThetaClimRelax =   /* relaxation time scale (s) */
(PID.TID 0000.0001)                 0.000000000000000E+00
(PID.TID 0000.0001)     ;
(PID.TID 0000.0001) tauSaltClimRelax =   /* relaxation time scale (s) */
(PID.TID 0000.0001)                 0.000000000000000E+00
(PID.TID 0000.0001)     ;
(PID.TID 0000.0001) latBandClimRelax =   /* max. Lat. where relaxation */
(PID.TID 0000.0001)                 1.800000000000000E+02
(PID.TID 0000.0001)     ;
(PID.TID 0000.0001) //
(PID.TID 0000.0001) // Gridding paramters ( PARM04 in namelist )
(PID.TID 0000.0001) //
(PID.TID 0000.0001) usingCartesianGrid = /* Cartesian coordinates flag ( True/False ) */
(PID.TID 0000.0001)                   F
(PID.TID 0000.0001)     ;
(PID.TID 0000.0001) usingCylindricalGrid = /* Cylindrical coordinates flag ( True/False ) */
(PID.TID 0000.0001)                   F
(PID.TID 0000.0001)     ;
(PID.TID 0000.0001) usingSphericalPolarGrid = /* Spherical coordinates flag ( True/False ) */
(PID.TID 0000.0001)                   F
(PID.TID 0000.0001)     ;
(PID.TID 0000.0001) usingCurvilinearGrid = /* Curvilinear coordinates flag ( True/False ) */
(PID.TID 0000.0001)                   T
(PID.TID 0000.0001)     ;
(PID.TID 0000.0001) useMin4hFacEdges = /* set hFacW,S as minimum of adjacent hFacC factor */
(PID.TID 0000.0001)                   F
(PID.TID 0000.0001)     ;
(PID.TID 0000.0001) selectSigmaCoord = /* Hybrid-Sigma Vert. Coordinate option */
(PID.TID 0000.0001)                       0
(PID.TID 0000.0001)     ;
(PID.TID 0000.0001) rSigmaBnd = /* r/sigma transition ( units of r ==  m ) */
(PID.TID 0000.0001)                 1.234567000000000E+05
(PID.TID 0000.0001)     ;
(PID.TID 0000.0001) rkSign =   /* index orientation relative to vertical coordinate */
(PID.TID 0000.0001)                -1.000000000000000E+00
(PID.TID 0000.0001)     ;
(PID.TID 0000.0001) gravitySign = /* gravity orientation relative to vertical coordinate */
(PID.TID 0000.0001)                -1.000000000000000E+00
(PID.TID 0000.0001)     ;
(PID.TID 0000.0001) seaLev_Z =  /* reference height of sea-level [m] */
(PID.TID 0000.0001)                 0.000000000000000E+00
(PID.TID 0000.0001)     ;
(PID.TID 0000.0001) top_Pres =  /* reference pressure at the top [Pa] */
(PID.TID 0000.0001)                 0.000000000000000E+00
(PID.TID 0000.0001)     ;
(PID.TID 0000.0001) mass2rUnit = /* convert mass per unit area [kg/m2] to r-units [m] */
(PID.TID 0000.0001)                 9.718172983479105E-04
(PID.TID 0000.0001)     ;
(PID.TID 0000.0001) rUnit2mass = /* convert r-units [m] to mass per unit area [kg/m2] */
(PID.TID 0000.0001)                 1.029000000000000E+03
(PID.TID 0000.0001)     ;
(PID.TID 0000.0001) drC =   /* C spacing ( units of r ) */
(PID.TID 0000.0001)                 5.000000000000000E+00,      /* K =  1 */
(PID.TID 0000.0001)     6 @  1.000000000000000E+01,             /* K =  2:  7 */
(PID.TID 0000.0001)                 1.000500000000000E+01,      /* K =  8 */
(PID.TID 0000.0001)                 1.002000000000000E+01,      /* K =  9 */
(PID.TID 0000.0001)                 1.007000000000000E+01,      /* K = 10 */
(PID.TID 0000.0001)                 1.021500000000000E+01,      /* K = 11 */
(PID.TID 0000.0001)                 1.056000000000000E+01,      /* K = 12 */
(PID.TID 0000.0001)                 1.128000000000000E+01,      /* K = 13 */
(PID.TID 0000.0001)                 1.259000000000000E+01,      /* K = 14 */
(PID.TID 0000.0001)                 1.473000000000000E+01,      /* K = 15 */
(PID.TID 0000.0001)                 1.793000000000000E+01,      /* K = 16 */
(PID.TID 0000.0001)                 2.233500000000000E+01,      /* K = 17 */
(PID.TID 0000.0001)                 2.797500000000000E+01,      /* K = 18 */
(PID.TID 0000.0001)                 3.476000000000001E+01,      /* K = 19 */
(PID.TID 0000.0001)                 4.246000000000000E+01,      /* K = 20 */
(PID.TID 0000.0001)                 5.075000000000000E+01,      /* K = 21 */
(PID.TID 0000.0001)                 5.925000000000000E+01,      /* K = 22 */
(PID.TID 0000.0001)                 6.753999999999999E+01,      /* K = 23 */
(PID.TID 0000.0001)                 7.524000000000001E+01,      /* K = 24 */
(PID.TID 0000.0001)                 8.202500000000001E+01,      /* K = 25 */
(PID.TID 0000.0001)                 8.766500000000001E+01,      /* K = 26 */
(PID.TID 0000.0001)                 9.206999999999999E+01,      /* K = 27 */
(PID.TID 0000.0001)                 9.527000000000000E+01,      /* K = 28 */
(PID.TID 0000.0001)                 9.741499999999999E+01,      /* K = 29 */
(PID.TID 0000.0001)                 9.875000000000000E+01,      /* K = 30 */
(PID.TID 0000.0001)                 9.963000000000000E+01,      /* K = 31 */
(PID.TID 0000.0001)                 1.006700000000000E+02,      /* K = 32 */
(PID.TID 0000.0001)                 1.029450000000000E+02,      /* K = 33 */
(PID.TID 0000.0001)                 1.079450000000000E+02,      /* K = 34 */
(PID.TID 0000.0001)                 1.170800000000000E+02,      /* K = 35 */
(PID.TID 0000.0001)                 1.309600000000000E+02,      /* K = 36 */
(PID.TID 0000.0001)                 1.490150000000000E+02,      /* K = 37 */
(PID.TID 0000.0001)                 1.698850000000000E+02,      /* K = 38 */
(PID.TID 0000.0001)                 1.921900000000000E+02,      /* K = 39 */
(PID.TID 0000.0001)                 2.150250000000000E+02,      /* K = 40 */
(PID.TID 0000.0001)                 2.380000000000000E+02,      /* K = 41 */
(PID.TID 0000.0001)                 2.610000000000000E+02,      /* K = 42 */
(PID.TID 0000.0001)                 2.840000000000000E+02,      /* K = 43 */
(PID.TID 0000.0001)                 3.070000000000000E+02,      /* K = 44 */
(PID.TID 0000.0001)                 3.300000000000000E+02,      /* K = 45 */
(PID.TID 0000.0001)                 3.530000000000000E+02,      /* K = 46 */
(PID.TID 0000.0001)                 3.760000000000000E+02,      /* K = 47 */
(PID.TID 0000.0001)                 3.990000000000000E+02,      /* K = 48 */
(PID.TID 0000.0001)                 4.220000000000000E+02,      /* K = 49 */
(PID.TID 0000.0001)                 4.450000000000000E+02,      /* K = 50 */
(PID.TID 0000.0001)                 2.282500000000000E+02       /* K = 51 */
(PID.TID 0000.0001)     ;
(PID.TID 0000.0001) drF =   /* W spacing ( units of r ) */
(PID.TID 0000.0001)     7 @  1.000000000000000E+01,             /* K =  1:  7 */
(PID.TID 0000.0001)                 1.001000000000000E+01,      /* K =  8 */
(PID.TID 0000.0001)                 1.003000000000000E+01,      /* K =  9 */
(PID.TID 0000.0001)                 1.011000000000000E+01,      /* K = 10 */
(PID.TID 0000.0001)                 1.032000000000000E+01,      /* K = 11 */
(PID.TID 0000.0001)                 1.080000000000000E+01,      /* K = 12 */
(PID.TID 0000.0001)                 1.176000000000000E+01,      /* K = 13 */
(PID.TID 0000.0001)                 1.342000000000000E+01,      /* K = 14 */
(PID.TID 0000.0001)                 1.604000000000000E+01,      /* K = 15 */
(PID.TID 0000.0001)                 1.982000000000000E+01,      /* K = 16 */
(PID.TID 0000.0001)                 2.485000000000000E+01,      /* K = 17 */
(PID.TID 0000.0001)                 3.110000000000000E+01,      /* K = 18 */
(PID.TID 0000.0001)                 3.842000000000000E+01,      /* K = 19 */
(PID.TID 0000.0001)                 4.650000000000000E+01,      /* K = 20 */
(PID.TID 0000.0001)                 5.500000000000000E+01,      /* K = 21 */
(PID.TID 0000.0001)                 6.350000000000000E+01,      /* K = 22 */
(PID.TID 0000.0001)                 7.158000000000000E+01,      /* K = 23 */
(PID.TID 0000.0001)                 7.890000000000001E+01,      /* K = 24 */
(PID.TID 0000.0001)                 8.515000000000001E+01,      /* K = 25 */
(PID.TID 0000.0001)                 9.018000000000001E+01,      /* K = 26 */
(PID.TID 0000.0001)                 9.395999999999999E+01,      /* K = 27 */
(PID.TID 0000.0001)                 9.658000000000000E+01,      /* K = 28 */
(PID.TID 0000.0001)                 9.825000000000000E+01,      /* K = 29 */
(PID.TID 0000.0001)                 9.925000000000000E+01,      /* K = 30 */
(PID.TID 0000.0001)                 1.000100000000000E+02,      /* K = 31 */
(PID.TID 0000.0001)                 1.013300000000000E+02,      /* K = 32 */
(PID.TID 0000.0001)                 1.045600000000000E+02,      /* K = 33 */
(PID.TID 0000.0001)                 1.113300000000000E+02,      /* K = 34 */
(PID.TID 0000.0001)                 1.228300000000000E+02,      /* K = 35 */
(PID.TID 0000.0001)                 1.390900000000000E+02,      /* K = 36 */
(PID.TID 0000.0001)                 1.589400000000000E+02,      /* K = 37 */
(PID.TID 0000.0001)                 1.808300000000000E+02,      /* K = 38 */
(PID.TID 0000.0001)                 2.035500000000000E+02,      /* K = 39 */
(PID.TID 0000.0001)                 2.265000000000000E+02,      /* K = 40 */
(PID.TID 0000.0001)                 2.495000000000000E+02,      /* K = 41 */
(PID.TID 0000.0001)                 2.725000000000000E+02,      /* K = 42 */
(PID.TID 0000.0001)                 2.955000000000000E+02,      /* K = 43 */
(PID.TID 0000.0001)                 3.185000000000000E+02,      /* K = 44 */
(PID.TID 0000.0001)                 3.415000000000000E+02,      /* K = 45 */
(PID.TID 0000.0001)                 3.645000000000000E+02,      /* K = 46 */
(PID.TID 0000.0001)                 3.875000000000000E+02,      /* K = 47 */
(PID.TID 0000.0001)                 4.105000000000000E+02,      /* K = 48 */
(PID.TID 0000.0001)                 4.335000000000000E+02,      /* K = 49 */
(PID.TID 0000.0001)                 4.565000000000000E+02       /* K = 50 */
(PID.TID 0000.0001)     ;
(PID.TID 0000.0001) radius_fromHorizGrid = /* sphere Radius of input horiz. grid */
(PID.TID 0000.0001)                 6.370000000000000E+06
(PID.TID 0000.0001)     ;
(PID.TID 0000.0001) rSphere =  /* Radius ( ignored - cartesian, m - spherical ) */
(PID.TID 0000.0001)                 6.370000000000000E+06
(PID.TID 0000.0001)     ;
(PID.TID 0000.0001) deepAtmosphere = /* Deep/Shallow Atmosphere flag (True/False) */
(PID.TID 0000.0001)                   F
(PID.TID 0000.0001)     ;
(PID.TID 0000.0001) xC =  /* xC(:,1,:,1) : P-point X coord ( deg. or m if cartesian) */
(PID.TID 0000.0001)                -4.081468768806280E+01,      /* I =  1 */
(PID.TID 0000.0001)                -3.957104986057077E+01,      /* I =  2 */
(PID.TID 0000.0001)                -3.832217028656162E+01,      /* I =  3 */
(PID.TID 0000.0001)                -3.706844413107324E+01,      /* I =  4 */
(PID.TID 0000.0001)                -3.581028225779612E+01,      /* I =  5 */
(PID.TID 0000.0001)                -3.454811012006861E+01,      /* I =  6 */
(PID.TID 0000.0001)                -3.328236654497336E+01,      /* I =  7 */
(PID.TID 0000.0001)                -3.201350241727823E+01,      /* I =  8 */
(PID.TID 0000.0001)                -3.074197927113779E+01,      /* I =  9 */
(PID.TID 0000.0001)                -2.946826779826338E+01,      /* I = 10 */
(PID.TID 0000.0001)                -2.819284628214859E+01,      /* I = 11 */
(PID.TID 0000.0001)                -2.691619896217756E+01,      /* I = 12 */
(PID.TID 0000.0001)                -2.563881425705264E+01,      /* I = 13 */
(PID.TID 0000.0001)                -2.436118574294736E+01,      /* I = 14 */
(PID.TID 0000.0001)                -2.308380103782244E+01,      /* I = 15 */
(PID.TID 0000.0001)                -2.180715371785141E+01,      /* I = 16 */
(PID.TID 0000.0001)                -2.053173220173662E+01,      /* I = 17 */
(PID.TID 0000.0001)                -1.925802072886221E+01,      /* I = 18 */
(PID.TID 0000.0001)                -1.798649758272177E+01,      /* I = 19 */
(PID.TID 0000.0001)                -1.671763345502664E+01,      /* I = 20 */
(PID.TID 0000.0001)                -1.545188987993139E+01,      /* I = 21 */
(PID.TID 0000.0001)                -1.418971774220388E+01,      /* I = 22 */
(PID.TID 0000.0001)                -1.293155586892676E+01,      /* I = 23 */
(PID.TID 0000.0001)                -1.167782971343838E+01,      /* I = 24 */
(PID.TID 0000.0001)                -1.042895013942923E+01,      /* I = 25 */
(PID.TID 0000.0001)                -9.185312311937196E+00,      /* I = 26 */
(PID.TID 0000.0001)                -7.947294700425999E+00,      /* I = 27 */
(PID.TID 0000.0001)                -6.715258197621779E+00,      /* I = 28 */
(PID.TID 0000.0001)                -5.489545357070952E+00,      /* I = 29 */
(PID.TID 0000.0001)                -4.270479749729759E+00       /* I = 30 */
(PID.TID 0000.0001)     ;
(PID.TID 0000.0001) yC =  /* yC(1,:,1,:) : P-point Y coord ( deg. or m if cartesian) */
(PID.TID 0000.0001)                -8.146222940368236E+01,      /* J =  1 */
(PID.TID 0000.0001)                -8.113083815286421E+01,      /* J =  2 */
(PID.TID 0000.0001)                -8.079504828233755E+01,      /* J =  3 */
(PID.TID 0000.0001)                -8.045491317322768E+01,      /* J =  4 */
(PID.TID 0000.0001)                -8.011048280590389E+01,      /* J =  5 */
(PID.TID 0000.0001)                -7.976180430515704E+01,      /* J =  6 */
(PID.TID 0000.0001)                -7.940892240526760E+01,      /* J =  7 */
(PID.TID 0000.0001)                -7.905187984845006E+01,      /* J =  8 */
(PID.TID 0000.0001)                -7.869071772754813E+01,      /* J =  9 */
(PID.TID 0000.0001)                -7.832547578199167E+01,      /* J = 10 */
(PID.TID 0000.0001)                -7.795619265432416E+01,      /* J = 11 */
(PID.TID 0000.0001)                -7.758290611340497E+01,      /* J = 12 */
(PID.TID 0000.0001)                -7.720565324926896E+01,      /* J = 13 */
(PID.TID 0000.0001)                -7.682447064385434E+01,      /* J = 14 */
(PID.TID 0000.0001)                -7.643939452107085E+01,      /* J = 15 */
(PID.TID 0000.0001)                -7.605046087901695E+01,      /* J = 16 */
(PID.TID 0000.0001)                -7.565770560699295E+01,      /* J = 17 */
(PID.TID 0000.0001)                -7.526116458910658E+01,      /* J = 18 */
(PID.TID 0000.0001)                -7.486087379640449E+01,      /* J = 19 */
(PID.TID 0000.0001)                -7.445686936886233E+01,      /* J = 20 */
(PID.TID 0000.0001)                -7.404918768854837E+01,      /* J = 21 */
(PID.TID 0000.0001)                -7.363786544493549E+01,      /* J = 22 */
(PID.TID 0000.0001)                -7.322293969328220E+01,      /* J = 23 */
(PID.TID 0000.0001)                -7.280444790682334E+01,      /* J = 24 */
(PID.TID 0000.0001)                -7.238242802328044E+01,      /* J = 25 */
(PID.TID 0000.0001)                -7.195691848614972E+01,      /* J = 26 */
(PID.TID 0000.0001)                -7.152795828082729E+01,      /* J = 27 */
(PID.TID 0000.0001)                -7.109558696482472E+01,      /* J = 28 */
(PID.TID 0000.0001)                -7.065984468855757E+01,      /* J = 29 */
(PID.TID 0000.0001)                -7.022077218177122E+01       /* J = 30 */
(PID.TID 0000.0001)     ;
(PID.TID 0000.0001) rcoord = /* P-point R coordinate (  units of r ) */
(PID.TID 0000.0001)                -5.000000000000000E+00,      /* K =  1 */
(PID.TID 0000.0001)                -1.500000000000000E+01,      /* K =  2 */
(PID.TID 0000.0001)                -2.500000000000000E+01,      /* K =  3 */
(PID.TID 0000.0001)                -3.500000000000000E+01,      /* K =  4 */
(PID.TID 0000.0001)                -4.500000000000000E+01,      /* K =  5 */
(PID.TID 0000.0001)                -5.500000000000000E+01,      /* K =  6 */
(PID.TID 0000.0001)                -6.500000000000000E+01,      /* K =  7 */
(PID.TID 0000.0001)                -7.500500000000000E+01,      /* K =  8 */
(PID.TID 0000.0001)                -8.502499999999999E+01,      /* K =  9 */
(PID.TID 0000.0001)                -9.509500000000000E+01,      /* K = 10 */
(PID.TID 0000.0001)                -1.053100000000000E+02,      /* K = 11 */
(PID.TID 0000.0001)                -1.158700000000000E+02,      /* K = 12 */
(PID.TID 0000.0001)                -1.271500000000000E+02,      /* K = 13 */
(PID.TID 0000.0001)                -1.397400000000000E+02,      /* K = 14 */
(PID.TID 0000.0001)                -1.544700000000000E+02,      /* K = 15 */
(PID.TID 0000.0001)                -1.724000000000000E+02,      /* K = 16 */
(PID.TID 0000.0001)                -1.947350000000000E+02,      /* K = 17 */
(PID.TID 0000.0001)                -2.227100000000000E+02,      /* K = 18 */
(PID.TID 0000.0001)                -2.574700000000000E+02,      /* K = 19 */
(PID.TID 0000.0001)                -2.999300000000000E+02,      /* K = 20 */
(PID.TID 0000.0001)                -3.506800000000000E+02,      /* K = 21 */
(PID.TID 0000.0001)                -4.099300000000000E+02,      /* K = 22 */
(PID.TID 0000.0001)                -4.774700000000000E+02,      /* K = 23 */
(PID.TID 0000.0001)                -5.527100000000000E+02,      /* K = 24 */
(PID.TID 0000.0001)                -6.347350000000000E+02,      /* K = 25 */
(PID.TID 0000.0001)                -7.224000000000000E+02,      /* K = 26 */
(PID.TID 0000.0001)                -8.144700000000000E+02,      /* K = 27 */
(PID.TID 0000.0001)                -9.097400000000000E+02,      /* K = 28 */
(PID.TID 0000.0001)                -1.007155000000000E+03,      /* K = 29 */
(PID.TID 0000.0001)                -1.105905000000000E+03,      /* K = 30 */
(PID.TID 0000.0001)                -1.205535000000000E+03,      /* K = 31 */
(PID.TID 0000.0001)                -1.306205000000000E+03,      /* K = 32 */
(PID.TID 0000.0001)                -1.409150000000000E+03,      /* K = 33 */
(PID.TID 0000.0001)                -1.517095000000000E+03,      /* K = 34 */
(PID.TID 0000.0001)                -1.634175000000000E+03,      /* K = 35 */
(PID.TID 0000.0001)                -1.765135000000000E+03,      /* K = 36 */
(PID.TID 0000.0001)                -1.914150000000000E+03,      /* K = 37 */
(PID.TID 0000.0001)                -2.084035000000000E+03,      /* K = 38 */
(PID.TID 0000.0001)                -2.276225000000000E+03,      /* K = 39 */
(PID.TID 0000.0001)                -2.491250000000000E+03,      /* K = 40 */
(PID.TID 0000.0001)                -2.729250000000000E+03,      /* K = 41 */
(PID.TID 0000.0001)                -2.990250000000000E+03,      /* K = 42 */
(PID.TID 0000.0001)                -3.274250000000000E+03,      /* K = 43 */
(PID.TID 0000.0001)                -3.581250000000000E+03,      /* K = 44 */
(PID.TID 0000.0001)                -3.911250000000000E+03,      /* K = 45 */
(PID.TID 0000.0001)                -4.264250000000000E+03,      /* K = 46 */
(PID.TID 0000.0001)                -4.640250000000000E+03,      /* K = 47 */
(PID.TID 0000.0001)                -5.039250000000000E+03,      /* K = 48 */
(PID.TID 0000.0001)                -5.461250000000000E+03,      /* K = 49 */
(PID.TID 0000.0001)                -5.906250000000000E+03       /* K = 50 */
(PID.TID 0000.0001)     ;
(PID.TID 0000.0001) rF =   /* W-Interf. R coordinate (  units of r ) */
(PID.TID 0000.0001)                 0.000000000000000E+00,      /* K =  1 */
(PID.TID 0000.0001)                -1.000000000000000E+01,      /* K =  2 */
(PID.TID 0000.0001)                -2.000000000000000E+01,      /* K =  3 */
(PID.TID 0000.0001)                -3.000000000000000E+01,      /* K =  4 */
(PID.TID 0000.0001)                -4.000000000000000E+01,      /* K =  5 */
(PID.TID 0000.0001)                -5.000000000000000E+01,      /* K =  6 */
(PID.TID 0000.0001)                -6.000000000000000E+01,      /* K =  7 */
(PID.TID 0000.0001)                -7.000000000000000E+01,      /* K =  8 */
(PID.TID 0000.0001)                -8.001000000000001E+01,      /* K =  9 */
(PID.TID 0000.0001)                -9.004000000000001E+01,      /* K = 10 */
(PID.TID 0000.0001)                -1.001500000000000E+02,      /* K = 11 */
(PID.TID 0000.0001)                -1.104700000000000E+02,      /* K = 12 */
(PID.TID 0000.0001)                -1.212700000000000E+02,      /* K = 13 */
(PID.TID 0000.0001)                -1.330300000000000E+02,      /* K = 14 */
(PID.TID 0000.0001)                -1.464500000000000E+02,      /* K = 15 */
(PID.TID 0000.0001)                -1.624900000000000E+02,      /* K = 16 */
(PID.TID 0000.0001)                -1.823100000000000E+02,      /* K = 17 */
(PID.TID 0000.0001)                -2.071600000000000E+02,      /* K = 18 */
(PID.TID 0000.0001)                -2.382600000000000E+02,      /* K = 19 */
(PID.TID 0000.0001)                -2.766799999999999E+02,      /* K = 20 */
(PID.TID 0000.0001)                -3.231799999999999E+02,      /* K = 21 */
(PID.TID 0000.0001)                -3.781799999999999E+02,      /* K = 22 */
(PID.TID 0000.0001)                -4.416799999999999E+02,      /* K = 23 */
(PID.TID 0000.0001)                -5.132600000000000E+02,      /* K = 24 */
(PID.TID 0000.0001)                -5.921600000000000E+02,      /* K = 25 */
(PID.TID 0000.0001)                -6.773099999999999E+02,      /* K = 26 */
(PID.TID 0000.0001)                -7.674900000000000E+02,      /* K = 27 */
(PID.TID 0000.0001)                -8.614500000000000E+02,      /* K = 28 */
(PID.TID 0000.0001)                -9.580300000000001E+02,      /* K = 29 */
(PID.TID 0000.0001)                -1.056280000000000E+03,      /* K = 30 */
(PID.TID 0000.0001)                -1.155530000000000E+03,      /* K = 31 */
(PID.TID 0000.0001)                -1.255540000000000E+03,      /* K = 32 */
(PID.TID 0000.0001)                -1.356870000000000E+03,      /* K = 33 */
(PID.TID 0000.0001)                -1.461430000000000E+03,      /* K = 34 */
(PID.TID 0000.0001)                -1.572760000000000E+03,      /* K = 35 */
(PID.TID 0000.0001)                -1.695590000000000E+03,      /* K = 36 */
(PID.TID 0000.0001)                -1.834680000000000E+03,      /* K = 37 */
(PID.TID 0000.0001)                -1.993620000000000E+03,      /* K = 38 */
(PID.TID 0000.0001)                -2.174450000000000E+03,      /* K = 39 */
(PID.TID 0000.0001)                -2.378000000000000E+03,      /* K = 40 */
(PID.TID 0000.0001)                -2.604500000000000E+03,      /* K = 41 */
(PID.TID 0000.0001)                -2.854000000000000E+03,      /* K = 42 */
(PID.TID 0000.0001)                -3.126500000000000E+03,      /* K = 43 */
(PID.TID 0000.0001)                -3.422000000000000E+03,      /* K = 44 */
(PID.TID 0000.0001)                -3.740500000000000E+03,      /* K = 45 */
(PID.TID 0000.0001)                -4.082000000000000E+03,      /* K = 46 */
(PID.TID 0000.0001)                -4.446500000000000E+03,      /* K = 47 */
(PID.TID 0000.0001)                -4.834000000000000E+03,      /* K = 48 */
(PID.TID 0000.0001)                -5.244500000000000E+03,      /* K = 49 */
(PID.TID 0000.0001)                -5.678000000000000E+03,      /* K = 50 */
(PID.TID 0000.0001)                -6.134500000000000E+03       /* K = 51 */
(PID.TID 0000.0001)     ;
(PID.TID 0000.0001) deepFacC = /* deep-model grid factor @ cell-Center (-) */
(PID.TID 0000.0001)    50 @  1.000000000000000E+00              /* K =  1: 50 */
(PID.TID 0000.0001)     ;
(PID.TID 0000.0001) deepFacF = /* deep-model grid factor @ W-Interface (-) */
(PID.TID 0000.0001)    51 @  1.000000000000000E+00              /* K =  1: 51 */
(PID.TID 0000.0001)     ;
(PID.TID 0000.0001) rVel2wUnit = /* convert units: rVel -> wSpeed (=1 if z-coord)*/
(PID.TID 0000.0001)    51 @  1.000000000000000E+00              /* K =  1: 51 */
(PID.TID 0000.0001)     ;
(PID.TID 0000.0001) wUnit2rVel = /* convert units: wSpeed -> rVel (=1 if z-coord)*/
(PID.TID 0000.0001)    51 @  1.000000000000000E+00              /* K =  1: 51 */
(PID.TID 0000.0001)     ;
(PID.TID 0000.0001) dBdrRef = /* Vertical grad. of reference buoyancy [(m/s/r)^2] */
(PID.TID 0000.0001)     3 @  0.000000000000000E+00,             /* K =  1:  3 */
(PID.TID 0000.0001)                 2.706065538651213E-04,      /* K =  4 */
(PID.TID 0000.0001)     2 @  0.000000000000000E+00,             /* K =  5:  6 */
(PID.TID 0000.0001)                 2.632794562663490E-04,      /* K =  7 */
(PID.TID 0000.0001)                 2.554318021231947E-04,      /* K =  8 */
(PID.TID 0000.0001)                 0.000000000000000E+00,      /* K =  9 */
(PID.TID 0000.0001)                 2.461524232360561E-04,      /* K = 10 */
(PID.TID 0000.0001)                 2.348694431245364E-04,      /* K = 11 */
(PID.TID 0000.0001)                 0.000000000000000E+00,      /* K = 12 */
(PID.TID 0000.0001)                 2.056847859884566E-04,      /* K = 13 */
(PID.TID 0000.0001)                 1.777764506003336E-04,      /* K = 14 */
(PID.TID 0000.0001)                 0.000000000000000E+00,      /* K = 15 */
(PID.TID 0000.0001)                 1.203533867077665E-04,      /* K = 16 */
(PID.TID 0000.0001)                 9.288540355629585E-05,      /* K = 17 */
(PID.TID 0000.0001)                 7.115862770365155E-05,      /* K = 18 */
(PID.TID 0000.0001)                 5.484365820533800E-05,      /* K = 19 */
(PID.TID 0000.0001)                 4.290935507113214E-05,      /* K = 20 */
(PID.TID 0000.0001)                 6.658747741703880E-05,      /* K = 21 */
(PID.TID 0000.0001)                 0.000000000000000E+00,      /* K = 22 */
(PID.TID 0000.0001)                 2.323718420342036E-05,      /* K = 23 */
(PID.TID 0000.0001)                 1.974682037962757E-05,      /* K = 24 */
(PID.TID 0000.0001)                 1.709468932536602E-05,      /* K = 25 */
(PID.TID 0000.0001)                 0.000000000000000E+00,      /* K = 26 */
(PID.TID 0000.0001)                 1.455436545977052E-05,      /* K = 27 */
(PID.TID 0000.0001)                 0.000000000000000E+00,      /* K = 28 */
(PID.TID 0000.0001)                 1.315287111980149E-05,      /* K = 29 */
(PID.TID 0000.0001)     2 @  0.000000000000000E+00,             /* K = 30: 31 */
(PID.TID 0000.0001)                 1.240968507885233E-05,      /* K = 32 */
(PID.TID 0000.0001)     2 @  0.000000000000000E+00,             /* K = 33: 34 */
(PID.TID 0000.0001)                 1.045141607964570E-05,      /* K = 35 */
(PID.TID 0000.0001)     3 @  0.000000000000000E+00,             /* K = 36: 38 */
(PID.TID 0000.0001)                 6.628797113709505E-06,      /* K = 39 */
(PID.TID 0000.0001)    11 @  0.000000000000000E+00              /* K = 40: 50 */
(PID.TID 0000.0001)     ;
(PID.TID 0000.0001) rotateGrid = /* use rotated grid ( True/False ) */
(PID.TID 0000.0001)                   F
(PID.TID 0000.0001)     ;
(PID.TID 0000.0001) phiEuler = /* Euler angle, rotation about original z-coordinate [rad] */
(PID.TID 0000.0001)                 0.000000000000000E+00
(PID.TID 0000.0001)     ;
(PID.TID 0000.0001) thetaEuler = /* Euler angle, rotation about new x-coordinate [rad] */
(PID.TID 0000.0001)                 0.000000000000000E+00
(PID.TID 0000.0001)     ;
(PID.TID 0000.0001) psiEuler = /* Euler angle, rotation about new z-coordinate [rad] */
(PID.TID 0000.0001)                 0.000000000000000E+00
(PID.TID 0000.0001)     ;
(PID.TID 0000.0001) dxF =  /* dxF(:,1,:,1) ( units: m ) */
(PID.TID 0000.0001)                 2.071152825743187E+04,      /* I =  1 */
(PID.TID 0000.0001)                 2.070365142756831E+04,      /* I =  2 */
(PID.TID 0000.0001)                 2.069635296570141E+04,      /* I =  3 */
(PID.TID 0000.0001)                 2.068965358413176E+04,      /* I =  4 */
(PID.TID 0000.0001)                 2.068357195583360E+04,      /* I =  5 */
(PID.TID 0000.0001)                 2.067812475356784E+04,      /* I =  6 */
(PID.TID 0000.0001)                 2.067332670125947E+04,      /* I =  7 */
(PID.TID 0000.0001)                 2.066919060389092E+04,      /* I =  8 */
(PID.TID 0000.0001)                 2.066572738985245E+04,      /* I =  9 */
(PID.TID 0000.0001)                 2.066294615597989E+04,      /* I = 10 */
(PID.TID 0000.0001)                 2.066085425372315E+04,      /* I = 11 */
(PID.TID 0000.0001)                 2.065945771525925E+04,      /* I = 12 */
(PID.TID 0000.0001)                 2.065874381268158E+04,      /* I = 13 */
(PID.TID 0000.0001)                 2.065874381268158E+04,      /* I = 14 */
(PID.TID 0000.0001)                 2.065945771525925E+04,      /* I = 15 */
(PID.TID 0000.0001)                 2.066085425372316E+04,      /* I = 16 */
(PID.TID 0000.0001)                 2.066294615597989E+04,      /* I = 17 */
(PID.TID 0000.0001)                 2.066572738985245E+04,      /* I = 18 */
(PID.TID 0000.0001)                 2.066919060389088E+04,      /* I = 19 */
(PID.TID 0000.0001)                 2.067332670125956E+04,      /* I = 20 */
(PID.TID 0000.0001)                 2.067812475356780E+04,      /* I = 21 */
(PID.TID 0000.0001)                 2.068357195583360E+04,      /* I = 22 */
(PID.TID 0000.0001)                 2.068965358413182E+04,      /* I = 23 */
(PID.TID 0000.0001)                 2.069635296570133E+04,      /* I = 24 */
(PID.TID 0000.0001)                 2.070365142756836E+04,      /* I = 25 */
(PID.TID 0000.0001)                 2.071152825743182E+04,      /* I = 26 */
(PID.TID 0000.0001)                 2.071996065138743E+04,      /* I = 27 */
(PID.TID 0000.0001)                 2.072892365863983E+04,      /* I = 28 */
(PID.TID 0000.0001)                 2.073839012765668E+04,      /* I = 29 */
(PID.TID 0000.0001)                 2.074833063718403E+04       /* I = 30 */
(PID.TID 0000.0001)     ;
(PID.TID 0000.0001) dxF =  /* dxF(1,:,1,:) ( units: m ) */
(PID.TID 0000.0001)                 2.071152825743187E+04,      /* J =  1 */
(PID.TID 0000.0001)                 2.109117491456033E+04,      /* J =  2 */
(PID.TID 0000.0001)                 2.148525648961724E+04,      /* J =  3 */
(PID.TID 0000.0001)                 2.189377348588603E+04,      /* J =  4 */
(PID.TID 0000.0001)                 2.231672440915243E+04,      /* J =  5 */
(PID.TID 0000.0001)                 2.275410689480659E+04,      /* J =  6 */
(PID.TID 0000.0001)                 2.320591873318126E+04,      /* J =  7 */
(PID.TID 0000.0001)                 2.367215879054831E+04,      /* J =  8 */
(PID.TID 0000.0001)                 2.415282782538908E+04,      /* J =  9 */
(PID.TID 0000.0001)                 2.464792920101809E+04,      /* J = 10 */
(PID.TID 0000.0001)                 2.515746949702995E+04,      /* J = 11 */
(PID.TID 0000.0001)                 2.568145902315334E+04,      /* J = 12 */
(PID.TID 0000.0001)                 2.621991223981432E+04,      /* J = 13 */
(PID.TID 0000.0001)                 2.677284809033052E+04,      /* J = 14 */
(PID.TID 0000.0001)                 2.734029025013979E+04,      /* J = 15 */
(PID.TID 0000.0001)                 2.792226729855568E+04,      /* J = 16 */
(PID.TID 0000.0001)                 2.851881281852892E+04,      /* J = 17 */
(PID.TID 0000.0001)                 2.912996543046302E+04,      /* J = 18 */
(PID.TID 0000.0001)                 2.975576876502299E+04,      /* J = 19 */
(PID.TID 0000.0001)                 3.039627138062681E+04,      /* J = 20 */
(PID.TID 0000.0001)                 3.105152663065675E+04,      /* J = 21 */
(PID.TID 0000.0001)                 3.172159248542454E+04,      /* J = 22 */
(PID.TID 0000.0001)                 3.240653131349731E+04,      /* J = 23 */
(PID.TID 0000.0001)                 3.310640962675057E+04,      /* J = 24 */
(PID.TID 0000.0001)                 3.382129779388320E+04,      /* J = 25 */
(PID.TID 0000.0001)                 3.455126972555294E+04,      /* J = 26 */
(PID.TID 0000.0001)                 3.529640253603521E+04,      /* J = 27 */
(PID.TID 0000.0001)                 3.605677618612848E+04,      /* J = 28 */
(PID.TID 0000.0001)                 3.683247311866502E+04,      /* J = 29 */
(PID.TID 0000.0001)                 3.762357793548112E+04       /* J = 30 */
(PID.TID 0000.0001)     ;
(PID.TID 0000.0001) dyF =  /* dyF(:,1,:,1) ( units: m ) */
(PID.TID 0000.0001)                 3.700742300337598E+04,      /* I =  1 */
(PID.TID 0000.0001)                 3.707905556394973E+04,      /* I =  2 */
(PID.TID 0000.0001)                 3.714471828319018E+04,      /* I =  3 */
(PID.TID 0000.0001)                 3.720441078960103E+04,      /* I =  4 */
(PID.TID 0000.0001)                 3.725813297080282E+04,      /* I =  5 */
(PID.TID 0000.0001)                 3.730588490725751E+04,      /* I =  6 */
(PID.TID 0000.0001)                 3.734766681359038E+04,      /* I =  7 */
(PID.TID 0000.0001)                 3.738347898712025E+04,      /* I =  8 */
(PID.TID 0000.0001)                 3.741332176340629E+04,      /* I =  9 */
(PID.TID 0000.0001)                 3.743719547859261E+04,      /* I = 10 */
(PID.TID 0000.0001)                 3.745510043824806E+04,      /* I = 11 */
(PID.TID 0000.0001)                 3.746703689267323E+04,      /* I = 12 */
(PID.TID 0000.0001)     2 @  3.747300501832417E+04,             /* I = 13: 14 */
(PID.TID 0000.0001)                 3.746703689267323E+04,      /* I = 15 */
(PID.TID 0000.0001)                 3.745510043824806E+04,      /* I = 16 */
(PID.TID 0000.0001)                 3.743719547859261E+04,      /* I = 17 */
(PID.TID 0000.0001)                 3.741332176340628E+04,      /* I = 18 */
(PID.TID 0000.0001)                 3.738347898712024E+04,      /* I = 19 */
(PID.TID 0000.0001)                 3.734766681359040E+04,      /* I = 20 */
(PID.TID 0000.0001)                 3.730588490725750E+04,      /* I = 21 */
(PID.TID 0000.0001)                 3.725813297080281E+04,      /* I = 22 */
(PID.TID 0000.0001)                 3.720441078960103E+04,      /* I = 23 */
(PID.TID 0000.0001)                 3.714471828319017E+04,      /* I = 24 */
(PID.TID 0000.0001)                 3.707905556394973E+04,      /* I = 25 */
(PID.TID 0000.0001)                 3.700742300337599E+04,      /* I = 26 */
(PID.TID 0000.0001)                 3.692982130617692E+04,      /* I = 27 */
(PID.TID 0000.0001)                 3.684625159269555E+04,      /* I = 28 */
(PID.TID 0000.0001)                 3.675671548992459E+04,      /* I = 29 */
(PID.TID 0000.0001)                 3.666121523181524E+04       /* I = 30 */
(PID.TID 0000.0001)     ;
(PID.TID 0000.0001) dyF =  /* dyF(1,:,1,:) ( units: m ) */
(PID.TID 0000.0001)                 3.700742300337598E+04,      /* J =  1 */
(PID.TID 0000.0001)                 3.745555642044499E+04,      /* J =  2 */
(PID.TID 0000.0001)                 3.790206217653974E+04,      /* J =  3 */
(PID.TID 0000.0001)                 3.834684105117956E+04,      /* J =  4 */
(PID.TID 0000.0001)                 3.878979459357282E+04,      /* J =  5 */
(PID.TID 0000.0001)                 3.923082521328924E+04,      /* J =  6 */
(PID.TID 0000.0001)                 3.966983623246408E+04,      /* J =  7 */
(PID.TID 0000.0001)                 4.010673190475840E+04,      /* J =  8 */
(PID.TID 0000.0001)                 4.054141740950450E+04,      /* J =  9 */
(PID.TID 0000.0001)                 4.097379882434454E+04,      /* J = 10 */
(PID.TID 0000.0001)                 4.140378308084428E+04,      /* J = 11 */
(PID.TID 0000.0001)                 4.183127790875583E+04,      /* J = 12 */
(PID.TID 0000.0001)                 4.225619177206317E+04,      /* J = 13 */
(PID.TID 0000.0001)                 4.267843379867976E+04,      /* J = 14 */
(PID.TID 0000.0001)                 4.309791371221616E+04,      /* J = 15 */
(PID.TID 0000.0001)                 4.351454176087940E+04,      /* J = 16 */
(PID.TID 0000.0001)                 4.392822864881465E+04,      /* J = 17 */
(PID.TID 0000.0001)                 4.433888547805120E+04,      /* J = 18 */
(PID.TID 0000.0001)                 4.474642369096899E+04,      /* J = 19 */
(PID.TID 0000.0001)                 4.515075502217317E+04,      /* J = 20 */
(PID.TID 0000.0001)                 4.555179145554101E+04,      /* J = 21 */
(PID.TID 0000.0001)                 4.594944520275577E+04,      /* J = 22 */
(PID.TID 0000.0001)                 4.634362867401398E+04,      /* J = 23 */
(PID.TID 0000.0001)                 4.673425447947427E+04,      /* J = 24 */
(PID.TID 0000.0001)                 4.712123544873745E+04,      /* J = 25 */
(PID.TID 0000.0001)                 4.750448467975499E+04,      /* J = 26 */
(PID.TID 0000.0001)                 4.788391567392174E+04,      /* J = 27 */
(PID.TID 0000.0001)                 4.825944271092693E+04,      /* J = 28 */
(PID.TID 0000.0001)                 4.863098220111143E+04,      /* J = 29 */
(PID.TID 0000.0001)                 4.899845499569884E+04       /* J = 30 */
(PID.TID 0000.0001)     ;
(PID.TID 0000.0001) dxG =  /* dxG(:,1,:,1) ( units: m ) */
(PID.TID 0000.0001)                 2.052711702021451E+04,      /* I =  1 */
(PID.TID 0000.0001)                 2.051953983526162E+04,      /* I =  2 */
(PID.TID 0000.0001)                 2.051251425926268E+04,      /* I =  3 */
(PID.TID 0000.0001)                 2.050606148013825E+04,      /* I =  4 */
(PID.TID 0000.0001)                 2.050020059906299E+04,      /* I =  5 */
(PID.TID 0000.0001)                 2.049494867086169E+04,      /* I =  6 */
(PID.TID 0000.0001)                 2.049032075633103E+04,      /* I =  7 */
(PID.TID 0000.0001)                 2.048632995314923E+04,      /* I =  8 */
(PID.TID 0000.0001)                 2.048298743895549E+04,      /* I =  9 */
(PID.TID 0000.0001)                 2.048030251694177E+04,      /* I = 10 */
(PID.TID 0000.0001)                 2.047828270203973E+04,      /* I = 11 */
(PID.TID 0000.0001)                 2.047693414389448E+04,      /* I = 12 */
(PID.TID 0000.0001)     2 @  2.047624433858785E+04,             /* I = 13: 14 */
(PID.TID 0000.0001)                 2.047693414389443E+04,      /* I = 15 */
(PID.TID 0000.0001)                 2.047828270203978E+04,      /* I = 16 */
(PID.TID 0000.0001)                 2.048030251694177E+04,      /* I = 17 */
(PID.TID 0000.0001)                 2.048298743895548E+04,      /* I = 18 */
(PID.TID 0000.0001)                 2.048632995314927E+04,      /* I = 19 */
(PID.TID 0000.0001)                 2.049032075633093E+04,      /* I = 20 */
(PID.TID 0000.0001)                 2.049494867086174E+04,      /* I = 21 */
(PID.TID 0000.0001)                 2.050020059906297E+04,      /* I = 22 */
(PID.TID 0000.0001)                 2.050606148013830E+04,      /* I = 23 */
(PID.TID 0000.0001)                 2.051251425926268E+04,      /* I = 24 */
(PID.TID 0000.0001)                 2.051953983526163E+04,      /* I = 25 */
(PID.TID 0000.0001)                 2.052711702021443E+04,      /* I = 26 */
(PID.TID 0000.0001)                 2.053522248594683E+04,      /* I = 27 */
(PID.TID 0000.0001)                 2.054383070727552E+04,      /* I = 28 */
(PID.TID 0000.0001)                 2.055291390664790E+04,      /* I = 29 */
(PID.TID 0000.0001)                 2.056244198352907E+04       /* I = 30 */
(PID.TID 0000.0001)     ;
(PID.TID 0000.0001) dxG =  /* dxG(1,:,1,:) ( units: m ) */
(PID.TID 0000.0001)                 2.052711702021451E+04,      /* J =  1 */
(PID.TID 0000.0001)                 2.089954736357391E+04,      /* J =  2 */
(PID.TID 0000.0001)                 2.128641124518697E+04,      /* J =  3 */
(PID.TID 0000.0001)                 2.168771062037700E+04,      /* J =  4 */
(PID.TID 0000.0001)                 2.210344484655194E+04,      /* J =  5 */
(PID.TID 0000.0001)                 2.253361185972884E+04,      /* J =  6 */
(PID.TID 0000.0001)                 2.297820925105574E+04,      /* J =  7 */
(PID.TID 0000.0001)                 2.343723524028478E+04,      /* J =  8 */
(PID.TID 0000.0001)                 2.391068954427550E+04,      /* J =  9 */
(PID.TID 0000.0001)                 2.439857414125275E+04,      /* J = 10 */
(PID.TID 0000.0001)                 2.490089393241153E+04,      /* J = 11 */
(PID.TID 0000.0001)                 2.541765730414359E+04,      /* J = 12 */
(PID.TID 0000.0001)                 2.594887659459613E+04,      /* J = 13 */
(PID.TID 0000.0001)                 2.649456846940333E+04,      /* J = 14 */
(PID.TID 0000.0001)                 2.705475421181358E+04,      /* J = 15 */
(PID.TID 0000.0001)                 2.762945993231310E+04,      /* J = 16 */
(PID.TID 0000.0001)                 2.821871670385097E+04,      /* J = 17 */
(PID.TID 0000.0001)                 2.882256062780631E+04,      /* J = 18 */
(PID.TID 0000.0001)                 2.944103283669238E+04,      /* J = 19 */
(PID.TID 0000.0001)                 3.007417943861200E+04,      /* J = 20 */
(PID.TID 0000.0001)                 3.072205140902393E+04,      /* J = 21 */
(PID.TID 0000.0001)                 3.138470443467240E+04,      /* J = 22 */
(PID.TID 0000.0001)                 3.206219871470027E+04,      /* J = 23 */
(PID.TID 0000.0001)                 3.275459872326910E+04,      /* J = 24 */
(PID.TID 0000.0001)                 3.346197293831744E+04,      /* J = 25 */
(PID.TID 0000.0001)                 3.418439354048331E+04,      /* J = 26 */
(PID.TID 0000.0001)                 3.492193608585089E+04,      /* J = 27 */
(PID.TID 0000.0001)                 3.567467915738818E+04,      /* J = 28 */
(PID.TID 0000.0001)                 3.644270400216877E+04,      /* J = 29 */
(PID.TID 0000.0001)                 3.722609417427087E+04       /* J = 30 */
(PID.TID 0000.0001)     ;
(PID.TID 0000.0001) dyG =  /* dyG(:,1,:,1) ( units: m ) */
(PID.TID 0000.0001)                 3.696936823759973E+04,      /* I =  1 */
(PID.TID 0000.0001)                 3.704398547852144E+04,      /* I =  2 */
(PID.TID 0000.0001)                 3.711263318385338E+04,      /* I =  3 */
(PID.TID 0000.0001)                 3.717531082528212E+04,      /* I =  4 */
(PID.TID 0000.0001)                 3.723201816961422E+04,      /* I =  5 */
(PID.TID 0000.0001)                 3.728275520872145E+04,      /* I =  6 */
(PID.TID 0000.0001)                 3.732752209699158E+04,      /* I =  7 */
(PID.TID 0000.0001)                 3.736631909640826E+04,      /* I =  8 */
(PID.TID 0000.0001)                 3.739914652852553E+04,      /* I =  9 */
(PID.TID 0000.0001)                 3.742600473350589E+04,      /* I = 10 */
(PID.TID 0000.0001)                 3.744689403567852E+04,      /* I = 11 */
(PID.TID 0000.0001)                 3.746181471567877E+04,      /* I = 12 */
(PID.TID 0000.0001)                 3.747076698884368E+04,      /* I = 13 */
(PID.TID 0000.0001)                 3.747376174977726E+04,      /* I = 14 */
(PID.TID 0000.0001)                 3.747076698884368E+04,      /* I = 15 */
(PID.TID 0000.0001)                 3.746181471567877E+04,      /* I = 16 */
(PID.TID 0000.0001)                 3.744689403567852E+04,      /* I = 17 */
(PID.TID 0000.0001)                 3.742600473350589E+04,      /* I = 18 */
(PID.TID 0000.0001)                 3.739914652852552E+04,      /* I = 19 */
(PID.TID 0000.0001)                 3.736631909640826E+04,      /* I = 20 */
(PID.TID 0000.0001)                 3.732752209699157E+04,      /* I = 21 */
(PID.TID 0000.0001)                 3.728275520872146E+04,      /* I = 22 */
(PID.TID 0000.0001)                 3.723201816961422E+04,      /* I = 23 */
(PID.TID 0000.0001)                 3.717531082528211E+04,      /* I = 24 */
(PID.TID 0000.0001)                 3.711263318385338E+04,      /* I = 25 */
(PID.TID 0000.0001)                 3.704398547852145E+04,      /* I = 26 */
(PID.TID 0000.0001)                 3.696936823759972E+04,      /* I = 27 */
(PID.TID 0000.0001)                 3.688878236278851E+04,      /* I = 28 */
(PID.TID 0000.0001)                 3.680222921581766E+04,      /* I = 29 */
(PID.TID 0000.0001)                 3.670971071402137E+04       /* I = 30 */
(PID.TID 0000.0001)     ;
(PID.TID 0000.0001) dyG =  /* dyG(1,:,1,:) ( units: m ) */
(PID.TID 0000.0001)                 3.696936823759973E+04,      /* J =  1 */
(PID.TID 0000.0001)                 3.741746190559281E+04,      /* J =  2 */
(PID.TID 0000.0001)                 3.786390067184393E+04,      /* J =  3 */
(PID.TID 0000.0001)                 3.830858172733455E+04,      /* J =  4 */
(PID.TID 0000.0001)                 3.875140319955796E+04,      /* J =  5 */
(PID.TID 0000.0001)                 3.919226424948571E+04,      /* J =  6 */
(PID.TID 0000.0001)                 3.963106512715793E+04,      /* J =  7 */
(PID.TID 0000.0001)                 4.006770719102380E+04,      /* J =  8 */
(PID.TID 0000.0001)                 4.050209290047463E+04,      /* J =  9 */
(PID.TID 0000.0001)                 4.093412578484027E+04,      /* J = 10 */
(PID.TID 0000.0001)                 4.136371039407872E+04,      /* J = 11 */
(PID.TID 0000.0001)                 4.179075223673176E+04,      /* J = 12 */
(PID.TID 0000.0001)                 4.221515770920290E+04,      /* J = 13 */
(PID.TID 0000.0001)                 4.263683401805614E+04,      /* J = 14 */
(PID.TID 0000.0001)                 4.305568910412182E+04,      /* J = 15 */
(PID.TID 0000.0001)                 4.347163156363047E+04,      /* J = 16 */
(PID.TID 0000.0001)                 4.388457057225752E+04,      /* J = 17 */
(PID.TID 0000.0001)                 4.429441581934092E+04,      /* J = 18 */
(PID.TID 0000.0001)                 4.470107744374240E+04,      /* J = 19 */
(PID.TID 0000.0001)                 4.510446597891348E+04,      /* J = 20 */
(PID.TID 0000.0001)                 4.550449230395439E+04,      /* J = 21 */
(PID.TID 0000.0001)                 4.590106761654920E+04,      /* J = 22 */
(PID.TID 0000.0001)                 4.629410339849156E+04,      /* J = 23 */
(PID.TID 0000.0001)                 4.668351141269982E+04,      /* J = 24 */
(PID.TID 0000.0001)                 4.706920371856177E+04,      /* J = 25 */
(PID.TID 0000.0001)                 4.745109271730031E+04,      /* J = 26 */
(PID.TID 0000.0001)                 4.782909128417812E+04,      /* J = 27 */
(PID.TID 0000.0001)                 4.820311314005602E+04,      /* J = 28 */
(PID.TID 0000.0001)                 4.857307420014453E+04,      /* J = 29 */
(PID.TID 0000.0001)                 4.893889490827491E+04       /* J = 30 */
(PID.TID 0000.0001)     ;
(PID.TID 0000.0001) dxC =  /* dxC(:,1,:,1) ( units: m ) */
(PID.TID 0000.0001)                 2.071567651695695E+04,      /* I =  1 */
(PID.TID 0000.0001)                 2.070751892245589E+04,      /* I =  2 */
(PID.TID 0000.0001)                 2.069992855779408E+04,      /* I =  3 */
(PID.TID 0000.0001)                 2.069292717562287E+04,      /* I =  4 */
(PID.TID 0000.0001)                 2.068653446229046E+04,      /* I =  5 */
(PID.TID 0000.0001)                 2.068076808552306E+04,      /* I =  6 */
(PID.TID 0000.0001)                 2.067564373903614E+04,      /* I =  7 */
(PID.TID 0000.0001)                 2.067117518190149E+04,      /* I =  8 */
(PID.TID 0000.0001)                 2.066737427558298E+04,      /* I =  9 */
(PID.TID 0000.0001)                 2.066425102685107E+04,      /* I = 10 */
(PID.TID 0000.0001)                 2.066181364132844E+04,      /* I = 11 */
(PID.TID 0000.0001)                 2.066006869803818E+04,      /* I = 12 */
(PID.TID 0000.0001)                 2.065902266229015E+04,      /* I = 13 */
(PID.TID 0000.0001)                 2.065863826775786E+04,      /* I = 14 */
(PID.TID 0000.0001)                 2.065902266229016E+04,      /* I = 15 */
(PID.TID 0000.0001)                 2.066006869803813E+04,      /* I = 16 */
(PID.TID 0000.0001)                 2.066181364132850E+04,      /* I = 17 */
(PID.TID 0000.0001)                 2.066425102685108E+04,      /* I = 18 */
(PID.TID 0000.0001)                 2.066737427558298E+04,      /* I = 19 */
(PID.TID 0000.0001)                 2.067117518190149E+04,      /* I = 20 */
(PID.TID 0000.0001)                 2.067564373903615E+04,      /* I = 21 */
(PID.TID 0000.0001)                 2.068076808552304E+04,      /* I = 22 */
(PID.TID 0000.0001)                 2.068653446229045E+04,      /* I = 23 */
(PID.TID 0000.0001)                 2.069292717562287E+04,      /* I = 24 */
(PID.TID 0000.0001)                 2.069992855779413E+04,      /* I = 25 */
(PID.TID 0000.0001)                 2.070751892245584E+04,      /* I = 26 */
(PID.TID 0000.0001)                 2.071567651695691E+04,      /* I = 27 */
(PID.TID 0000.0001)                 2.072437747324421E+04,      /* I = 28 */
(PID.TID 0000.0001)                 2.073359574551806E+04,      /* I = 29 */
(PID.TID 0000.0001)                 2.074330305575613E+04       /* I = 30 */
(PID.TID 0000.0001)     ;
(PID.TID 0000.0001) dxC =  /* dxC(1,:,1,:) ( units: m ) */
(PID.TID 0000.0001)                 2.071567651695695E+04,      /* J =  1 */
(PID.TID 0000.0001)                 2.109563672137949E+04,      /* J =  2 */
(PID.TID 0000.0001)                 2.149002149497106E+04,      /* J =  3 */
(PID.TID 0000.0001)                 2.189882927482529E+04,      /* J =  4 */
(PID.TID 0000.0001)                 2.232205646389843E+04,      /* J =  5 */
(PID.TID 0000.0001)                 2.275969855854128E+04,      /* J =  6 */
(PID.TID 0000.0001)                 2.321175117362029E+04,      /* J =  7 */
(PID.TID 0000.0001)                 2.367821096276529E+04,      /* J =  8 */
(PID.TID 0000.0001)                 2.415907643347346E+04,      /* J =  9 */
(PID.TID 0000.0001)                 2.465434865814045E+04,      /* J = 10 */
(PID.TID 0000.0001)                 2.516403188365780E+04,      /* J = 11 */
(PID.TID 0000.0001)                 2.568813404310613E+04,      /* J = 12 */
(PID.TID 0000.0001)                 2.622666717399572E+04,      /* J = 13 */
(PID.TID 0000.0001)                 2.677964774799169E+04,      /* J = 14 */
(PID.TID 0000.0001)                 2.734709691757753E+04,      /* J = 15 */
(PID.TID 0000.0001)                 2.792904068517491E+04,      /* J = 16 */
(PID.TID 0000.0001)                 2.852551000032625E+04,      /* J = 17 */
(PID.TID 0000.0001)                 2.913654079081990E+04,      /* J = 18 */
(PID.TID 0000.0001)                 2.976217393306023E+04,      /* J = 19 */
(PID.TID 0000.0001)                 3.040245516699173E+04,      /* J = 20 */
(PID.TID 0000.0001)                 3.105743496108396E+04,      /* J = 21 */
(PID.TID 0000.0001)                 3.172716833208323E+04,      /* J = 22 */
(PID.TID 0000.0001)                 3.241171462422546E+04,      /* J = 23 */
(PID.TID 0000.0001)                 3.311113725244482E+04,      /* J = 24 */
(PID.TID 0000.0001)                 3.382550341391024E+04,      /* J = 25 */
(PID.TID 0000.0001)                 3.455488377140061E+04,      /* J = 26 */
(PID.TID 0000.0001)                 3.529935211332738E+04,      /* J = 27 */
(PID.TID 0000.0001)                 3.605898499520765E+04,      /* J = 28 */
(PID.TID 0000.0001)                 3.683386137397906E+04,      /* J = 29 */
(PID.TID 0000.0001)                 3.762406228407349E+04       /* J = 30 */
(PID.TID 0000.0001)     ;
(PID.TID 0000.0001) dyC =  /* dyC(:,1,:,1) ( units: m ) */
(PID.TID 0000.0001)                 3.678277710845771E+04,      /* I =  1 */
(PID.TID 0000.0001)                 3.685438685866048E+04,      /* I =  2 */
(PID.TID 0000.0001)                 3.692002588020908E+04,      /* I =  3 */
(PID.TID 0000.0001)                 3.697969453541307E+04,      /* I =  4 */
(PID.TID 0000.0001)                 3.703339337607873E+04,      /* I =  5 */
(PID.TID 0000.0001)                 3.708112307814123E+04,      /* I =  6 */
(PID.TID 0000.0001)                 3.712288438364359E+04,      /* I =  7 */
(PID.TID 0000.0001)                 3.715867804995441E+04,      /* I =  8 */
(PID.TID 0000.0001)                 3.718850480589901E+04,      /* I =  9 */
(PID.TID 0000.0001)                 3.721236531452968E+04,      /* I = 10 */
(PID.TID 0000.0001)                 3.723026014246432E+04,      /* I = 11 */
(PID.TID 0000.0001)                 3.724218973548726E+04,      /* I = 12 */
(PID.TID 0000.0001)     2 @  3.724815440020872E+04,             /* I = 13: 14 */
(PID.TID 0000.0001)                 3.724218973548726E+04,      /* I = 15 */
(PID.TID 0000.0001)                 3.723026014246432E+04,      /* I = 16 */
(PID.TID 0000.0001)                 3.721236531452968E+04,      /* I = 17 */
(PID.TID 0000.0001)                 3.718850480589901E+04,      /* I = 18 */
(PID.TID 0000.0001)                 3.715867804995440E+04,      /* I = 19 */
(PID.TID 0000.0001)                 3.712288438364359E+04,      /* I = 20 */
(PID.TID 0000.0001)                 3.708112307814122E+04,      /* I = 21 */
(PID.TID 0000.0001)                 3.703339337607873E+04,      /* I = 22 */
(PID.TID 0000.0001)                 3.697969453541307E+04,      /* I = 23 */
(PID.TID 0000.0001)                 3.692002588020908E+04,      /* I = 24 */
(PID.TID 0000.0001)                 3.685438685866047E+04,      /* I = 25 */
(PID.TID 0000.0001)                 3.678277710845772E+04,      /* I = 26 */
(PID.TID 0000.0001)                 3.670519653011381E+04,      /* I = 27 */
(PID.TID 0000.0001)                 3.662164536844059E+04,      /* I = 28 */
(PID.TID 0000.0001)                 3.653212430257830E+04,      /* I = 29 */
(PID.TID 0000.0001)                 3.643663454523116E+04       /* I = 30 */
(PID.TID 0000.0001)     ;
(PID.TID 0000.0001) dyC =  /* dyC(1,:,1,:) ( units: m ) */
(PID.TID 0000.0001)                 3.678277710845771E+04,      /* J =  1 */
(PID.TID 0000.0001)                 3.723168694115569E+04,      /* J =  2 */
(PID.TID 0000.0001)                 3.767901897410101E+04,      /* J =  3 */
(PID.TID 0000.0001)                 3.812467364657602E+04,      /* J =  4 */
(PID.TID 0000.0001)                 3.856855210935249E+04,      /* J =  5 */
(PID.TID 0000.0001)                 3.901055633269680E+04,      /* J =  6 */
(PID.TID 0000.0001)                 3.945058917911859E+04,      /* J =  7 */
(PID.TID 0000.0001)                 3.988855443472220E+04,      /* J =  8 */
(PID.TID 0000.0001)                 4.032435681898361E+04,      /* J =  9 */
(PID.TID 0000.0001)                 4.075790196435841E+04,      /* J = 10 */
(PID.TID 0000.0001)                 4.118909638222960E+04,      /* J = 11 */
(PID.TID 0000.0001)                 4.161784741043697E+04,      /* J = 12 */
(PID.TID 0000.0001)                 4.204406315499045E+04,      /* J = 13 */
(PID.TID 0000.0001)                 4.246765242091182E+04,      /* J = 14 */
(PID.TID 0000.0001)                 4.288852464034393E+04,      /* J = 15 */
(PID.TID 0000.0001)                 4.330658981118225E+04,      /* J = 16 */
(PID.TID 0000.0001)                 4.372175841431943E+04,      /* J = 17 */
(PID.TID 0000.0001)                 4.413394136293020E+04,      /* J = 18 */
(PID.TID 0000.0001)                 4.454304993440304E+04,      /* J = 19 */
(PID.TID 0000.0001)                 4.494899572325061E+04,      /* J = 20 */
(PID.TID 0000.0001)                 4.535169059286820E+04,      /* J = 21 */
(PID.TID 0000.0001)                 4.575104664412256E+04,      /* J = 22 */
(PID.TID 0000.0001)                 4.614697618947234E+04,      /* J = 23 */
(PID.TID 0000.0001)                 4.653939173844085E+04,      /* J = 24 */
(PID.TID 0000.0001)                 4.692820600744408E+04,      /* J = 25 */
(PID.TID 0000.0001)                 4.731333194957835E+04,      /* J = 26 */
(PID.TID 0000.0001)                 4.769468283927006E+04,      /* J = 27 */
(PID.TID 0000.0001)                 4.807217249390641E+04,      /* J = 28 */
(PID.TID 0000.0001)                 4.844571593362943E+04,      /* J = 29 */
(PID.TID 0000.0001)                 4.881523285497380E+04       /* J = 30 */
(PID.TID 0000.0001)     ;
(PID.TID 0000.0001) dxV =  /* dxV(:,1,:,1) ( units: m ) */
(PID.TID 0000.0001)                 2.053110526075532E+04,      /* I =  1 */
(PID.TID 0000.0001)                 2.052326088418283E+04,      /* I =  2 */
(PID.TID 0000.0001)                 2.051595672244828E+04,      /* I =  3 */
(PID.TID 0000.0001)                 2.050921502797681E+04,      /* I =  4 */
(PID.TID 0000.0001)                 2.050305593886370E+04,      /* I =  5 */
(PID.TID 0000.0001)                 2.049749752783181E+04,      /* I =  6 */
(PID.TID 0000.0001)                 2.049255584793284E+04,      /* I =  7 */
(PID.TID 0000.0001)                 2.048824497292525E+04,      /* I =  8 */
(PID.TID 0000.0001)                 2.048457703515834E+04,      /* I =  9 */
(PID.TID 0000.0001)                 2.048156226915133E+04,      /* I = 10 */
(PID.TID 0000.0001)                 2.047920906551970E+04,      /* I = 11 */
(PID.TID 0000.0001)                 2.047752414469434E+04,      /* I = 12 */
(PID.TID 0000.0001)                 2.047651405696554E+04,      /* I = 13 */
(PID.TID 0000.0001)                 2.047614194664622E+04,      /* I = 14 */
(PID.TID 0000.0001)                 2.047651405696559E+04,      /* I = 15 */
(PID.TID 0000.0001)                 2.047752414469430E+04,      /* I = 16 */
(PID.TID 0000.0001)                 2.047920906551971E+04,      /* I = 17 */
(PID.TID 0000.0001)                 2.048156226915138E+04,      /* I = 18 */
(PID.TID 0000.0001)                 2.048457703515829E+04,      /* I = 19 */
(PID.TID 0000.0001)                 2.048824497292535E+04,      /* I = 20 */
(PID.TID 0000.0001)                 2.049255584793274E+04,      /* I = 21 */
(PID.TID 0000.0001)                 2.049749752783187E+04,      /* I = 22 */
(PID.TID 0000.0001)                 2.050305593886373E+04,      /* I = 23 */
(PID.TID 0000.0001)                 2.050921502797675E+04,      /* I = 24 */
(PID.TID 0000.0001)                 2.051595672244826E+04,      /* I = 25 */
(PID.TID 0000.0001)                 2.052326088418290E+04,      /* I = 26 */
(PID.TID 0000.0001)                 2.053110526075532E+04,      /* I = 27 */
(PID.TID 0000.0001)                 2.053946543494557E+04,      /* I = 28 */
(PID.TID 0000.0001)                 2.054831476098181E+04,      /* I = 29 */
(PID.TID 0000.0001)                 2.055762430839241E+04       /* I = 30 */
(PID.TID 0000.0001)     ;
(PID.TID 0000.0001) dxV =  /* dxV(1,:,1,:) ( units: m ) */
(PID.TID 0000.0001)                 2.053110526075532E+04,      /* J =  1 */
(PID.TID 0000.0001)                 2.090385356266093E+04,      /* J =  2 */
(PID.TID 0000.0001)                 2.129102607314009E+04,      /* J =  3 */
(PID.TID 0000.0001)                 2.169262269996662E+04,      /* J =  4 */
(PID.TID 0000.0001)                 2.210864071595607E+04,      /* J =  5 */
(PID.TID 0000.0001)                 2.253907593617405E+04,      /* J =  6 */
(PID.TID 0000.0001)                 2.298392379458377E+04,      /* J =  7 */
(PID.TID 0000.0001)                 2.344318031700113E+04,      /* J =  8 */
(PID.TID 0000.0001)                 2.391684298864163E+04,      /* J =  9 */
(PID.TID 0000.0001)                 2.440491151699962E+04,      /* J = 10 */
(PID.TID 0000.0001)                 2.490738849171163E+04,      /* J = 11 */
(PID.TID 0000.0001)                 2.542427994477456E+04,      /* J = 12 */
(PID.TID 0000.0001)                 2.595559581485789E+04,      /* J = 13 */
(PID.TID 0000.0001)                 2.650135032062733E+04,      /* J = 14 */
(PID.TID 0000.0001)                 2.706156224833991E+04,      /* J = 15 */
(PID.TID 0000.0001)                 2.763625515890197E+04,      /* J = 16 */
(PID.TID 0000.0001)                 2.822545752042790E+04,      /* J = 17 */
(PID.TID 0000.0001)                 2.882920277162976E+04,      /* J = 18 */
(PID.TID 0000.0001)                 2.944752932187136E+04,      /* J = 19 */
(PID.TID 0000.0001)                 3.008048049319959E+04,      /* J = 20 */
(PID.TID 0000.0001)                 3.072810440966728E+04,      /* J = 21 */
(PID.TID 0000.0001)                 3.139045383903842E+04,      /* J = 22 */
(PID.TID 0000.0001)                 3.206758599174654E+04,      /* J = 23 */
(PID.TID 0000.0001)                 3.275956228156967E+04,      /* J = 24 */
(PID.TID 0000.0001)                 3.346644805244220E+04,      /* J = 25 */
(PID.TID 0000.0001)                 3.418831227550044E+04,      /* J = 26 */
(PID.TID 0000.0001)                 3.492522722017510E+04,      /* J = 27 */
(PID.TID 0000.0001)                 3.567726810399632E+04,      /* J = 28 */
(PID.TID 0000.0001)                 3.644451272859776E+04,      /* J = 29 */
(PID.TID 0000.0001)                 3.722704112152557E+04       /* J = 30 */
(PID.TID 0000.0001)     ;
(PID.TID 0000.0001) dyU =  /* dyU(:,1,:,1) ( units: m ) */
(PID.TID 0000.0001)                 3.674473316658630E+04,      /* I =  1 */
(PID.TID 0000.0001)                 3.681932833792822E+04,      /* I =  2 */
(PID.TID 0000.0001)                 3.688795269313092E+04,      /* I =  3 */
(PID.TID 0000.0001)                 3.695060647275718E+04,      /* I =  4 */
(PID.TID 0000.0001)                 3.700729014250917E+04,      /* I =  5 */
(PID.TID 0000.0001)                 3.705800432398131E+04,      /* I =  6 */
(PID.TID 0000.0001)                 3.710274973294064E+04,      /* I =  7 */
(PID.TID 0000.0001)                 3.714152712500728E+04,      /* I =  8 */
(PID.TID 0000.0001)                 3.717433724834998E+04,      /* I =  9 */
(PID.TID 0000.0001)                 3.720118080314009E+04,      /* I = 10 */
(PID.TID 0000.0001)                 3.722205840764935E+04,      /* I = 11 */
(PID.TID 0000.0001)                 3.723697057073888E+04,      /* I = 12 */
(PID.TID 0000.0001)                 3.724591767054543E+04,      /* I = 13 */
(PID.TID 0000.0001)                 3.724891083990022E+04,      /* I = 14 */
(PID.TID 0000.0001)                 3.724591767054542E+04,      /* I = 15 */
(PID.TID 0000.0001)                 3.723697057073889E+04,      /* I = 16 */
(PID.TID 0000.0001)                 3.722205840764935E+04,      /* I = 17 */
(PID.TID 0000.0001)                 3.720118080314008E+04,      /* I = 18 */
(PID.TID 0000.0001)                 3.717433724834998E+04,      /* I = 19 */
(PID.TID 0000.0001)                 3.714152712500728E+04,      /* I = 20 */
(PID.TID 0000.0001)                 3.710274973294063E+04,      /* I = 21 */
(PID.TID 0000.0001)                 3.705800432398131E+04,      /* I = 22 */
(PID.TID 0000.0001)                 3.700729014250917E+04,      /* I = 23 */
(PID.TID 0000.0001)                 3.695060647275716E+04,      /* I = 24 */
(PID.TID 0000.0001)                 3.688795269313094E+04,      /* I = 25 */
(PID.TID 0000.0001)                 3.681932833792821E+04,      /* I = 26 */
(PID.TID 0000.0001)                 3.674473316658630E+04,      /* I = 27 */
(PID.TID 0000.0001)                 3.666416724104654E+04,      /* I = 28 */
(PID.TID 0000.0001)                 3.657763101146962E+04,      /* I = 29 */
(PID.TID 0000.0001)                 3.648512541079492E+04       /* I = 30 */
(PID.TID 0000.0001)     ;
(PID.TID 0000.0001) dyU =  /* dyU(1,:,1,:) ( units: m ) */
(PID.TID 0000.0001)                 3.674473316658630E+04,      /* J =  1 */
(PID.TID 0000.0001)                 3.719361547538896E+04,      /* J =  2 */
(PID.TID 0000.0001)                 3.764089459751266E+04,      /* J =  3 */
(PID.TID 0000.0001)                 3.808646730382765E+04,      /* J =  4 */
(PID.TID 0000.0001)                 3.853023123895088E+04,      /* J =  5 */
(PID.TID 0000.0001)                 3.897208503739593E+04,      /* J =  6 */
(PID.TID 0000.0001)                 3.941192840112046E+04,      /* J =  7 */
(PID.TID 0000.0001)                 3.984966213263487E+04,      /* J =  8 */
(PID.TID 0000.0001)                 4.028518814419441E+04,      /* J =  9 */
(PID.TID 0000.0001)                 4.071840943468107E+04,      /* J = 10 */
(PID.TID 0000.0001)                 4.114923005120406E+04,      /* J = 11 */
(PID.TID 0000.0001)                 4.157755503103340E+04,      /* J = 12 */
(PID.TID 0000.0001)                 4.200329033666767E+04,      /* J = 13 */
(PID.TID 0000.0001)                 4.242634277960793E+04,      /* J = 14 */
(PID.TID 0000.0001)                 4.284661994092684E+04,      /* J = 15 */
(PID.TID 0000.0001)                 4.326403010205203E+04,      /* J = 16 */
(PID.TID 0000.0001)                 4.367848215462093E+04,      /* J = 17 */
(PID.TID 0000.0001)                 4.408988554208750E+04,      /* J = 18 */
(PID.TID 0000.0001)                 4.449815018464295E+04,      /* J = 19 */
(PID.TID 0000.0001)                 4.490318642518511E+04,      /* J = 20 */
(PID.TID 0000.0001)                 4.530490497491705E+04,      /* J = 21 */
(PID.TID 0000.0001)                 4.570321687598708E+04,      /* J = 22 */
(PID.TID 0000.0001)                 4.609803347024994E+04,      /* J = 23 */
(PID.TID 0000.0001)                 4.648926637992392E+04,      /* J = 24 */
(PID.TID 0000.0001)                 4.687682751321772E+04,      /* J = 25 */
(PID.TID 0000.0001)                 4.726062909013533E+04,      /* J = 26 */
(PID.TID 0000.0001)                 4.764058372401170E+04,      /* J = 27 */
(PID.TID 0000.0001)                 4.801660464021451E+04,      /* J = 28 */
(PID.TID 0000.0001)                 4.838860633247659E+04,      /* J = 29 */
(PID.TID 0000.0001)                 4.875650803021456E+04       /* J = 30 */
(PID.TID 0000.0001)     ;
(PID.TID 0000.0001) rA  =  /* rA (:,1,:,1) ( units: m^2 ) */
(PID.TID 0000.0001)                 7.665113621396177E+08,      /* I =  1 */
(PID.TID 0000.0001)                 7.677029697239892E+08,      /* I =  2 */
(PID.TID 0000.0001)                 7.687913877455838E+08,      /* I =  3 */
(PID.TID 0000.0001)                 7.697775979751738E+08,      /* I =  4 */
(PID.TID 0000.0001)                 7.706625466485583E+08,      /* I =  5 */
(PID.TID 0000.0001)                 7.714470546020026E+08,      /* I =  6 */
(PID.TID 0000.0001)                 7.721318586456149E+08,      /* I =  7 */
(PID.TID 0000.0001)                 7.727176271684608E+08,      /* I =  8 */
(PID.TID 0000.0001)                 7.732049082776864E+08,      /* I =  9 */
(PID.TID 0000.0001)                 7.735941717305043E+08,      /* I = 10 */
(PID.TID 0000.0001)                 7.738858051500469E+08,      /* I = 11 */
(PID.TID 0000.0001)                 7.740801100790358E+08,      /* I = 12 */
(PID.TID 0000.0001)                 7.741766386182301E+08,      /* I = 13 */
(PID.TID 0000.0001)                 7.741766369784317E+08,      /* I = 14 */
(PID.TID 0000.0001)                 7.740801094843833E+08,      /* I = 15 */
(PID.TID 0000.0001)                 7.738858062852919E+08,      /* I = 16 */
(PID.TID 0000.0001)                 7.735941726495122E+08,      /* I = 17 */
(PID.TID 0000.0001)                 7.732049061873938E+08,      /* I = 18 */
(PID.TID 0000.0001)                 7.727176277450933E+08,      /* I = 19 */
(PID.TID 0000.0001)                 7.721318658895597E+08,      /* I = 20 */
(PID.TID 0000.0001)                 7.714470531424019E+08,      /* I = 21 */
(PID.TID 0000.0001)                 7.706625470810328E+08,      /* I = 22 */
(PID.TID 0000.0001)                 7.697776024260553E+08,      /* I = 23 */
(PID.TID 0000.0001)                 7.687913844659867E+08,      /* I = 24 */
(PID.TID 0000.0001)                 7.677029712196296E+08,      /* I = 25 */
(PID.TID 0000.0001)                 7.665113646083255E+08,      /* I = 26 */
(PID.TID 0000.0001)                 7.652154604170089E+08,      /* I = 27 */
(PID.TID 0000.0001)                 7.638140926048064E+08,      /* I = 28 */
(PID.TID 0000.0001)                 7.623059927966076E+08,      /* I = 29 */
(PID.TID 0000.0001)                 7.606898330980235E+08       /* I = 30 */
(PID.TID 0000.0001)     ;
(PID.TID 0000.0001) rA  =  /* rA (1,:,1,:) ( units: m^2 ) */
(PID.TID 0000.0001)                 7.665113621396177E+08,      /* J =  1 */
(PID.TID 0000.0001)                 7.900134359449342E+08,      /* J =  2 */
(PID.TID 0000.0001)                 8.143679155417176E+08,      /* J =  3 */
(PID.TID 0000.0001)                 8.395900636155584E+08,      /* J =  4 */
(PID.TID 0000.0001)                 8.656947784023314E+08,      /* J =  5 */
(PID.TID 0000.0001)                 8.926966010402582E+08,      /* J =  6 */
(PID.TID 0000.0001)                 9.206097737377057E+08,      /* J =  7 */
(PID.TID 0000.0001)                 9.494482582794807E+08,      /* J =  8 */
(PID.TID 0000.0001)                 9.792257431806778E+08,      /* J =  9 */
(PID.TID 0000.0001)                 1.009955679131553E+09,      /* J = 10 */
(PID.TID 0000.0001)                 1.041651296044221E+09,      /* J = 11 */
(PID.TID 0000.0001)                 1.074325614369065E+09,      /* J = 12 */
(PID.TID 0000.0001)                 1.107991467925779E+09,      /* J = 13 */
(PID.TID 0000.0001)                 1.142661498173082E+09,      /* J = 14 */
(PID.TID 0000.0001)                 1.178348167164929E+09,      /* J = 15 */
(PID.TID 0000.0001)                 1.215063762235644E+09,      /* J = 16 */
(PID.TID 0000.0001)                 1.252820414073754E+09,      /* J = 17 */
(PID.TID 0000.0001)                 1.291630043617734E+09,      /* J = 18 */
(PID.TID 0000.0001)                 1.331504416619858E+09,      /* J = 19 */
(PID.TID 0000.0001)                 1.372455096362339E+09,      /* J = 20 */
(PID.TID 0000.0001)                 1.414493440828222E+09,      /* J = 21 */
(PID.TID 0000.0001)                 1.457630613639386E+09,      /* J = 22 */
(PID.TID 0000.0001)                 1.501877517761831E+09,      /* J = 23 */
(PID.TID 0000.0001)                 1.547244834049951E+09,      /* J = 24 */
(PID.TID 0000.0001)                 1.593742963439136E+09,      /* J = 25 */
(PID.TID 0000.0001)                 1.641382020566774E+09,      /* J = 26 */
(PID.TID 0000.0001)                 1.690171807481416E+09,      /* J = 27 */
(PID.TID 0000.0001)                 1.740121820832662E+09,      /* J = 28 */
(PID.TID 0000.0001)                 1.791241246411172E+09,      /* J = 29 */
(PID.TID 0000.0001)                 1.843539059771026E+09       /* J = 30 */
(PID.TID 0000.0001)     ;
(PID.TID 0000.0001) rAw =  /* rAw(:,1,:,1) ( units: m^2 ) */
(PID.TID 0000.0001)                 7.658765213139513E+08,      /* I =  1 */
(PID.TID 0000.0001)                 7.671201328724998E+08,      /* I =  2 */
(PID.TID 0000.0001)                 7.682600121490355E+08,      /* I =  3 */
(PID.TID 0000.0001)                 7.692972101823016E+08,      /* I =  4 */
(PID.TID 0000.0001)                 7.702326756407654E+08,      /* I =  5 */
(PID.TID 0000.0001)                 7.710673044850856E+08,      /* I =  6 */
(PID.TID 0000.0001)                 7.718018764844863E+08,      /* I =  7 */
(PID.TID 0000.0001)                 7.724370884091616E+08,      /* I =  8 */
(PID.TID 0000.0001)                 7.729735468223690E+08,      /* I =  9 */
(PID.TID 0000.0001)                 7.734117650170708E+08,      /* I = 10 */
(PID.TID 0000.0001)                 7.737521718456172E+08,      /* I = 11 */
(PID.TID 0000.0001)                 7.739951054308500E+08,      /* I = 12 */
(PID.TID 0000.0001)                 7.741408739107244E+08,      /* I = 13 */
(PID.TID 0000.0001)                 7.741880730050739E+08,      /* I = 14 */
(PID.TID 0000.0001)                 7.741408710636016E+08,      /* I = 15 */
(PID.TID 0000.0001)                 7.739951071427275E+08,      /* I = 16 */
(PID.TID 0000.0001)                 7.737521718095777E+08,      /* I = 17 */
(PID.TID 0000.0001)                 7.734117675938969E+08,      /* I = 18 */
(PID.TID 0000.0001)                 7.729735457051437E+08,      /* I = 19 */
(PID.TID 0000.0001)                 7.724370889497546E+08,      /* I = 20 */
(PID.TID 0000.0001)                 7.718018793856685E+08,      /* I = 21 */
(PID.TID 0000.0001)                 7.710673053320146E+08,      /* I = 22 */
(PID.TID 0000.0001)                 7.702326816053071E+08,      /* I = 23 */
(PID.TID 0000.0001)                 7.692972065242898E+08,      /* I = 24 */
(PID.TID 0000.0001)                 7.682600115363635E+08,      /* I = 25 */
(PID.TID 0000.0001)                 7.671201363863536E+08,      /* I = 26 */
(PID.TID 0000.0001)                 7.658765213499908E+08,      /* I = 27 */
(PID.TID 0000.0001)                 7.645280345158333E+08,      /* I = 28 */
(PID.TID 0000.0001)                 7.630734673343852E+08,      /* I = 29 */
(PID.TID 0000.0001)                 7.615115062009304E+08       /* I = 30 */
(PID.TID 0000.0001)     ;
(PID.TID 0000.0001) rAw =  /* rAw(1,:,1,:) ( units: m^2 ) */
(PID.TID 0000.0001)                 7.658765213139513E+08,      /* J =  1 */
(PID.TID 0000.0001)                 7.893768970448780E+08,      /* J =  2 */
(PID.TID 0000.0001)                 8.137283914516071E+08,      /* J =  3 */
(PID.TID 0000.0001)                 8.389460603348250E+08,      /* J =  4 */
(PID.TID 0000.0001)                 8.650445848102766E+08,      /* J =  5 */
(PID.TID 0000.0001)                 8.920382782103341E+08,      /* J =  6 */
(PID.TID 0000.0001)                 9.199411445401106E+08,      /* J =  7 */
(PID.TID 0000.0001)                 9.487668893433769E+08,      /* J =  8 */
(PID.TID 0000.0001)                 9.785289545527842E+08,      /* J =  9 */
(PID.TID 0000.0001)                 1.009240515336406E+09,      /* J = 10 */
(PID.TID 0000.0001)                 1.040914522930714E+09,      /* J = 11 */
(PID.TID 0000.0001)                 1.073563715488477E+09,      /* J = 12 */
(PID.TID 0000.0001)                 1.107200612276400E+09,      /* J = 13 */
(PID.TID 0000.0001)                 1.141837554111466E+09,      /* J = 14 */
(PID.TID 0000.0001)                 1.177486672294872E+09,      /* J = 15 */
(PID.TID 0000.0001)                 1.214159933192917E+09,      /* J = 16 */
(PID.TID 0000.0001)                 1.251869095602249E+09,      /* J = 17 */
(PID.TID 0000.0001)                 1.290625742284441E+09,      /* J = 18 */
(PID.TID 0000.0001)                 1.330441258846839E+09,      /* J = 19 */
(PID.TID 0000.0001)                 1.371326820624166E+09,      /* J = 20 */
(PID.TID 0000.0001)                 1.413293399742275E+09,      /* J = 21 */
(PID.TID 0000.0001)                 1.456351737475827E+09,      /* J = 22 */
(PID.TID 0000.0001)                 1.500512320083793E+09,      /* J = 23 */
(PID.TID 0000.0001)                 1.545785394792978E+09,      /* J = 24 */
(PID.TID 0000.0001)                 1.592180902277974E+09,      /* J = 25 */
(PID.TID 0000.0001)                 1.639708504465653E+09,      /* J = 26 */
(PID.TID 0000.0001)                 1.688377519501836E+09,      /* J = 27 */
(PID.TID 0000.0001)                 1.738196956421325E+09,      /* J = 28 */
(PID.TID 0000.0001)                 1.789175499722981E+09,      /* J = 29 */
(PID.TID 0000.0001)                 1.841321602441802E+09       /* J = 30 */
(PID.TID 0000.0001)     ;
(PID.TID 0000.0001) rAs =  /* rAs(:,1,:,1) ( units: m^2 ) */
(PID.TID 0000.0001)                 7.550751050606852E+08,      /* I =  1 */
(PID.TID 0000.0001)                 7.562658447772087E+08,      /* I =  2 */
(PID.TID 0000.0001)                 7.573533970032284E+08,      /* I =  3 */
(PID.TID 0000.0001)                 7.583387692957978E+08,      /* I =  4 */
(PID.TID 0000.0001)                 7.592229121974397E+08,      /* I =  5 */
(PID.TID 0000.0001)                 7.600066705467438E+08,      /* I =  6 */
(PID.TID 0000.0001)                 7.606907923080522E+08,      /* I =  7 */
(PID.TID 0000.0001)                 7.612759532224941E+08,      /* I =  8 */
(PID.TID 0000.0001)                 7.617627129118443E+08,      /* I =  9 */
(PID.TID 0000.0001)                 7.621515550445726E+08,      /* I = 10 */
(PID.TID 0000.0001)                 7.624428588466020E+08,      /* I = 11 */
(PID.TID 0000.0001)                 7.626369483673384E+08,      /* I = 12 */
(PID.TID 0000.0001)                 7.627333738515058E+08,      /* I = 13 */
(PID.TID 0000.0001)                 7.627333728604188E+08,      /* I = 14 */
(PID.TID 0000.0001)                 7.626369508901051E+08,      /* I = 15 */
(PID.TID 0000.0001)                 7.624428655319341E+08,      /* I = 16 */
(PID.TID 0000.0001)                 7.621515526659639E+08,      /* I = 17 */
(PID.TID 0000.0001)                 7.617627197953936E+08,      /* I = 18 */
(PID.TID 0000.0001)                 7.612759510961621E+08,      /* I = 19 */
(PID.TID 0000.0001)                 7.606907969030919E+08,      /* I = 20 */
(PID.TID 0000.0001)                 7.600066694295187E+08,      /* I = 21 */
(PID.TID 0000.0001)                 7.592229103594238E+08,      /* I = 22 */
(PID.TID 0000.0001)                 7.583387684488690E+08,      /* I = 23 */
(PID.TID 0000.0001)                 7.573533915792797E+08,      /* I = 24 */
(PID.TID 0000.0001)                 7.562658465071062E+08,      /* I = 25 */
(PID.TID 0000.0001)                 7.550751079979067E+08,      /* I = 26 */
(PID.TID 0000.0001)                 7.537800585200102E+08,      /* I = 27 */
(PID.TID 0000.0001)                 7.523795064624999E+08,      /* I = 28 */
(PID.TID 0000.0001)                 7.508721675027735E+08,      /* I = 29 */
(PID.TID 0000.0001)                 7.492566800675046E+08       /* I = 30 */
(PID.TID 0000.0001)     ;
(PID.TID 0000.0001) rAs =  /* rAs(1,:,1,:) ( units: m^2 ) */
(PID.TID 0000.0001)                 7.550751050606852E+08,      /* J =  1 */
(PID.TID 0000.0001)                 7.781568160584769E+08,      /* J =  2 */
(PID.TID 0000.0001)                 8.020831616625657E+08,      /* J =  3 */
(PID.TID 0000.0001)                 8.268695937660589E+08,      /* J =  4 */
(PID.TID 0000.0001)                 8.525311818286231E+08,      /* J =  5 */
(PID.TID 0000.0001)                 8.790826547724357E+08,      /* J =  6 */
(PID.TID 0000.0001)                 9.065383887828039E+08,      /* J =  7 */
(PID.TID 0000.0001)                 9.349124897125442E+08,      /* J =  8 */
(PID.TID 0000.0001)                 9.642187819277472E+08,      /* J =  9 */
(PID.TID 0000.0001)                 9.944708240750725E+08,      /* J = 10 */
(PID.TID 0000.0001)                 1.025681954725808E+09,      /* J = 11 */
(PID.TID 0000.0001)                 1.057865313008499E+09,      /* J = 12 */
(PID.TID 0000.0001)                 1.091033805921100E+09,      /* J = 13 */
(PID.TID 0000.0001)                 1.125200178247652E+09,      /* J = 14 */
(PID.TID 0000.0001)                 1.160376979600140E+09,      /* J = 15 */
(PID.TID 0000.0001)                 1.196576586510721E+09,      /* J = 16 */
(PID.TID 0000.0001)                 1.233811208089928E+09,      /* J = 17 */
(PID.TID 0000.0001)                 1.272092866313053E+09,      /* J = 18 */
(PID.TID 0000.0001)                 1.311433405822894E+09,      /* J = 19 */
(PID.TID 0000.0001)                 1.351844507714875E+09,      /* J = 20 */
(PID.TID 0000.0001)                 1.393337606051485E+09,      /* J = 21 */
(PID.TID 0000.0001)                 1.435923987908001E+09,      /* J = 22 */
(PID.TID 0000.0001)                 1.479614675036705E+09,      /* J = 23 */
(PID.TID 0000.0001)                 1.524420466465598E+09,      /* J = 24 */
(PID.TID 0000.0001)                 1.570351910729954E+09,      /* J = 25 */
(PID.TID 0000.0001)                 1.617419255741331E+09,      /* J = 26 */
(PID.TID 0000.0001)                 1.665632470339211E+09,      /* J = 27 */
(PID.TID 0000.0001)                 1.715001205152071E+09,      /* J = 28 */
(PID.TID 0000.0001)                 1.765534790867491E+09,      /* J = 29 */
(PID.TID 0000.0001)                 1.817242347954489E+09       /* J = 30 */
(PID.TID 0000.0001)     ;
(PID.TID 0000.0001) globalArea = /* Integrated horizontal Area (m^2) */
(PID.TID 0000.0001)                 3.580138611494435E+14
(PID.TID 0000.0001)     ;
(PID.TID 0000.0001) hasWetCSCorners = /* Domain contains CS corners (True/False) */
(PID.TID 0000.0001)                   F
(PID.TID 0000.0001)     ;
(PID.TID 0000.0001) // =======================================================
(PID.TID 0000.0001) // End of Model config. summary
(PID.TID 0000.0001) // =======================================================
(PID.TID 0000.0001) 
(PID.TID 0000.0001) == Packages configuration : Check & print summary ==
(PID.TID 0000.0001) 
(PID.TID 0000.0001) GAD_CHECK: #define ALLOW_GENERIC_ADVDIFF
(PID.TID 0000.0001) // =======================================================
(PID.TID 0000.0001) // Check Model config. (CONFIG_CHECK):
(PID.TID 0000.0001) // CONFIG_CHECK : Normal End
(PID.TID 0000.0001) // =======================================================
(PID.TID 0000.0001) 
(PID.TID 0000.0001) Start initial hydrostatic pressure computation
(PID.TID 0000.0001) Pressure is predetermined for buoyancyRelation OCEANIC
(PID.TID 0000.0001) 
(PID.TID 0000.0001) // =======================================================
(PID.TID 0000.0001) // Model current state
(PID.TID 0000.0001) // =======================================================
(PID.TID 0000.0001) 
(PID.TID 0000.0001) // =======================================================
(PID.TID 0000.0001) // Begin MONITOR dynamic field statistics
(PID.TID 0000.0001) // =======================================================
(PID.TID 0000.0001) %MON time_tsnumber                =                     0
(PID.TID 0000.0001) %MON time_secondsf                =   0.0000000000000E+00
(PID.TID 0000.0001) %MON dynstat_eta_max              =   0.0000000000000E+00
(PID.TID 0000.0001) %MON dynstat_eta_min              =   0.0000000000000E+00
(PID.TID 0000.0001) %MON dynstat_eta_mean             =   0.0000000000000E+00
(PID.TID 0000.0001) %MON dynstat_eta_sd               =   0.0000000000000E+00
(PID.TID 0000.0001) %MON dynstat_eta_del2             =   0.0000000000000E+00
(PID.TID 0000.0001) %MON dynstat_uvel_max             =   0.0000000000000E+00
(PID.TID 0000.0001) %MON dynstat_uvel_min             =   0.0000000000000E+00
(PID.TID 0000.0001) %MON dynstat_uvel_mean            =   0.0000000000000E+00
(PID.TID 0000.0001) %MON dynstat_uvel_sd              =   0.0000000000000E+00
(PID.TID 0000.0001) %MON dynstat_uvel_del2            =   0.0000000000000E+00
(PID.TID 0000.0001) %MON dynstat_vvel_max             =   0.0000000000000E+00
(PID.TID 0000.0001) %MON dynstat_vvel_min             =   0.0000000000000E+00
(PID.TID 0000.0001) %MON dynstat_vvel_mean            =   0.0000000000000E+00
(PID.TID 0000.0001) %MON dynstat_vvel_sd              =   0.0000000000000E+00
(PID.TID 0000.0001) %MON dynstat_vvel_del2            =   0.0000000000000E+00
(PID.TID 0000.0001) %MON dynstat_wvel_max             =   0.0000000000000E+00
(PID.TID 0000.0001) %MON dynstat_wvel_min             =   0.0000000000000E+00
(PID.TID 0000.0001) %MON dynstat_wvel_mean            =   0.0000000000000E+00
(PID.TID 0000.0001) %MON dynstat_wvel_sd              =   0.0000000000000E+00
(PID.TID 0000.0001) %MON dynstat_wvel_del2            =   0.0000000000000E+00
(PID.TID 0000.0001) %MON dynstat_theta_max            =   3.2662113189697E+01
(PID.TID 0000.0001) %MON dynstat_theta_min            =  -2.0421380996704E+00
(PID.TID 0000.0001) %MON dynstat_theta_mean           =   3.5902412996509E+00
(PID.TID 0000.0001) %MON dynstat_theta_sd             =   4.4363109209123E+00
(PID.TID 0000.0001) %MON dynstat_theta_del2           =   1.0906365137767E-04
(PID.TID 0000.0001) %MON dynstat_salt_max             =   3.4500000000000E+01
(PID.TID 0000.0001) %MON dynstat_salt_min             =   3.4500000000000E+01
(PID.TID 0000.0001) %MON dynstat_salt_mean            =   3.4500000000000E+01
(PID.TID 0000.0001) %MON dynstat_salt_sd              =   1.4210854715202E-14
(PID.TID 0000.0001) %MON dynstat_salt_del2            =   0.0000000000000E+00
(PID.TID 0000.0001) %MON dynstat_sst_max              =   3.2662113189697E+01
(PID.TID 0000.0001) %MON dynstat_sst_min              =  -1.9609075784683E+00
(PID.TID 0000.0001) %MON dynstat_sst_mean             =   1.8513592276754E+01
(PID.TID 0000.0001) %MON dynstat_sst_sd               =   1.0087201515756E+01
(PID.TID 0000.0001) %MON dynstat_sst_del2             =   8.7893000712207E-04
(PID.TID 0000.0001) %MON dynstat_sss_max              =   3.4500000000000E+01
(PID.TID 0000.0001) %MON dynstat_sss_min              =   3.4500000000000E+01
(PID.TID 0000.0001) %MON dynstat_sss_mean             =   3.4500000000000E+01
(PID.TID 0000.0001) %MON dynstat_sss_sd               =   7.1054273576010E-15
(PID.TID 0000.0001) %MON dynstat_sss_del2             =   0.0000000000000E+00
(PID.TID 0000.0001) %MON forcing_qnet_max             =   0.0000000000000E+00
(PID.TID 0000.0001) %MON forcing_qnet_min             =   0.0000000000000E+00
(PID.TID 0000.0001) %MON forcing_qnet_mean            =   0.0000000000000E+00
(PID.TID 0000.0001) %MON forcing_qnet_sd              =   0.0000000000000E+00
(PID.TID 0000.0001) %MON forcing_qnet_del2            =   0.0000000000000E+00
(PID.TID 0000.0001) %MON forcing_qsw_max              =   0.0000000000000E+00
(PID.TID 0000.0001) %MON forcing_qsw_min              =   0.0000000000000E+00
(PID.TID 0000.0001) %MON forcing_qsw_mean             =   0.0000000000000E+00
(PID.TID 0000.0001) %MON forcing_qsw_sd               =   0.0000000000000E+00
(PID.TID 0000.0001) %MON forcing_qsw_del2             =   0.0000000000000E+00
(PID.TID 0000.0001) %MON forcing_empmr_max            =   0.0000000000000E+00
(PID.TID 0000.0001) %MON forcing_empmr_min            =   0.0000000000000E+00
(PID.TID 0000.0001) %MON forcing_empmr_mean           =   0.0000000000000E+00
(PID.TID 0000.0001) %MON forcing_empmr_sd             =   0.0000000000000E+00
(PID.TID 0000.0001) %MON forcing_empmr_del2           =   0.0000000000000E+00
(PID.TID 0000.0001) %MON forcing_fu_max               =   0.0000000000000E+00
(PID.TID 0000.0001) %MON forcing_fu_min               =   0.0000000000000E+00
(PID.TID 0000.0001) %MON forcing_fu_mean              =   0.0000000000000E+00
(PID.TID 0000.0001) %MON forcing_fu_sd                =   0.0000000000000E+00
(PID.TID 0000.0001) %MON forcing_fu_del2              =   0.0000000000000E+00
(PID.TID 0000.0001) %MON forcing_fv_max               =   0.0000000000000E+00
(PID.TID 0000.0001) %MON forcing_fv_min               =   0.0000000000000E+00
(PID.TID 0000.0001) %MON forcing_fv_mean              =   0.0000000000000E+00
(PID.TID 0000.0001) %MON forcing_fv_sd                =   0.0000000000000E+00
(PID.TID 0000.0001) %MON forcing_fv_del2              =   0.0000000000000E+00
(PID.TID 0000.0001) %MON trAdv_CFL_u_max              =   0.0000000000000E+00
(PID.TID 0000.0001) %MON trAdv_CFL_v_max              =   0.0000000000000E+00
(PID.TID 0000.0001) %MON trAdv_CFL_w_max              =   0.0000000000000E+00
(PID.TID 0000.0001) %MON advcfl_uvel_max              =   0.0000000000000E+00
(PID.TID 0000.0001) %MON advcfl_vvel_max              =   0.0000000000000E+00
(PID.TID 0000.0001) %MON advcfl_wvel_max              =   0.0000000000000E+00
(PID.TID 0000.0001) %MON advcfl_W_hf_max              =   0.0000000000000E+00
(PID.TID 0000.0001) %MON pe_b_mean                    =   0.0000000000000E+00
(PID.TID 0000.0001) %MON ke_max                       =   0.0000000000000E+00
(PID.TID 0000.0001) %MON ke_mean                      =   0.0000000000000E+00
(PID.TID 0000.0001) %MON ke_vol                       =   1.3349978769393E+18
(PID.TID 0000.0001) %MON vort_r_min                   =   0.0000000000000E+00
(PID.TID 0000.0001) %MON vort_r_max                   =   0.0000000000000E+00
(PID.TID 0000.0001) %MON vort_a_mean                  =  -1.9727864647440E-05
(PID.TID 0000.0001) %MON vort_a_sd                    =   7.4542458072371E-05
(PID.TID 0000.0001) %MON vort_p_mean                  =  -2.1760527755546E-05
(PID.TID 0000.0001) %MON vort_p_sd                    =   9.7245654528830E-05
(PID.TID 0000.0001) %MON surfExpan_theta_mean         =   0.0000000000000E+00
(PID.TID 0000.0001) %MON surfExpan_salt_mean          =   0.0000000000000E+00
(PID.TID 0000.0001) // =======================================================
(PID.TID 0000.0001) // End MONITOR dynamic field statistics
(PID.TID 0000.0001) // =======================================================
   Integer*4 Resource Parameter INTERPOLATE_SST:           0
   Integer*4 Resource Parameter BYPASS_OGCM:           0
 Freq: 060000  Dur: 060000  TM:   -1  Collection: geosgcm_prog
 Freq: 030000  Dur: 030000  TM:   -1  Collection: geosgcm_surf
 Freq: 030000  Dur: 030000  TM:   -1  Collection: mit_ocn
      Real*4 Resource Parameter ALPHA:    0.00000    
      Real*4 Resource Parameter BETA:    1.00000    
      Real*4 Resource Parameter ALPHAQ:    0.00000    
      Real*4 Resource Parameter BETAQ:    1.00000    
      Real*4 Resource Parameter ALPHAO:    0.00000    
      Real*4 Resource Parameter BETAO:    1.00000    
      Real*4 Resource Parameter TAUANL:    21600.0    
   Integer*4 Resource Parameter IS_FCST:           0
   Integer*4 Resource Parameter CONSTRAIN_DAS:           1
   Character Resource Parameter ANA_IS_WEIGHTED: NO
   Integer*4 Resource Parameter CONSV:           1
   Integer*4 Resource Parameter FILL:           0
   Character Resource Parameter DPEDT_PHYS: YES
      Real*4 Resource Parameter DOPHYSICS:    1.00000    
   Integer*4 Resource Parameter PGWV:           4
      Real*4 Resource Parameter EFFGWORO:   0.250000    
      Real*4 Resource Parameter EFFGWBKG:   0.125000    
      Real*4 Resource Parameter EFFORONH:    1.00000    
      Real*4 Resource Parameter EFFOROSH:    2.50000    
      Real*4 Resource Parameter RAYLEIGH_Z1:    75000.0    
      Real*4 Resource Parameter RAYLEIGH_TAU1:    172800.    
      Real*4 Resource Parameter RAYLEIGH_H0:    7000.00    
      Real*4 Resource Parameter RAYLEIGH_HH:    7500.00    
   Integer*4 Resource Parameter CLEANUP_RH:           1
      Real*4 Resource Parameter CUFRICFAC:    1.00000    
      Real*4 Resource Parameter SHR_LAMBDA_FAC:   0.500000E-01
      Real*4 Resource Parameter AUTOC_CN:   0.250000E-02
      Real*4 Resource Parameter AUTO_CNV:    1.00000    
      Real*4 Resource Parameter LCCIRRUS:    500.000    
      Real*4 Resource Parameter UISCALE:    1.00000    
      Real*4 Resource Parameter OVERSHOOT_FRAC:    0.00000    
      Real*4 Resource Parameter LIU_MU:    2.00000    
      Real*4 Resource Parameter NPRE_FRAC:    1.00000    
      Real*4 Resource Parameter LTS_LOW:    12.0000    
      Real*4 Resource Parameter LTS_UP:    22.0000    
      Real*4 Resource Parameter MIN_EXP:    1.00000    
      Real*4 Resource Parameter DCRIT_DRIZZLE:    1.00000    
      Real*4 Resource Parameter USE_AV_V:    0.00000    
      Real*4 Resource Parameter TS_AUTO_ICE:    1.50000    
      Real*4 Resource Parameter TMAXLL:    296.000    
      Real*4 Resource Parameter CCNPARAM:    2.00000    
      Real*4 Resource Parameter INPARAM:    5.00000    
      Real*4 Resource Parameter FDROP_DUST:   0.500000    
      Real*4 Resource Parameter FDROP_SOOT:   0.100000E-01
      Real*4 Resource Parameter SIGMA_NUC:   0.280000    
      Real*4 Resource Parameter SS_SCALE:    14.0000    
      Real*4 Resource Parameter MIN_ALH:    300.000    
      Real*4 Resource Parameter USE_NAT_WSUB:    1.00000    
      Real*4 Resource Parameter BKG_TAU:   0.150000E-01
      Real*4 Resource Parameter DCS:   0.350000E-03
      Real*4 Resource Parameter QC_CRIT_CN:   0.800000E-03
      Real*4 Resource Parameter RASAL1:    1800.00    
      Real*4 Resource Parameter RASAL2:    43200.0    
      Real*4 Resource Parameter RASNCL:   -300.000    
      Real*4 Resource Parameter LAMBDA_FAC:    4.00000    
      Real*4 Resource Parameter LAMBMX_FAC:    0.00000    
      Real*4 Resource Parameter MIN_DIAMETER:    200.000    
      Real*4 Resource Parameter CUFRICLAMBDA:   0.750000E-03
      Real*4 Resource Parameter RDTLEXPON:    1.00000    
      Real*4 Resource Parameter STRAPPING:   -1.00000    
      Real*4 Resource Parameter SDQV2:    1.30000    
      Real*4 Resource Parameter SDQV3:    1.30000    
      Real*4 Resource Parameter SDQVT1:    263.000    
      Real*4 Resource Parameter ACRITFAC:   0.500000    
      Real*4 Resource Parameter HMINTRIGGER:    1.00000    
      Real*4 Resource Parameter LLDISAGGXP:    0.00000    
      Real*4 Resource Parameter PBLFRAC:   0.100000    
      Real*4 Resource Parameter RASAUTORAMPB:   0.800000    
      Real*4 Resource Parameter PMIN_DET    3000.00    
      Real*4 Resource Parameter PMIN_CBL    50000.0    
      Real*4 Resource Parameter AUTOC_CN_LAND:   0.250000E-02
      Real*4 Resource Parameter AUTOC_CN_ZDEP:    1.00000    
      Real*4 Resource Parameter MAXDALLOWED_S:    4000.00    
      Real*4 Resource Parameter MAXDALLOWED_D:    2000.00    
      Real*4 Resource Parameter RAS_RHMIN:   0.500000    
      Real*4 Resource Parameter RAS_RHFULL:   0.650000    
   Integer*4 Resource Parameter CBL_METHOD:           6
      Real*4 Resource Parameter CBL_TPERT:    1.00000    
      Real*4 Resource Parameter CBL_QPERT:    0.00000    
      Real*4 Resource Parameter CBL_TPERT_MXOCN:    2.00000    
      Real*4 Resource Parameter CBL_TPERT_MXLND:    4.00000    
      Real*4 Resource Parameter CNV_Q600_MIN:   0.250000E-02
      Real*4 Resource Parameter CNV_Q600_MAX:   0.250000E-02
      Real*4 Resource Parameter CNV_BETA:    10.0000    
      Real*4 Resource Parameter ANV_BETA:    4.00000    
      Real*4 Resource Parameter LS_BETA:    4.00000    
      Real*4 Resource Parameter RH_CRIT:    1.00000    
      Real*4 Resource Parameter AUTOC_LS:   0.200000E-02
      Real*4 Resource Parameter QC_CRIT_LS:   0.800000E-03
      Real*4 Resource Parameter ACCRETION:    2.00000    
      Real*4 Resource Parameter RAIN_REVAP_FAC:    1.00000    
      Real*4 Resource Parameter VOL_TO_FRAC:   -1.00000    
      Real*4 Resource Parameter SUPERSAT:    0.00000    
      Real*4 Resource Parameter SHEAR_EVAP_FAC:    1.30000    
      Real*4 Resource Parameter MIN_ALLOW_CCW:   0.100000E-08
      Real*4 Resource Parameter CCW_EVAP_EFF:   0.330000E-03
      Real*4 Resource Parameter NSUB_AUTOCONV:    20.0000    
      Real*4 Resource Parameter LS_SUND_INTER:    4.80000    
      Real*4 Resource Parameter LS_SUND_COLD:    4.80000    
      Real*4 Resource Parameter LS_SUND_TEMP1:    230.000    
      Real*4 Resource Parameter ANV_SUND_INTER:    1.00000    
      Real*4 Resource Parameter ANV_SUND_COLD:    1.00000    
      Real*4 Resource Parameter ANV_SUND_TEMP1:    230.000    
      Real*4 Resource Parameter ANV_TO_LS_TIME:    14400.0    
      Real*4 Resource Parameter NCCN_WARM:    50.0000    
      Real*4 Resource Parameter NCCN_ICE:   0.100000E-01
      Real*4 Resource Parameter NCCN_ANVIL:   0.100000    
      Real*4 Resource Parameter NCCN_PBL:    200.000    
      Real*4 Resource Parameter DISABLE_RAD:    0.00000    
      Real*4 Resource Parameter ICE_SETTLE:    0.00000    
      Real*4 Resource Parameter ANV_ICEFALL:   0.500000    
      Real*4 Resource Parameter LS_ICEFALL:   0.500000    
      Real*4 Resource Parameter REVAP_OFF_P:    2000.00    
      Real*4 Resource Parameter WRHODEP:   0.500000    
      Real*4 Resource Parameter ICE_RAMP:   -40.0000    
      Real*4 Resource Parameter CNV_ICEPARAM:    1.00000    
      Real*4 Resource Parameter CNV_ICEFRPWR:    4.00000    
      Real*4 Resource Parameter CNV_DDRF:    0.00000    
      Real*4 Resource Parameter ANV_DDRF:    0.00000    
      Real*4 Resource Parameter LS_DDRF:    0.00000    
      Real*4 Resource Parameter AUTOC_ANV:   0.100000E-02
      Real*4 Resource Parameter QC_CRIT_ANV:   0.800000E-03
      Real*4 Resource Parameter TANHRHCRIT:    1.00000    
      Real*4 Resource Parameter MINRHCRIT:   0.800000    
      Real*4 Resource Parameter MAXRHCRIT:    1.00000    
      Real*4 Resource Parameter PRECIPRAD:    0.00000    
      Real*4 Resource Parameter MAXRHCRITLAND:   0.810000    
      Real*4 Resource Parameter SNOW_REVAP_FAC:    1.00000    
      Real*4 Resource Parameter CNV_ENVF:   0.800000    
      Real*4 Resource Parameter SCLMFDFR:    1.00000    
      Real*4 Resource Parameter TURNRHCRIT:    750.000    
      Real*4 Resource Parameter MOVE2RAS:    1.00000    
      Real*4 Resource Parameter FR_LS_WAT:    1.00000    
      Real*4 Resource Parameter FR_LS_ICE:    1.00000    
      Real*4 Resource Parameter FR_AN_WAT:    0.00000    
      Real*4 Resource Parameter FR_AN_ICE:    0.00000    
      Real*4 Resource Parameter MIN_RL:   0.100000E-04
      Real*4 Resource Parameter MIN_RI:   0.200000E-04
      Real*4 Resource Parameter MAX_RL:   0.210000E-04
      Real*4 Resource Parameter MAX_RI:   0.400000E-04
      Real*4 Resource Parameter RI_ANV:   0.300000E-04
      Real*4 Resource Parameter PDFSHAPE:    1.00000    
      Real*4 Resource Parameter TURNRHCRIT_UP:    300.000    
      Real*4 Resource Parameter RSUB_RADIUS:   0.100000E-02
      Real*4 Resource Parameter MARINE_A0:   0.139868E-01
      Real*4 Resource Parameter MARINE_A1:   0.358764E-01
      Real*4 Resource Parameter MARINE_A2:  -0.610214E-01
      Real*4 Resource Parameter MARINE_A3:  -0.102320E-01
      Real*4 Resource Parameter MARINE_A4:   0.313520E-02
      Real*4 Resource Parameter MARINE_A5:   0.346241E-01
      Real*4 Resource Parameter CONTINENT_A0:  -0.183172E-01
      Real*4 Resource Parameter CONTINENT_A1:  -0.562338E-01
      Real*4 Resource Parameter CONTINENT_A2:   0.186274    
      Real*4 Resource Parameter CONTINENT_A3:  -0.233630E-02
      Real*4 Resource Parameter CONTINENT_A4:  -0.138380E-02
      Real*4 Resource Parameter CONTINENT_A5:   0.114759E-01
      Real*4 Resource Parameter X1_DIVISOR:    4.36000    
      Real*4 Resource Parameter X2_DIVISOR:    9.27000    
      Real*4 Resource Parameter X3_DIVISOR:    34.4000    
      Real*4 Resource Parameter X4_DIVISOR:    21.4000    
      Real*4 Resource Parameter X5_DIVISOR:    14600.0    
      Real*4 Resource Parameter X5_EXPONENT:    3.00000    
      Real*4 Resource Parameter SFC_T_LIMIT:    273.000    
      Real*4 Resource Parameter AIR_T_LIMIT:    263.000    
      Real*4 Resource Parameter CLOUD_TOP_LIMIT:    500.000    
   Integer*4 Resource Parameter CHOOSEMOSFC:           1
   Integer*4 Resource Parameter INTERPOLATE_ATMLM:           0
   Integer*4 Resource Parameter CHOOSEZ0:           3
      Real*4 Resource Parameter OCEANICEZ0:   0.100000E-02
      Real*4 Resource Parameter OCEANZ0:   0.100000E-02
      Real*4 Resource Parameter ICEZ0:   0.500000E-03
   Character Resource Parameter LAI_FILE: lai.data
   Character Resource Parameter GREEN_FILE: green.data
   Integer*4 Resource Parameter PARALLEL_READFORCING:           1
      Real*4 Resource Parameter SCALE4Z0:    2.00000    
      Real*4 Resource Parameter TURBULENCE_LOUIS:    5.00000    
      Real*4 Resource Parameter TURBULENCE_LAMBDAM:    160.000    
      Real*4 Resource Parameter TURBULENCE_LAMBDAM2:    1.00000    
      Real*4 Resource Parameter TURBULENCE_LAMBDAH:    160.000    
      Real*4 Resource Parameter TURBULENCE_LAMBDAH2:    1.00000    
      Real*4 Resource Parameter TURBULENCE_ZKMENV:    3000.00    
      Real*4 Resource Parameter TURBULENCE_ZKHENV:    3000.00    
      Real*4 Resource Parameter TURBULENCE_MINTHICK:   0.100000    
      Real*4 Resource Parameter TURBULENCE_MINSHEAR:   0.300000E-02
      Real*4 Resource Parameter TURBULENCE_C_B:   0.102000E-06
      Real*4 Resource Parameter TURBULENCE_LAMBDA_B:    1500.00    
      Real*4 Resource Parameter TURBULENCE_AKHMMAX:    500.000    
   Integer*4 Resource Parameter TURBULENCE_LOCK_ON:           1
      Real*4 Resource Parameter TURBULENCE_PRANDTLSFC:    1.00000    
      Real*4 Resource Parameter TURBULENCE_PRANDTLRAD:   0.750000    
      Real*4 Resource Parameter TURBULENCE_BETA_RAD:   0.500000    
      Real*4 Resource Parameter TURBULENCE_BETA_SURF:   0.250000    
      Real*4 Resource Parameter TURBULENCE_KHRADFAC:   0.850000    
      Real*4 Resource Parameter TURBULENCE_KHSFCFAC:   0.450000    
      Real*4 Resource Parameter TURBULENCE_TPFAC_SURF:    20.0000    
      Real*4 Resource Parameter TURBULENCE_ENTRATE_SURF:   0.150000E-02
      Real*4 Resource Parameter TURBULENCE_PCEFF_SURF:   0.500000    
      Real*4 Resource Parameter TURBULENCE_LOUIS_MEMORY:   -999.000    
   Integer*4 Resource Parameter TURBULENCE_PBLHT_OPTION:           4
      Real*4 Resource Parameter ECCENTRICITY:   0.167000E-01
      Real*4 Resource Parameter OBLIQUITY:    23.4500    
      Real*4 Resource Parameter PERIHELION:    102.000    
   Integer*4 Resource Parameter EQUINOX:          80
   Character Resource Parameter PRECIP_FILE: null
      Real*4 Resource Parameter SOLAR_CONSTANT:   -1.00000    
   Integer*4 Resource Parameter INTERPOLATE_ATMTAU:           0
      Real*4 Resource Parameter LANDICEEMISS:   0.999990    
      Real*4 Resource Parameter LANDICEALBEDO:   0.580000    
      Real*4 Resource Parameter LANDICEDEPTH:   0.700000E-01
      Real*4 Resource Parameter LANDICECOND:    1.20000    
      Real*4 Resource Parameter LANDICETDEEP:    230.000    
      Real*4 Resource Parameter SURFLAY:    50.0000    
   Character Resource Parameter VISDF_FILE: visdf.dat
   Character Resource Parameter NIRDF_FILE: nirdf.dat
      Real*4 Resource Parameter MAX_SEAICE_DEPTH:   0.700000E-01
      Real*4 Resource Parameter MIN_SEAICE_DEPTH:   0.700000E-01
   Integer*4 Resource Parameter USE_SKIN_LAYER:           0
      Real*4 Resource Parameter MAX_WATER_DEPTH:    20.0000    
      Real*4 Resource Parameter MIN_WATER_DEPTH:   0.500000    
      Real*4 Resource Parameter MU_SKIN:   0.200000    
      Real*4 Resource Parameter STOKES_VELOCITY:   0.100000E-01
   Integer*4 Resource Parameter USE_KPAR:           1
      Real*4 Resource Parameter CICE_EMSICE:   0.999990    
      Real*4 Resource Parameter MAX_SALINITY:    40.0000    
      Real*4 Resource Parameter MIN_SALINITY:    5.00000    
      Real*4 Resource Parameter LATSO:    70.0000    
      Real*4 Resource Parameter LONSO:    70.0000    
      Real*4 Resource Parameter CICE_FRZMLT_MAX:    1000.00    
   Integer*4 Resource Parameter DIAG_ICE_BUDGET:           0
   Integer*4 Resource Parameter COOL_SKIN_LAYER_ITERATIONS           3
      Real*4 Resource Parameter THRESHOLD_ICE_FR_SST:   0.150000    
      Real*4 Resource Parameter FRESH_NEW_ICE_MIN_SALINITY:    5.00000    
      Real*4 Resource Parameter CICE_ICE_THICKNESS_THRESH:    1.50000    
      Real*4 Resource Parameter CICE_ICE_ARTIFICIAL_MELT:   0.100000    
      Real*4 Resource Parameter SHVC_EFFECT:    0.00000    
      Real*4 Resource Parameter CH4_FIXED_VALUE:   -1.00000    
      Real*4 Resource Parameter CH4_RELAXTIME:    259200.    
      Real*4 Resource Parameter CH4_DELP:    5000.00    
      Real*4 Resource Parameter CH4_PCRIT:   0.100000E+17
      Real*4 Resource Parameter N2O_FIXED_VALUE:   -1.00000    
      Real*4 Resource Parameter N2O_RELAXTIME:    259200.    
      Real*4 Resource Parameter N2O_DELP:    5000.00    
      Real*4 Resource Parameter N2O_PCRIT:   0.100000E+17
      Real*4 Resource Parameter CFC11_FIXED_VALUE:   -1.00000    
      Real*4 Resource Parameter CFC11_RELAXTIME:    259200.    
      Real*4 Resource Parameter CFC11_DELP:    5000.00    
      Real*4 Resource Parameter CFC11_PCRIT:   0.100000E+17
      Real*4 Resource Parameter CFC12_FIXED_VALUE:   -1.00000    
      Real*4 Resource Parameter CFC12_RELAXTIME:    259200.    
      Real*4 Resource Parameter CFC12_DELP:    5000.00    
      Real*4 Resource Parameter CFC12_PCRIT:   0.100000E+17
      Real*4 Resource Parameter HCFC22_FIXED_VALUE:   -1.00000    
      Real*4 Resource Parameter HCFC22_RELAXTIME:    259200.    
      Real*4 Resource Parameter HCFC22_DELP:    5000.00    
      Real*4 Resource Parameter HCFC22_PCRIT:   0.100000E+17
      Real*4 Resource Parameter OX_FIXED_VALUE:   -1.00000    
      Real*4 Resource Parameter OX_RELAXTIME:    259200.    
      Real*4 Resource Parameter OX_DELP:    5000.00    
      Real*4 Resource Parameter OX_PCRIT:   0.100000E+17
      Real*4 Resource Parameter H2O_RELAXTIME:    259200.    
      Real*4 Resource Parameter H2O_DELP:    5000.00    
      Real*4 Resource Parameter H2O_PCRIT:    20000.0    
      Real*4 Resource Parameter PRS_LOW_MID_CLOUDS:    70000.0    
      Real*4 Resource Parameter PRS_MID_HIGH_CLOUDS:    40000.0    
      Real*4 Resource Parameter CO2:   -1.00000    
   Integer*4 Resource Parameter SUN_FLAG:           0
   Integer*4 Resource Parameter SOLAR_LOAD_BALANCE:           1
   Integer*4 Resource Parameter CALLED_LAST:           1
      Real*4 Resource Parameter TAUCRIT:   0.100000    
   Character Resource Parameter KPAR_FILE: SEAWIFS_KPAR_mon_clim.data
      Real*4 Resource Parameter MIT_TAU_MIN:    60.0000    
      Real*4 Resource Parameter MIT_TAU_MAX:    86400.0    
      Real*4 Resource Parameter MIT_M3:    1.00000    
      Real*4 Resource Parameter MIT_SKINH:    2.00000    
   Integer*4 Resource Parameter STEADY_STATE_OCEAN:           1
(PID.TID 0000.0001) SOLVE_FOR_PRESSURE: putPmEinXvector =    F
 cg2d: Sum(rhs),rhsMax =  -9.03700359256834E-01  2.85754380536764E-02
   Integer*4 Resource Parameter INTERPOLATE_OCEAN_ICE_CURRENTS:           0
 AGCM Date: 2000/04/14  Time: 21:15:00
 cg2d: Sum(rhs),rhsMax =  -6.93462471669801E-01  2.95605020110304E-02
 AGCM Date: 2000/04/14  Time: 21:30:00
 cg2d: Sum(rhs),rhsMax =  -1.07816645745763E+00  2.70661805798063E-02
 AGCM Date: 2000/04/14  Time: 21:45:00
      Real*4 Resource Parameter USE_RRTMG_SORAD:    0.00000    
      Real*4 Resource Parameter USE_RRTMG_IRRAD:    0.00000    
   Integer*4 Resource Parameter NUM_BANDS:          18
 cg2d: Sum(rhs),rhsMax =  -1.43027876911181E+00  2.54987793519042E-02
(PID.TID 0000.0001)      cg2d_init_res =   6.45860816366308E+00
(PID.TID 0000.0001)      cg2d_iters(min,last) =      -1      41
(PID.TID 0000.0001)      cg2d_last_res =   2.14280880922636E-05
(PID.TID 0000.0001) // =======================================================
(PID.TID 0000.0001) // Begin MONITOR dynamic field statistics
(PID.TID 0000.0001) // =======================================================
(PID.TID 0000.0001) %MON time_tsnumber                =                     4
(PID.TID 0000.0001) %MON time_secondsf                =   3.6000000000000E+03
(PID.TID 0000.0001) %MON dynstat_eta_max              =   7.4211168483407E-01
(PID.TID 0000.0001) %MON dynstat_eta_min              =  -1.2573076651598E+00
(PID.TID 0000.0001) %MON dynstat_eta_mean             =   4.5244285474295E-05
(PID.TID 0000.0001) %MON dynstat_eta_sd               =   1.3346427654114E-01
(PID.TID 0000.0001) %MON dynstat_eta_del2             =   1.2379016378406E-04
(PID.TID 0000.0001) %MON dynstat_uvel_max             =   4.0661686666664E-01
(PID.TID 0000.0001) %MON dynstat_uvel_min             =  -4.5753442624782E-01
(PID.TID 0000.0001) %MON dynstat_uvel_mean            =  -7.7578227073969E-04
(PID.TID 0000.0001) %MON dynstat_uvel_sd              =   8.9122736610991E-03
(PID.TID 0000.0001) %MON dynstat_uvel_del2            =   4.1495483025977E-06
(PID.TID 0000.0001) %MON dynstat_vvel_max             =   2.7936752245525E-01
(PID.TID 0000.0001) %MON dynstat_vvel_min             =  -2.4604943791016E-01
(PID.TID 0000.0001) %MON dynstat_vvel_mean            =   1.3813650828014E-03
(PID.TID 0000.0001) %MON dynstat_vvel_sd              =   8.7638947914996E-03
(PID.TID 0000.0001) %MON dynstat_vvel_del2            =   3.5911929346851E-06
(PID.TID 0000.0001) %MON dynstat_wvel_max             =   9.7659786589671E-04
(PID.TID 0000.0001) %MON dynstat_wvel_min             =  -1.1049857671301E-03
(PID.TID 0000.0001) %MON dynstat_wvel_mean            =   2.6377043698906E-21
(PID.TID 0000.0001) %MON dynstat_wvel_sd              =   5.0771101127277E-05
(PID.TID 0000.0001) %MON dynstat_wvel_del2            =   3.3664776959875E-08
(PID.TID 0000.0001) %MON dynstat_theta_max            =   3.2662086657139E+01
(PID.TID 0000.0001) %MON dynstat_theta_min            =  -2.0421363429163E+00
(PID.TID 0000.0001) %MON dynstat_theta_mean           =   3.5900936074534E+00
(PID.TID 0000.0001) %MON dynstat_theta_sd             =   4.4349866369140E+00
(PID.TID 0000.0001) %MON dynstat_theta_del2           =   1.2546285564842E-04
(PID.TID 0000.0001) %MON dynstat_salt_max             =   3.4515514884726E+01
(PID.TID 0000.0001) %MON dynstat_salt_min             =   3.2804139031747E+01
(PID.TID 0000.0001) %MON dynstat_salt_mean            =   3.4499999619716E+01
(PID.TID 0000.0001) %MON dynstat_salt_sd              =   3.7155467028381E-04
(PID.TID 0000.0001) %MON dynstat_salt_del2            =   1.0443160127169E-06
(PID.TID 0000.0001) %MON dynstat_sst_max              =   3.2647533079009E+01
(PID.TID 0000.0001) %MON dynstat_sst_min              =  -1.9569960535756E+00
(PID.TID 0000.0001) %MON dynstat_sst_mean             =   1.8557202219356E+01
(PID.TID 0000.0001) %MON dynstat_sst_sd               =   1.0009043572118E+01
(PID.TID 0000.0001) %MON dynstat_sst_del2             =   1.1580596454520E-03
(PID.TID 0000.0001) %MON dynstat_sss_max              =   3.4515514884726E+01
(PID.TID 0000.0001) %MON dynstat_sss_min              =   3.2804139031747E+01
(PID.TID 0000.0001) %MON dynstat_sss_mean             =   3.4499593503529E+01
(PID.TID 0000.0001) %MON dynstat_sss_sd               =   6.7206913600474E-03
(PID.TID 0000.0001) %MON dynstat_sss_del2             =   3.9279643210198E-05
(PID.TID 0000.0001) %MON forcing_qnet_max             =   1.1357199218750E+04
(PID.TID 0000.0001) %MON forcing_qnet_min             =  -1.2895169677734E+03
(PID.TID 0000.0001) %MON forcing_qnet_mean            =   1.7033323299514E+02
(PID.TID 0000.0001) %MON forcing_qnet_sd              =   4.2452889701309E+02
(PID.TID 0000.0001) %MON forcing_qnet_del2            =   4.0727238670855E+00
(PID.TID 0000.0001) %MON forcing_qsw_max              =   0.0000000000000E+00
(PID.TID 0000.0001) %MON forcing_qsw_min              =   0.0000000000000E+00
(PID.TID 0000.0001) %MON forcing_qsw_mean             =   0.0000000000000E+00
(PID.TID 0000.0001) %MON forcing_qsw_sd               =   0.0000000000000E+00
(PID.TID 0000.0001) %MON forcing_qsw_del2             =   0.0000000000000E+00
(PID.TID 0000.0001) %MON forcing_empmr_max            =   3.1700304243714E-03
(PID.TID 0000.0001) %MON forcing_empmr_min            =  -1.2432494759560E-01
(PID.TID 0000.0001) %MON forcing_empmr_mean           =  -1.2734946291584E-05
(PID.TID 0000.0001) %MON forcing_empmr_sd             =   5.4686912838634E-04
(PID.TID 0000.0001) %MON forcing_empmr_del2           =   3.1433376520357E-06
(PID.TID 0000.0001) %MON forcing_fu_max               =   1.2674515843391E+00
(PID.TID 0000.0001) %MON forcing_fu_min               =  -1.2944539189339E+00
(PID.TID 0000.0001) %MON forcing_fu_mean              =   1.3051838069009E-02
(PID.TID 0000.0001) %MON forcing_fu_sd                =   1.1684011122318E-01
(PID.TID 0000.0001) %MON forcing_fu_del2              =   1.7076296647865E-04
(PID.TID 0000.0001) %MON forcing_fv_max               =   8.7946981191635E-01
(PID.TID 0000.0001) %MON forcing_fv_min               =  -7.2893140689881E-01
(PID.TID 0000.0001) %MON forcing_fv_mean              =  -5.5606972647517E-03
(PID.TID 0000.0001) %MON forcing_fv_sd                =   1.1520446310689E-01
(PID.TID 0000.0001) %MON forcing_fv_del2              =   1.3763757106621E-04
(PID.TID 0000.0001) %MON trAdv_CFL_u_max              =   9.1314557574122E-03
(PID.TID 0000.0001) %MON trAdv_CFL_v_max              =   5.1051651751326E-03
(PID.TID 0000.0001) %MON trAdv_CFL_w_max              =   6.8819101647842E-02
(PID.TID 0000.0001) %MON advcfl_uvel_max              =   9.1316885805604E-03
(PID.TID 0000.0001) %MON advcfl_vvel_max              =   5.0299539916309E-03
(PID.TID 0000.0001) %MON advcfl_wvel_max              =   6.8359164126765E-02
(PID.TID 0000.0001) %MON advcfl_W_hf_max              =   6.8819101647842E-02
(PID.TID 0000.0001) %MON pe_b_mean                    =   2.3430869292896E-05
(PID.TID 0000.0001) %MON ke_max                       =   1.0424798540181E-01
(PID.TID 0000.0001) %MON ke_mean                      =   7.6544539893870E-05
(PID.TID 0000.0001) %MON ke_vol                       =   1.3349978769393E+18
(PID.TID 0000.0001) %MON vort_r_min                   =  -6.0292370638486E-06
(PID.TID 0000.0001) %MON vort_r_max                   =   9.8393920164573E-06
(PID.TID 0000.0001) %MON vort_a_mean                  =  -1.9727864647440E-05
(PID.TID 0000.0001) %MON vort_a_sd                    =   7.4542071334572E-05
(PID.TID 0000.0001) %MON vort_p_mean                  =  -2.1760527755546E-05
(PID.TID 0000.0001) %MON vort_p_sd                    =   9.7244995898831E-05
(PID.TID 0000.0001) %MON surfExpan_theta_mean         =   1.5910222370967E-04
(PID.TID 0000.0001) %MON surfExpan_salt_mean          =   7.5641274900646E-09
(PID.TID 0000.0001) // =======================================================
(PID.TID 0000.0001) // End MONITOR dynamic field statistics
(PID.TID 0000.0001) // =======================================================
 AGCM Date: 2000/04/14  Time: 22:00:00
 cg2d: Sum(rhs),rhsMax =  -1.68074828619477E+00  2.52838034471004E-02
 AGCM Date: 2000/04/14  Time: 22:15:00
 cg2d: Sum(rhs),rhsMax =  -1.87945758083730E+00  2.67228102398173E-02
 AGCM Date: 2000/04/14  Time: 22:30:00
 cg2d: Sum(rhs),rhsMax =  -2.02657395242339E+00  2.99673450263492E-02
 AGCM Date: 2000/04/14  Time: 22:45:00
 cg2d: Sum(rhs),rhsMax =  -2.14817051185082E+00  3.50586929052748E-02
(PID.TID 0000.0001)      cg2d_init_res =   5.73270348167819E+00
(PID.TID 0000.0001)      cg2d_iters(min,last) =      -1      41
(PID.TID 0000.0001)      cg2d_last_res =   2.71071503748586E-05
(PID.TID 0000.0001) // =======================================================
(PID.TID 0000.0001) // Begin MONITOR dynamic field statistics
(PID.TID 0000.0001) // =======================================================
(PID.TID 0000.0001) %MON time_tsnumber                =                     8
(PID.TID 0000.0001) %MON time_secondsf                =   7.2000000000000E+03
(PID.TID 0000.0001) %MON dynstat_eta_max              =   1.2406789563068E+00
(PID.TID 0000.0001) %MON dynstat_eta_min              =  -1.4669484880017E+00
(PID.TID 0000.0001) %MON dynstat_eta_mean             =   6.7953494091197E-05
(PID.TID 0000.0001) %MON dynstat_eta_sd               =   2.5473372632960E-01
(PID.TID 0000.0001) %MON dynstat_eta_del2             =   1.0454465230508E-04
(PID.TID 0000.0001) %MON dynstat_uvel_max             =   7.9991196626893E-01
(PID.TID 0000.0001) %MON dynstat_uvel_min             =  -8.4958526137674E-01
(PID.TID 0000.0001) %MON dynstat_uvel_mean            =  -2.3170663791767E-03
(PID.TID 0000.0001) %MON dynstat_uvel_sd              =   1.4535531560711E-02
(PID.TID 0000.0001) %MON dynstat_uvel_del2            =   6.3700120663708E-06
(PID.TID 0000.0001) %MON dynstat_vvel_max             =   5.8159255201365E-01
(PID.TID 0000.0001) %MON dynstat_vvel_min             =  -4.3785040959936E-01
(PID.TID 0000.0001) %MON dynstat_vvel_mean            =   1.2516490969713E-03
(PID.TID 0000.0001) %MON dynstat_vvel_sd              =   1.5125009321661E-02
(PID.TID 0000.0001) %MON dynstat_vvel_del2            =   5.6443081273016E-06
(PID.TID 0000.0001) %MON dynstat_wvel_max             =   1.5705223165668E-03
(PID.TID 0000.0001) %MON dynstat_wvel_min             =  -1.7612612666195E-03
(PID.TID 0000.0001) %MON dynstat_wvel_mean            =  -5.8945205733254E-21
(PID.TID 0000.0001) %MON dynstat_wvel_sd              =   7.4243879114085E-05
(PID.TID 0000.0001) %MON dynstat_wvel_del2            =   5.8451389232578E-08
(PID.TID 0000.0001) %MON dynstat_theta_max            =   3.2646831338174E+01
(PID.TID 0000.0001) %MON dynstat_theta_min            =  -2.0421343740439E+00
(PID.TID 0000.0001) %MON dynstat_theta_mean           =   3.5898828282586E+00
(PID.TID 0000.0001) %MON dynstat_theta_sd             =   4.4343561735014E+00
(PID.TID 0000.0001) %MON dynstat_theta_del2           =   1.1889527849270E-04
(PID.TID 0000.0001) %MON dynstat_salt_max             =   3.4530027363045E+01
(PID.TID 0000.0001) %MON dynstat_salt_min             =   3.1964928956413E+01
(PID.TID 0000.0001) %MON dynstat_salt_mean            =   3.4499999466357E+01
(PID.TID 0000.0001) %MON dynstat_salt_sd              =   5.5403012838983E-04
(PID.TID 0000.0001) %MON dynstat_salt_del2            =   1.5217832507538E-06
(PID.TID 0000.0001) %MON dynstat_sst_max              =   3.2646812592779E+01
(PID.TID 0000.0001) %MON dynstat_sst_min              =  -1.9539063467855E+00
(PID.TID 0000.0001) %MON dynstat_sst_mean             =   1.8583987746780E+01
(PID.TID 0000.0001) %MON dynstat_sst_sd               =   9.9694691631120E+00
(PID.TID 0000.0001) %MON dynstat_sst_del2             =   1.1249082743452E-03
(PID.TID 0000.0001) %MON dynstat_sss_max              =   3.4530027363045E+01
(PID.TID 0000.0001) %MON dynstat_sss_min              =   3.1964928956413E+01
(PID.TID 0000.0001) %MON dynstat_sss_mean             =   3.4499467260430E+01
(PID.TID 0000.0001) %MON dynstat_sss_sd               =   1.0204047632842E-02
(PID.TID 0000.0001) %MON dynstat_sss_del2             =   5.8494926541147E-05
(PID.TID 0000.0001) %MON forcing_qnet_max             =   1.4196372070312E+04
(PID.TID 0000.0001) %MON forcing_qnet_min             =  -1.1411750445508E+03
(PID.TID 0000.0001) %MON forcing_qnet_mean            =   3.7552749515022E+01
(PID.TID 0000.0001) %MON forcing_qnet_sd              =   5.6148762145533E+02
(PID.TID 0000.0001) %MON forcing_qnet_del2            =   6.5140360082049E+00
(PID.TID 0000.0001) %MON forcing_qsw_max              =   0.0000000000000E+00
(PID.TID 0000.0001) %MON forcing_qsw_min              =  -4.3857580670105E+02
(PID.TID 0000.0001) %MON forcing_qsw_mean             =  -8.9699796594534E+01
(PID.TID 0000.0001) %MON forcing_qsw_sd               =   1.2223464647552E+02
(PID.TID 0000.0001) %MON forcing_qsw_del2             =   2.0212052635260E-01
(PID.TID 0000.0001) %MON forcing_empmr_max            =   3.1689454335719E-03
(PID.TID 0000.0001) %MON forcing_empmr_min            =  -7.8872017562389E-02
(PID.TID 0000.0001) %MON forcing_empmr_mean           =  -4.3978174073216E-06
(PID.TID 0000.0001) %MON forcing_empmr_sd             =   3.9508584074813E-04
(PID.TID 0000.0001) %MON forcing_empmr_del2           =   2.2405861174237E-06
(PID.TID 0000.0001) %MON forcing_fu_max               =   1.3440774679184E+00
(PID.TID 0000.0001) %MON forcing_fu_min               =  -1.2983303070068E+00
(PID.TID 0000.0001) %MON forcing_fu_mean              =   1.3355378453817E-02
(PID.TID 0000.0001) %MON forcing_fu_sd                =   1.1919774795721E-01
(PID.TID 0000.0001) %MON forcing_fu_del2              =   1.7379149685683E-04
(PID.TID 0000.0001) %MON forcing_fv_max               =   8.8013079762459E-01
(PID.TID 0000.0001) %MON forcing_fv_min               =  -8.3179727196693E-01
(PID.TID 0000.0001) %MON forcing_fv_mean              =  -5.2956300383281E-03
(PID.TID 0000.0001) %MON forcing_fv_sd                =   1.1474335875595E-01
(PID.TID 0000.0001) %MON forcing_fv_del2              =   1.3860735897319E-04
(PID.TID 0000.0001) %MON trAdv_CFL_u_max              =   1.6955992339272E-02
(PID.TID 0000.0001) %MON trAdv_CFL_v_max              =   8.7386028464859E-03
(PID.TID 0000.0001) %MON trAdv_CFL_w_max              =   6.6376378505077E-02
(PID.TID 0000.0001) %MON advcfl_uvel_max              =   1.6956424663276E-02
(PID.TID 0000.0001) %MON advcfl_vvel_max              =   8.7388256619767E-03
(PID.TID 0000.0001) %MON advcfl_wvel_max              =   6.5694095612954E-02
(PID.TID 0000.0001) %MON advcfl_W_hf_max              =   6.6376378505077E-02
(PID.TID 0000.0001) %MON pe_b_mean                    =   8.5355440178791E-05
(PID.TID 0000.0001) %MON ke_max                       =   3.8119501404228E-01
(PID.TID 0000.0001) %MON ke_mean                      =   2.1553053451834E-04
(PID.TID 0000.0001) %MON ke_vol                       =   1.3349978769393E+18
(PID.TID 0000.0001) %MON vort_r_min                   =  -1.0643099429175E-05
(PID.TID 0000.0001) %MON vort_r_max                   =   1.8243274376463E-05
(PID.TID 0000.0001) %MON vort_a_mean                  =  -1.9727864647440E-05
(PID.TID 0000.0001) %MON vort_a_sd                    =   7.4541390049203E-05
(PID.TID 0000.0001) %MON vort_p_mean                  =  -2.1760527755546E-05
(PID.TID 0000.0001) %MON vort_p_sd                    =   9.7241988172123E-05
(PID.TID 0000.0001) %MON surfExpan_theta_mean         =   2.3145173271718E-04
(PID.TID 0000.0001) %MON surfExpan_salt_mean          =   1.3630833949914E-08
(PID.TID 0000.0001) // =======================================================
(PID.TID 0000.0001) // End MONITOR dynamic field statistics
(PID.TID 0000.0001) // =======================================================
 AGCM Date: 2000/04/14  Time: 23:00:00
 cg2d: Sum(rhs),rhsMax =  -2.19109794275876E+00  4.18363931970715E-02
 AGCM Date: 2000/04/14  Time: 23:15:00
 cg2d: Sum(rhs),rhsMax =  -2.22354172852442E+00  5.12253833225476E-02
 AGCM Date: 2000/04/14  Time: 23:30:00
 cg2d: Sum(rhs),rhsMax =  -2.24908762363524E+00  6.43761562439313E-02
 AGCM Date: 2000/04/14  Time: 23:45:00
 cg2d: Sum(rhs),rhsMax =  -2.27407389021701E+00  7.97079152049934E-02
(PID.TID 0000.0001)      cg2d_init_res =   5.09336502317751E+00
(PID.TID 0000.0001)      cg2d_iters(min,last) =      -1      42
(PID.TID 0000.0001)      cg2d_last_res =   2.23752493850737E-05
(PID.TID 0000.0001) // =======================================================
(PID.TID 0000.0001) // Begin MONITOR dynamic field statistics
(PID.TID 0000.0001) // =======================================================
(PID.TID 0000.0001) %MON time_tsnumber                =                    12
(PID.TID 0000.0001) %MON time_secondsf                =   1.0800000000000E+04
(PID.TID 0000.0001) %MON dynstat_eta_max              =   1.5289211961254E+00
(PID.TID 0000.0001) %MON dynstat_eta_min              =  -1.5704990454643E+00
(PID.TID 0000.0001) %MON dynstat_eta_mean             =   7.1936220057676E-05
(PID.TID 0000.0001) %MON dynstat_eta_sd               =   3.6057342291461E-01
(PID.TID 0000.0001) %MON dynstat_eta_del2             =   1.1385529266923E-04
(PID.TID 0000.0001) %MON dynstat_uvel_max             =   1.0953277978450E+00
(PID.TID 0000.0001) %MON dynstat_uvel_min             =  -1.0916649452834E+00
(PID.TID 0000.0001) %MON dynstat_uvel_mean            =  -3.9980728698456E-03
(PID.TID 0000.0001) %MON dynstat_uvel_sd              =   1.8869267235126E-02
(PID.TID 0000.0001) %MON dynstat_uvel_del2            =   8.0829767027401E-06
(PID.TID 0000.0001) %MON dynstat_vvel_max             =   8.4614038578280E-01
(PID.TID 0000.0001) %MON dynstat_vvel_min             =  -6.7194233797386E-01
(PID.TID 0000.0001) %MON dynstat_vvel_mean            =   7.3239465219869E-05
(PID.TID 0000.0001) %MON dynstat_vvel_sd              =   1.9592473644474E-02
(PID.TID 0000.0001) %MON dynstat_vvel_del2            =   7.3764592166876E-06
(PID.TID 0000.0001) %MON dynstat_wvel_max             =   2.1491872592927E-03
(PID.TID 0000.0001) %MON dynstat_wvel_min             =  -1.9802164972597E-03
(PID.TID 0000.0001) %MON dynstat_wvel_mean            =   1.0743750004434E-20
(PID.TID 0000.0001) %MON dynstat_wvel_sd              =   9.2809693881242E-05
(PID.TID 0000.0001) %MON dynstat_wvel_del2            =   7.7508457054239E-08
(PID.TID 0000.0001) %MON dynstat_theta_max            =   3.2642356650497E+01
(PID.TID 0000.0001) %MON dynstat_theta_min            =  -2.0421310158169E+00
(PID.TID 0000.0001) %MON dynstat_theta_mean           =   3.5896477391314E+00
(PID.TID 0000.0001) %MON dynstat_theta_sd             =   4.4337601720010E+00
(PID.TID 0000.0001) %MON dynstat_theta_del2           =   1.1985029445212E-04
(PID.TID 0000.0001) %MON dynstat_salt_max             =   3.4540336188038E+01
(PID.TID 0000.0001) %MON dynstat_salt_min             =   3.1325509317643E+01
(PID.TID 0000.0001) %MON dynstat_salt_mean            =   3.4499999443971E+01
(PID.TID 0000.0001) %MON dynstat_salt_sd              =   7.0176493641838E-04
(PID.TID 0000.0001) %MON dynstat_salt_del2            =   1.9005414480738E-06
(PID.TID 0000.0001) %MON dynstat_sst_max              =   3.2642347189146E+01
(PID.TID 0000.0001) %MON dynstat_sst_min              =  -1.9508572303300E+00
(PID.TID 0000.0001) %MON dynstat_sst_mean             =   1.8597965196230E+01
(PID.TID 0000.0001) %MON dynstat_sst_sd               =   9.9552004084324E+00
(PID.TID 0000.0001) %MON dynstat_sst_del2             =   1.1024096671619E-03
(PID.TID 0000.0001) %MON dynstat_sss_max              =   3.4540336188038E+01
(PID.TID 0000.0001) %MON dynstat_sss_min              =   3.1325509317643E+01
(PID.TID 0000.0001) %MON dynstat_sss_mean             =   3.4499380526406E+01
(PID.TID 0000.0001) %MON dynstat_sss_sd               =   1.2967287906201E-02
(PID.TID 0000.0001) %MON dynstat_sss_del2             =   7.3460131550688E-05
(PID.TID 0000.0001) %MON forcing_qnet_max             =   8.9874882812500E+03
(PID.TID 0000.0001) %MON forcing_qnet_min             =  -1.0090120678402E+03
(PID.TID 0000.0001) %MON forcing_qnet_mean            =   2.5615542677022E-01
(PID.TID 0000.0001) %MON forcing_qnet_sd              =   2.5755421767738E+02
(PID.TID 0000.0001) %MON forcing_qnet_del2            =   1.4033696764340E+00
(PID.TID 0000.0001) %MON forcing_qsw_max              =   0.0000000000000E+00
(PID.TID 0000.0001) %MON forcing_qsw_min              =  -4.4231246792473E+02
(PID.TID 0000.0001) %MON forcing_qsw_mean             =  -8.8972602666761E+01
(PID.TID 0000.0001) %MON forcing_qsw_sd               =   1.2316023183875E+02
(PID.TID 0000.0001) %MON forcing_qsw_del2             =   2.0026273319307E-01
(PID.TID 0000.0001) %MON forcing_empmr_max            =   3.1564671080559E-03
(PID.TID 0000.0001) %MON forcing_empmr_min            =  -6.6667914390564E-02
(PID.TID 0000.0001) %MON forcing_empmr_mean           =  -9.0368542198708E-07
(PID.TID 0000.0001) %MON forcing_empmr_sd             =   3.3648021838886E-04
(PID.TID 0000.0001) %MON forcing_empmr_del2           =   1.9168084350771E-06
(PID.TID 0000.0001) %MON forcing_fu_max               =   1.2687277793884E+00
(PID.TID 0000.0001) %MON forcing_fu_min               =  -1.2379606366158E+00
(PID.TID 0000.0001) %MON forcing_fu_mean              =   1.3179354625399E-02
(PID.TID 0000.0001) %MON forcing_fu_sd                =   1.1749630816821E-01
(PID.TID 0000.0001) %MON forcing_fu_del2              =   1.6996899807053E-04
(PID.TID 0000.0001) %MON forcing_fv_max               =   8.0590236186981E-01
(PID.TID 0000.0001) %MON forcing_fv_min               =  -8.0850312113762E-01
(PID.TID 0000.0001) %MON forcing_fv_mean              =  -4.9722096938873E-03
(PID.TID 0000.0001) %MON forcing_fv_sd                =   1.1165731688505E-01
(PID.TID 0000.0001) %MON forcing_fv_del2              =   1.3479368414350E-04
(PID.TID 0000.0001) %MON trAdv_CFL_u_max              =   2.1787410034964E-02
(PID.TID 0000.0001) %MON trAdv_CFL_v_max              =   1.3530510593872E-02
(PID.TID 0000.0001) %MON trAdv_CFL_w_max              =   4.9728989657190E-02
(PID.TID 0000.0001) %MON advcfl_uvel_max              =   2.1787965544789E-02
(PID.TID 0000.0001) %MON advcfl_vvel_max              =   1.3410943138840E-02
(PID.TID 0000.0001) %MON advcfl_wvel_max              =   4.8598785346799E-02
(PID.TID 0000.0001) %MON advcfl_W_hf_max              =   4.9728989657190E-02
(PID.TID 0000.0001) %MON pe_b_mean                    =   1.7101953479823E-04
(PID.TID 0000.0001) %MON ke_max                       =   7.5756994635245E-01
(PID.TID 0000.0001) %MON ke_mean                      =   3.6448827740685E-04
(PID.TID 0000.0001) %MON ke_vol                       =   1.3349978769393E+18
(PID.TID 0000.0001) %MON vort_r_min                   =  -1.3797484143532E-05
(PID.TID 0000.0001) %MON vort_r_max                   =   2.6545265642924E-05
(PID.TID 0000.0001) %MON vort_a_mean                  =  -1.9727864647440E-05
(PID.TID 0000.0001) %MON vort_a_sd                    =   7.4540649426036E-05
(PID.TID 0000.0001) %MON vort_p_mean                  =  -2.1760527755546E-05
(PID.TID 0000.0001) %MON vort_p_sd                    =   9.7237305078357E-05
(PID.TID 0000.0001) %MON surfExpan_theta_mean         =   2.4120145477161E-04
(PID.TID 0000.0001) %MON surfExpan_salt_mean          =   1.6600160795416E-08
(PID.TID 0000.0001) // =======================================================
(PID.TID 0000.0001) // End MONITOR dynamic field statistics
(PID.TID 0000.0001) // =======================================================
 AGCM Date: 2000/04/15  Time: 00:00:00
 Writing:    483 Slices (  4 Nodes,  2 PartitionRoot) to File:  TEST.geosgcm_prog.20000415_0000z.nc4
 Writing:    148 Slices (  1 Nodes,  1 PartitionRoot) to File:  TEST.geosgcm_surf.20000414_2230z.nc4
 Writing:    111 Slices (  1 Nodes,  1 PartitionRoot) to File:  TEST.mit_ocn.20000414_2230z.nc4
 cg2d: Sum(rhs),rhsMax =  -2.30538424294213E+00  9.70109608341567E-02
 AGCM Date: 2000/04/15  Time: 00:15:00
 cg2d: Sum(rhs),rhsMax =  -2.33837651619791E+00  1.15760844807481E-01
 AGCM Date: 2000/04/15  Time: 00:30:00
 cg2d: Sum(rhs),rhsMax =  -2.38102964534661E+00  1.35192501248317E-01
 AGCM Date: 2000/04/15  Time: 00:45:00
 cg2d: Sum(rhs),rhsMax =  -2.43514397339147E+00  1.54385659669131E-01
(PID.TID 0000.0001)      cg2d_init_res =   4.68314275807912E+00
(PID.TID 0000.0001)      cg2d_iters(min,last) =      -1      41
(PID.TID 0000.0001)      cg2d_last_res =   2.83052126366050E-05
(PID.TID 0000.0001) // =======================================================
(PID.TID 0000.0001) // Begin MONITOR dynamic field statistics
(PID.TID 0000.0001) // =======================================================
(PID.TID 0000.0001) %MON time_tsnumber                =                    16
(PID.TID 0000.0001) %MON time_secondsf                =   1.4400000000000E+04
(PID.TID 0000.0001) %MON dynstat_eta_max              =   1.8182272933808E+00
(PID.TID 0000.0001) %MON dynstat_eta_min              =  -1.8030135076594E+00
(PID.TID 0000.0001) %MON dynstat_eta_mean             =   7.7031381212222E-05
(PID.TID 0000.0001) %MON dynstat_eta_sd               =   4.4736456032718E-01
(PID.TID 0000.0001) %MON dynstat_eta_del2             =   1.1507436535514E-04
(PID.TID 0000.0001) %MON dynstat_uvel_max             =   1.2259257718631E+00
(PID.TID 0000.0001) %MON dynstat_uvel_min             =  -1.1424019670051E+00
(PID.TID 0000.0001) %MON dynstat_uvel_mean            =  -5.2428767874900E-03
(PID.TID 0000.0001) %MON dynstat_uvel_sd              =   2.2276443046855E-02
(PID.TID 0000.0001) %MON dynstat_uvel_del2            =   9.6855525903167E-06
(PID.TID 0000.0001) %MON dynstat_vvel_max             =   1.1712675239759E+00
(PID.TID 0000.0001) %MON dynstat_vvel_min             =  -1.0066855237977E+00
(PID.TID 0000.0001) %MON dynstat_vvel_mean            =  -1.6078754155435E-03
(PID.TID 0000.0001) %MON dynstat_vvel_sd              =   2.2599012594401E-02
(PID.TID 0000.0001) %MON dynstat_vvel_del2            =   9.0589077463471E-06
(PID.TID 0000.0001) %MON dynstat_wvel_max             =   2.5576616739758E-03
(PID.TID 0000.0001) %MON dynstat_wvel_min             =  -2.2519459688213E-03
(PID.TID 0000.0001) %MON dynstat_wvel_mean            =  -9.5602385458917E-22
(PID.TID 0000.0001) %MON dynstat_wvel_sd              =   1.0248157420108E-04
(PID.TID 0000.0001) %MON dynstat_wvel_del2            =   8.9346773444000E-08
(PID.TID 0000.0001) %MON dynstat_theta_max            =   3.2641362068454E+01
(PID.TID 0000.0001) %MON dynstat_theta_min            =  -2.0421250922236E+00
(PID.TID 0000.0001) %MON dynstat_theta_mean           =   3.5894304234274E+00
(PID.TID 0000.0001) %MON dynstat_theta_sd             =   4.4331871039005E+00
(PID.TID 0000.0001) %MON dynstat_theta_del2           =   1.2072896042961E-04
(PID.TID 0000.0001) %MON dynstat_salt_max             =   3.4547384227158E+01
(PID.TID 0000.0001) %MON dynstat_salt_min             =   3.0744303766953E+01
(PID.TID 0000.0001) %MON dynstat_salt_mean            =   3.4499999421211E+01
(PID.TID 0000.0001) %MON dynstat_salt_sd              =   8.3685941660805E-04
(PID.TID 0000.0001) %MON dynstat_salt_del2            =   2.2519895859785E-06
(PID.TID 0000.0001) %MON dynstat_sst_max              =   3.2641011609757E+01
(PID.TID 0000.0001) %MON dynstat_sst_min              =  -1.9478641545615E+00
(PID.TID 0000.0001) %MON dynstat_sst_mean             =   1.8605903760353E+01
(PID.TID 0000.0001) %MON dynstat_sst_sd               =   9.9509867812577E+00
(PID.TID 0000.0001) %MON dynstat_sst_del2             =   1.1171607425535E-03
(PID.TID 0000.0001) %MON dynstat_sss_max              =   3.4547384227158E+01
(PID.TID 0000.0001) %MON dynstat_sss_min              =   3.0744303766953E+01
(PID.TID 0000.0001) %MON dynstat_sss_mean             =   3.4499281975711E+01
(PID.TID 0000.0001) %MON dynstat_sss_sd               =   1.5504736122328E-02
(PID.TID 0000.0001) %MON dynstat_sss_del2             =   8.7318561588864E-05
(PID.TID 0000.0001) %MON forcing_qnet_max             =   1.0633205566406E+03
(PID.TID 0000.0001) %MON forcing_qnet_min             =  -8.9276604274392E+02
(PID.TID 0000.0001) %MON forcing_qnet_mean            =   1.6723774780178E-01
(PID.TID 0000.0001) %MON forcing_qnet_sd              =   2.2563963907147E+02
(PID.TID 0000.0001) %MON forcing_qnet_del2            =   5.0562639139095E-01
(PID.TID 0000.0001) %MON forcing_qsw_max              =   0.0000000000000E+00
(PID.TID 0000.0001) %MON forcing_qsw_min              =  -4.4620115918616E+02
(PID.TID 0000.0001) %MON forcing_qsw_mean             =  -8.5094305673877E+01
(PID.TID 0000.0001) %MON forcing_qsw_sd               =   1.2025492199432E+02
(PID.TID 0000.0001) %MON forcing_qsw_del2             =   1.9628185853153E-01
(PID.TID 0000.0001) %MON forcing_empmr_max            =   3.0326317064464E-03
(PID.TID 0000.0001) %MON forcing_empmr_min            =  -6.3181810081005E-02
(PID.TID 0000.0001) %MON forcing_empmr_mean           =  -1.9571683194033E-06
(PID.TID 0000.0001) %MON forcing_empmr_sd             =   3.0856620813217E-04
(PID.TID 0000.0001) %MON forcing_empmr_del2           =   1.7884352481773E-06
(PID.TID 0000.0001) %MON forcing_fu_max               =   1.2095517516136E+00
(PID.TID 0000.0001) %MON forcing_fu_min               =  -1.1748656630516E+00
(PID.TID 0000.0001) %MON forcing_fu_mean              =   1.3059529999569E-02
(PID.TID 0000.0001) %MON forcing_fu_sd                =   1.1481368177575E-01
(PID.TID 0000.0001) %MON forcing_fu_del2              =   1.6525393432010E-04
(PID.TID 0000.0001) %MON forcing_fv_max               =   7.6978695392609E-01
(PID.TID 0000.0001) %MON forcing_fv_min               =  -7.2361674904823E-01
(PID.TID 0000.0001) %MON forcing_fv_mean              =  -4.9703167320881E-03
(PID.TID 0000.0001) %MON forcing_fv_sd                =   1.0915498187996E-01
(PID.TID 0000.0001) %MON forcing_fv_del2              =   1.3173413165978E-04
(PID.TID 0000.0001) %MON trAdv_CFL_u_max              =   2.2800017704542E-02
(PID.TID 0000.0001) %MON trAdv_CFL_v_max              =   1.9870219940423E-02
(PID.TID 0000.0001) %MON trAdv_CFL_w_max              =   6.3321750220666E-02
(PID.TID 0000.0001) %MON advcfl_uvel_max              =   2.2800599032650E-02
(PID.TID 0000.0001) %MON advcfl_vvel_max              =   2.0168661723179E-02
(PID.TID 0000.0001) %MON advcfl_wvel_max              =   6.0741125399095E-02
(PID.TID 0000.0001) %MON advcfl_W_hf_max              =   6.3321750220666E-02
(PID.TID 0000.0001) %MON pe_b_mean                    =   2.6325791944944E-04
(PID.TID 0000.0001) %MON ke_max                       =   1.1891916941942E+00
(PID.TID 0000.0001) %MON ke_mean                      =   5.0004138444753E-04
(PID.TID 0000.0001) %MON ke_vol                       =   1.3349978769393E+18
(PID.TID 0000.0001) %MON vort_r_min                   =  -1.6509090832651E-05
(PID.TID 0000.0001) %MON vort_r_max                   =   3.2158412655150E-05
(PID.TID 0000.0001) %MON vort_a_mean                  =  -1.9727864647440E-05
(PID.TID 0000.0001) %MON vort_a_sd                    =   7.4540022810109E-05
(PID.TID 0000.0001) %MON vort_p_mean                  =  -2.1760527755546E-05
(PID.TID 0000.0001) %MON vort_p_sd                    =   9.7231938018023E-05
(PID.TID 0000.0001) %MON surfExpan_theta_mean         =   2.1258264272210E-04
(PID.TID 0000.0001) %MON surfExpan_salt_mean          =   1.6435859151692E-08
(PID.TID 0000.0001) // =======================================================
(PID.TID 0000.0001) // End MONITOR dynamic field statistics
(PID.TID 0000.0001) // =======================================================
 AGCM Date: 2000/04/15  Time: 01:00:00
 cg2d: Sum(rhs),rhsMax =  -2.49999821024833E+00  1.72387720133392E-01
 AGCM Date: 2000/04/15  Time: 01:15:00
 cg2d: Sum(rhs),rhsMax =  -2.57073544807768E+00  1.88308463844172E-01
 AGCM Date: 2000/04/15  Time: 01:30:00
 cg2d: Sum(rhs),rhsMax =  -2.65338894969187E+00  2.01488232430729E-01
 AGCM Date: 2000/04/15  Time: 01:45:00
 cg2d: Sum(rhs),rhsMax =  -2.74234158243405E+00  2.11453033188234E-01
(PID.TID 0000.0001)      cg2d_init_res =   4.21895531896817E+00
(PID.TID 0000.0001)      cg2d_iters(min,last) =      -1      40
(PID.TID 0000.0001)      cg2d_last_res =   2.67730461964315E-05
(PID.TID 0000.0001) // =======================================================
(PID.TID 0000.0001) // Begin MONITOR dynamic field statistics
(PID.TID 0000.0001) // =======================================================
(PID.TID 0000.0001) %MON time_tsnumber                =                    20
(PID.TID 0000.0001) %MON time_secondsf                =   1.8000000000000E+04
(PID.TID 0000.0001) %MON dynstat_eta_max              =   2.0471205821570E+00
(PID.TID 0000.0001) %MON dynstat_eta_min              =  -1.8672257466751E+00
(PID.TID 0000.0001) %MON dynstat_eta_mean             =   8.6749022710353E-05
(PID.TID 0000.0001) %MON dynstat_eta_sd               =   5.1221324526482E-01
(PID.TID 0000.0001) %MON dynstat_eta_del2             =   1.1461572751071E-04
(PID.TID 0000.0001) %MON dynstat_uvel_max             =   1.1524115936083E+00
(PID.TID 0000.0001) %MON dynstat_uvel_min             =  -1.0340723878974E+00
(PID.TID 0000.0001) %MON dynstat_uvel_mean            =  -5.7278304523028E-03
(PID.TID 0000.0001) %MON dynstat_uvel_sd              =   2.4777436193243E-02
(PID.TID 0000.0001) %MON dynstat_uvel_del2            =   1.0844677940831E-05
(PID.TID 0000.0001) %MON dynstat_vvel_max             =   1.5007538765326E+00
(PID.TID 0000.0001) %MON dynstat_vvel_min             =  -1.3977853187632E+00
(PID.TID 0000.0001) %MON dynstat_vvel_mean            =  -3.1643999848672E-03
(PID.TID 0000.0001) %MON dynstat_vvel_sd              =   2.4846370554666E-02
(PID.TID 0000.0001) %MON dynstat_vvel_del2            =   1.0417577232917E-05
(PID.TID 0000.0001) %MON dynstat_wvel_max             =   2.7137181343979E-03
(PID.TID 0000.0001) %MON dynstat_wvel_min             =  -2.3843433749448E-03
(PID.TID 0000.0001) %MON dynstat_wvel_mean            =  -2.0894304484636E-20
(PID.TID 0000.0001) %MON dynstat_wvel_sd              =   1.0399555605034E-04
(PID.TID 0000.0001) %MON dynstat_wvel_del2            =   9.4809689974812E-08
(PID.TID 0000.0001) %MON dynstat_theta_max            =   3.2644595150434E+01
(PID.TID 0000.0001) %MON dynstat_theta_min            =  -2.0421167905101E+00
(PID.TID 0000.0001) %MON dynstat_theta_mean           =   3.5892507244518E+00
(PID.TID 0000.0001) %MON dynstat_theta_sd             =   4.4326616038883E+00
(PID.TID 0000.0001) %MON dynstat_theta_del2           =   1.2106490628396E-04
(PID.TID 0000.0001) %MON dynstat_salt_max             =   3.4552200797680E+01
(PID.TID 0000.0001) %MON dynstat_salt_min             =   3.0183758721354E+01
(PID.TID 0000.0001) %MON dynstat_salt_mean            =   3.4499999373621E+01
(PID.TID 0000.0001) %MON dynstat_salt_sd              =   9.6620439190663E-04
(PID.TID 0000.0001) %MON dynstat_salt_del2            =   2.5922375155935E-06
(PID.TID 0000.0001) %MON dynstat_sst_max              =   3.2644595150434E+01
(PID.TID 0000.0001) %MON dynstat_sst_min              =  -1.9449258128613E+00
(PID.TID 0000.0001) %MON dynstat_sst_mean             =   1.8611309708059E+01
(PID.TID 0000.0001) %MON dynstat_sst_sd               =   9.9494722896135E+00
(PID.TID 0000.0001) %MON dynstat_sst_del2             =   1.1260781328239E-03
(PID.TID 0000.0001) %MON dynstat_sss_max              =   3.4552200797680E+01
(PID.TID 0000.0001) %MON dynstat_sss_min              =   3.0183758721354E+01
(PID.TID 0000.0001) %MON dynstat_sss_mean             =   3.4499171740430E+01
(PID.TID 0000.0001) %MON dynstat_sss_sd               =   1.7949423367388E-02
(PID.TID 0000.0001) %MON dynstat_sss_del2             =   1.0072842623960E-04
(PID.TID 0000.0001) %MON forcing_qnet_max             =   1.1267847900391E+03
(PID.TID 0000.0001) %MON forcing_qnet_min             =  -7.9028166112771E+02
(PID.TID 0000.0001) %MON forcing_qnet_mean            =   8.6496904677338E+00
(PID.TID 0000.0001) %MON forcing_qnet_sd              =   2.1480300742591E+02
(PID.TID 0000.0001) %MON forcing_qnet_del2            =   4.4450134375604E-01
(PID.TID 0000.0001) %MON forcing_qsw_max              =   0.0000000000000E+00
(PID.TID 0000.0001) %MON forcing_qsw_min              =  -4.5149511373291E+02
(PID.TID 0000.0001) %MON forcing_qsw_mean             =  -7.9398296127920E+01
(PID.TID 0000.0001) %MON forcing_qsw_sd               =   1.1468981639337E+02
(PID.TID 0000.0001) %MON forcing_qsw_del2             =   1.9032857117074E-01
(PID.TID 0000.0001) %MON forcing_empmr_max            =   2.6837051846087E-03
(PID.TID 0000.0001) %MON forcing_empmr_min            =  -6.3350118696690E-02
(PID.TID 0000.0001) %MON forcing_empmr_mean           =  -3.2171752109732E-06
(PID.TID 0000.0001) %MON forcing_empmr_sd             =   2.9745767843860E-04
(PID.TID 0000.0001) %MON forcing_empmr_del2           =   1.7775260578367E-06
(PID.TID 0000.0001) %MON forcing_fu_max               =   1.1529810428619E+00
(PID.TID 0000.0001) %MON forcing_fu_min               =  -1.0838845372200E+00
(PID.TID 0000.0001) %MON forcing_fu_mean              =   1.3044084829516E-02
(PID.TID 0000.0001) %MON forcing_fu_sd                =   1.1251677852538E-01
(PID.TID 0000.0001) %MON forcing_fu_del2              =   1.6155956354193E-04
(PID.TID 0000.0001) %MON forcing_fv_max               =   7.5362288951874E-01
(PID.TID 0000.0001) %MON forcing_fv_min               =  -6.8244072123232E-01
(PID.TID 0000.0001) %MON forcing_fv_mean              =  -5.2878480248586E-03
(PID.TID 0000.0001) %MON forcing_fv_sd                =   1.0741362011193E-01
(PID.TID 0000.0001) %MON forcing_fv_del2              =   1.2950156677749E-04
(PID.TID 0000.0001) %MON trAdv_CFL_u_max              =   1.9628405980969E-02
(PID.TID 0000.0001) %MON trAdv_CFL_v_max              =   2.7589849120451E-02
(PID.TID 0000.0001) %MON trAdv_CFL_w_max              =   6.6254049383341E-02
(PID.TID 0000.0001) %MON advcfl_uvel_max              =   1.9628906428798E-02
(PID.TID 0000.0001) %MON advcfl_vvel_max              =   2.8004236267758E-02
(PID.TID 0000.0001) %MON advcfl_wvel_max              =   6.3916645747613E-02
(PID.TID 0000.0001) %MON advcfl_W_hf_max              =   6.6254049383341E-02
(PID.TID 0000.0001) %MON pe_b_mean                    =   3.4511187233779E-04
(PID.TID 0000.0001) %MON ke_max                       =   1.5292341172425E+00
(PID.TID 0000.0001) %MON ke_mean                      =   6.1434697552819E-04
(PID.TID 0000.0001) %MON ke_vol                       =   1.3349978769393E+18
(PID.TID 0000.0001) %MON vort_r_min                   =  -1.7482198206126E-05
(PID.TID 0000.0001) %MON vort_r_max                   =   3.6952890060009E-05
(PID.TID 0000.0001) %MON vort_a_mean                  =  -1.9727864647440E-05
(PID.TID 0000.0001) %MON vort_a_sd                    =   7.4539638213285E-05
(PID.TID 0000.0001) %MON vort_p_mean                  =  -2.1760527755546E-05
(PID.TID 0000.0001) %MON vort_p_sd                    =   9.7227275430334E-05
(PID.TID 0000.0001) %MON surfExpan_theta_mean         =   1.6671510701189E-04
(PID.TID 0000.0001) %MON surfExpan_salt_mean          =   7.9896806633292E-09
(PID.TID 0000.0001) // =======================================================
(PID.TID 0000.0001) // End MONITOR dynamic field statistics
(PID.TID 0000.0001) // =======================================================
 AGCM Date: 2000/04/15  Time: 02:00:00
 cg2d: Sum(rhs),rhsMax =  -2.83928484951249E+00  2.17983251874541E-01
 AGCM Date: 2000/04/15  Time: 02:15:00
 cg2d: Sum(rhs),rhsMax =  -2.94761466533469E+00  2.21106327235305E-01
 AGCM Date: 2000/04/15  Time: 02:30:00
 cg2d: Sum(rhs),rhsMax =  -3.06332197960602E+00  2.21076189792752E-01
 AGCM Date: 2000/04/15  Time: 02:45:00
 cg2d: Sum(rhs),rhsMax =  -3.18583175947027E+00  2.18327189143175E-01
(PID.TID 0000.0001)      cg2d_init_res =   4.09289131514375E+00
(PID.TID 0000.0001)      cg2d_iters(min,last) =      -1      39
(PID.TID 0000.0001)      cg2d_last_res =   2.43089252688438E-05
(PID.TID 0000.0001) // =======================================================
(PID.TID 0000.0001) // Begin MONITOR dynamic field statistics
(PID.TID 0000.0001) // =======================================================
(PID.TID 0000.0001) %MON time_tsnumber                =                    24
(PID.TID 0000.0001) %MON time_secondsf                =   2.1600000000000E+04
(PID.TID 0000.0001) %MON dynstat_eta_max              =   2.4601938089957E+00
(PID.TID 0000.0001) %MON dynstat_eta_min              =  -1.7951864639629E+00
(PID.TID 0000.0001) %MON dynstat_eta_mean             =   1.0077803342358E-04
(PID.TID 0000.0001) %MON dynstat_eta_sd               =   5.5374433985889E-01
(PID.TID 0000.0001) %MON dynstat_eta_del2             =   1.1953344242144E-04
(PID.TID 0000.0001) %MON dynstat_uvel_max             =   1.2476180291345E+00
(PID.TID 0000.0001) %MON dynstat_uvel_min             =  -1.2582260052908E+00
(PID.TID 0000.0001) %MON dynstat_uvel_mean            =  -5.5186303753851E-03
(PID.TID 0000.0001) %MON dynstat_uvel_sd              =   2.6594131830291E-02
(PID.TID 0000.0001) %MON dynstat_uvel_del2            =   1.1834557593743E-05
(PID.TID 0000.0001) %MON dynstat_vvel_max             =   1.7881060806931E+00
(PID.TID 0000.0001) %MON dynstat_vvel_min             =  -1.6277529828402E+00
(PID.TID 0000.0001) %MON dynstat_vvel_mean            =  -4.0846384634368E-03
(PID.TID 0000.0001) %MON dynstat_vvel_sd              =   2.6747156911306E-02
(PID.TID 0000.0001) %MON dynstat_vvel_del2            =   1.1493393799066E-05
(PID.TID 0000.0001) %MON dynstat_wvel_max             =   2.6318955008934E-03
(PID.TID 0000.0001) %MON dynstat_wvel_min             =  -2.4343394799692E-03
(PID.TID 0000.0001) %MON dynstat_wvel_mean            =   5.6785513290658E-21
(PID.TID 0000.0001) %MON dynstat_wvel_sd              =   1.0139968277215E-04
(PID.TID 0000.0001) %MON dynstat_wvel_del2            =   9.7286965956665E-08
(PID.TID 0000.0001) %MON dynstat_theta_max            =   3.2652332374076E+01
(PID.TID 0000.0001) %MON dynstat_theta_min            =  -2.0421095500225E+00
(PID.TID 0000.0001) %MON dynstat_theta_mean           =   3.5891176100874E+00
(PID.TID 0000.0001) %MON dynstat_theta_sd             =   4.4322137194482E+00
(PID.TID 0000.0001) %MON dynstat_theta_del2           =   1.2109736587943E-04
(PID.TID 0000.0001) %MON dynstat_salt_max             =   3.4555527185582E+01
(PID.TID 0000.0001) %MON dynstat_salt_min             =   2.9621045960165E+01
(PID.TID 0000.0001) %MON dynstat_salt_mean            =   3.4499999308664E+01
(PID.TID 0000.0001) %MON dynstat_salt_sd              =   1.0944679622224E-03
(PID.TID 0000.0001) %MON dynstat_salt_del2            =   2.9298798535076E-06
(PID.TID 0000.0001) %MON dynstat_sst_max              =   3.2652332374076E+01
(PID.TID 0000.0001) %MON dynstat_sst_min              =  -1.9420363379967E+00
(PID.TID 0000.0001) %MON dynstat_sst_mean             =   1.8614901393193E+01
(PID.TID 0000.0001) %MON dynstat_sst_sd               =   9.9491920799641E+00
(PID.TID 0000.0001) %MON dynstat_sst_del2             =   1.1309415817470E-03
(PID.TID 0000.0001) %MON dynstat_sss_max              =   3.4555527185582E+01
(PID.TID 0000.0001) %MON dynstat_sss_min              =   2.9621045960165E+01
(PID.TID 0000.0001) %MON dynstat_sss_mean             =   3.4499053589762E+01
(PID.TID 0000.0001) %MON dynstat_sss_sd               =   2.0382745350886E-02
(PID.TID 0000.0001) %MON dynstat_sss_del2             =   1.1400749034893E-04
(PID.TID 0000.0001) %MON forcing_qnet_max             =   1.2040638427734E+03
(PID.TID 0000.0001) %MON forcing_qnet_min             =  -6.9912340664808E+02
(PID.TID 0000.0001) %MON forcing_qnet_mean            =   1.7697139545601E+01
(PID.TID 0000.0001) %MON forcing_qnet_sd              =   2.0502177815689E+02
(PID.TID 0000.0001) %MON forcing_qnet_del2            =   4.1576690740336E-01
(PID.TID 0000.0001) %MON forcing_qsw_max              =   0.0000000000000E+00
(PID.TID 0000.0001) %MON forcing_qsw_min              =  -4.5173505377567E+02
(PID.TID 0000.0001) %MON forcing_qsw_mean             =  -7.3975296994186E+01
(PID.TID 0000.0001) %MON forcing_qsw_sd               =   1.0848212850885E+02
(PID.TID 0000.0001) %MON forcing_qsw_del2             =   1.8410211342608E-01
(PID.TID 0000.0001) %MON forcing_empmr_max            =   2.3749151732773E-03
(PID.TID 0000.0001) %MON forcing_empmr_min            =  -6.5109603106976E-02
(PID.TID 0000.0001) %MON forcing_empmr_mean           =  -4.4308461110768E-06
(PID.TID 0000.0001) %MON forcing_empmr_sd             =   2.9801164619380E-04
(PID.TID 0000.0001) %MON forcing_empmr_del2           =   1.8684260135218E-06
(PID.TID 0000.0001) %MON forcing_fu_max               =   1.1099817156792E+00
(PID.TID 0000.0001) %MON forcing_fu_min               =  -1.0301751494408E+00
(PID.TID 0000.0001) %MON forcing_fu_mean              =   1.3141089187174E-02
(PID.TID 0000.0001) %MON forcing_fu_sd                =   1.1098452023404E-01
(PID.TID 0000.0001) %MON forcing_fu_del2              =   1.5893008984452E-04
(PID.TID 0000.0001) %MON forcing_fv_max               =   7.5458362698555E-01
(PID.TID 0000.0001) %MON forcing_fv_min               =  -6.9727141902321E-01
(PID.TID 0000.0001) %MON forcing_fv_mean              =  -5.7711651233108E-03
(PID.TID 0000.0001) %MON forcing_fv_sd                =   1.0635533799605E-01
(PID.TID 0000.0001) %MON forcing_fv_del2              =   1.2750154550363E-04
(PID.TID 0000.0001) %MON trAdv_CFL_u_max              =   1.7412166989345E-02
(PID.TID 0000.0001) %MON trAdv_CFL_v_max              =   3.2129010504532E-02
(PID.TID 0000.0001) %MON trAdv_CFL_w_max              =   6.4415572717473E-02
(PID.TID 0000.0001) %MON advcfl_uvel_max              =   1.7412566119866E-02
(PID.TID 0000.0001) %MON advcfl_vvel_max              =   3.2611573826901E-02
(PID.TID 0000.0001) %MON advcfl_wvel_max              =   7.4833444445282E-02
(PID.TID 0000.0001) %MON advcfl_W_hf_max              =   6.4415572717473E-02
(PID.TID 0000.0001) %MON pe_b_mean                    =   4.0334519970408E-04
(PID.TID 0000.0001) %MON ke_max                       =   1.7119716714971E+00
(PID.TID 0000.0001) %MON ke_mean                      =   7.0871891476329E-04
(PID.TID 0000.0001) %MON ke_vol                       =   1.3349978769393E+18
(PID.TID 0000.0001) %MON vort_r_min                   =  -2.1043494881215E-05
(PID.TID 0000.0001) %MON vort_r_max                   =   3.5626237865081E-05
(PID.TID 0000.0001) %MON vort_a_mean                  =  -1.9727864647440E-05
(PID.TID 0000.0001) %MON vort_a_sd                    =   7.4539557084928E-05
(PID.TID 0000.0001) %MON vort_p_mean                  =  -2.1760527755546E-05
(PID.TID 0000.0001) %MON vort_p_sd                    =   9.7224186131799E-05
(PID.TID 0000.0001) %MON surfExpan_theta_mean         =   1.1446017439717E-04
(PID.TID 0000.0001) %MON surfExpan_salt_mean          =  -4.9431161330055E-09
(PID.TID 0000.0001) // =======================================================
(PID.TID 0000.0001) // End MONITOR dynamic field statistics
(PID.TID 0000.0001) // =======================================================
 AGCM Date: 2000/04/15  Time: 03:00:00
 Writing:    148 Slices (  5 Nodes,  1 PartitionRoot) to File:  TEST.geosgcm_surf.20000415_0130z.nc4
 Writing:    111 Slices (  5 Nodes,  1 PartitionRoot) to File:  TEST.mit_ocn.20000415_0130z.nc4
 cg2d: Sum(rhs),rhsMax =  -3.31499962272787E+00  2.14611020821523E-01
 AGCM Date: 2000/04/15  Time: 03:15:00
 cg2d: Sum(rhs),rhsMax =  -3.45644537754928E+00  2.10628542144010E-01
 AGCM Date: 2000/04/15  Time: 03:30:00
 cg2d: Sum(rhs),rhsMax =  -3.61071041372547E+00  2.04574993097492E-01
 AGCM Date: 2000/04/15  Time: 03:45:00
 cg2d: Sum(rhs),rhsMax =  -3.77841068473822E+00  1.97059971599735E-01
(PID.TID 0000.0001)      cg2d_init_res =   4.05840091128917E+00
(PID.TID 0000.0001)      cg2d_iters(min,last) =      -1      39
(PID.TID 0000.0001)      cg2d_last_res =   2.64248361887835E-05
(PID.TID 0000.0001) // =======================================================
(PID.TID 0000.0001) // Begin MONITOR dynamic field statistics
(PID.TID 0000.0001) // =======================================================
(PID.TID 0000.0001) %MON time_tsnumber                =                    28
(PID.TID 0000.0001) %MON time_secondsf                =   2.5200000000000E+04
(PID.TID 0000.0001) %MON dynstat_eta_max              =   2.5747409288713E+00
(PID.TID 0000.0001) %MON dynstat_eta_min              =  -1.7164587349761E+00
(PID.TID 0000.0001) %MON dynstat_eta_mean             =   1.1952319740135E-04
(PID.TID 0000.0001) %MON dynstat_eta_sd               =   5.7723601271629E-01
(PID.TID 0000.0001) %MON dynstat_eta_del2             =   1.2595240379149E-04
(PID.TID 0000.0001) %MON dynstat_uvel_max             =   1.1813162403194E+00
(PID.TID 0000.0001) %MON dynstat_uvel_min             =  -1.3696620945035E+00
(PID.TID 0000.0001) %MON dynstat_uvel_mean            =  -4.9352636489167E-03
(PID.TID 0000.0001) %MON dynstat_uvel_sd              =   2.7919781513955E-02
(PID.TID 0000.0001) %MON dynstat_uvel_del2            =   1.2725338641730E-05
(PID.TID 0000.0001) %MON dynstat_vvel_max             =   1.8859574375765E+00
(PID.TID 0000.0001) %MON dynstat_vvel_min             =  -1.6723254509378E+00
(PID.TID 0000.0001) %MON dynstat_vvel_mean            =  -4.1023587032519E-03
(PID.TID 0000.0001) %MON dynstat_vvel_sd              =   2.8184994948371E-02
(PID.TID 0000.0001) %MON dynstat_vvel_del2            =   1.2316703895116E-05
(PID.TID 0000.0001) %MON dynstat_wvel_max             =   2.3806727238533E-03
(PID.TID 0000.0001) %MON dynstat_wvel_min             =  -2.3193029686263E-03
(PID.TID 0000.0001) %MON dynstat_wvel_mean            =   3.9507973749890E-21
(PID.TID 0000.0001) %MON dynstat_wvel_sd              =   9.7356183626449E-05
(PID.TID 0000.0001) %MON dynstat_wvel_del2            =   9.8164981859194E-08
(PID.TID 0000.0001) %MON dynstat_theta_max            =   3.2661081523041E+01
(PID.TID 0000.0001) %MON dynstat_theta_min            =  -2.0420984864938E+00
(PID.TID 0000.0001) %MON dynstat_theta_mean           =   3.5890326059034E+00
(PID.TID 0000.0001) %MON dynstat_theta_sd             =   4.4318772299017E+00
(PID.TID 0000.0001) %MON dynstat_theta_del2           =   1.2099086629356E-04
(PID.TID 0000.0001) %MON dynstat_salt_max             =   3.4557818901099E+01
(PID.TID 0000.0001) %MON dynstat_salt_min             =   2.9036676813759E+01
(PID.TID 0000.0001) %MON dynstat_salt_mean            =   3.4499999216780E+01
(PID.TID 0000.0001) %MON dynstat_salt_sd              =   1.2270777138455E-03
(PID.TID 0000.0001) %MON dynstat_salt_del2            =   3.2853241853916E-06
(PID.TID 0000.0001) %MON dynstat_sst_max              =   3.2661081523041E+01
(PID.TID 0000.0001) %MON dynstat_sst_min              =  -1.9391816295966E+00
(PID.TID 0000.0001) %MON dynstat_sst_mean             =   1.8617170913679E+01
(PID.TID 0000.0001) %MON dynstat_sst_sd               =   9.9498004583603E+00
(PID.TID 0000.0001) %MON dynstat_sst_del2             =   1.1334581554184E-03
(PID.TID 0000.0001) %MON dynstat_sss_max              =   3.4557818901099E+01
(PID.TID 0000.0001) %MON dynstat_sss_min              =   2.9036676813759E+01
(PID.TID 0000.0001) %MON dynstat_sss_mean             =   3.4498927791940E+01
(PID.TID 0000.0001) %MON dynstat_sss_sd               =   2.2901353549443E-02
(PID.TID 0000.0001) %MON dynstat_sss_del2             =   1.2795135967261E-04
(PID.TID 0000.0001) %MON forcing_qnet_max             =   1.2591815185547E+03
(PID.TID 0000.0001) %MON forcing_qnet_min             =  -6.7776885741020E+02
(PID.TID 0000.0001) %MON forcing_qnet_mean            =   2.6008961493614E+01
(PID.TID 0000.0001) %MON forcing_qnet_sd              =   1.9826556334421E+02
(PID.TID 0000.0001) %MON forcing_qnet_del2            =   4.0560762607772E-01
(PID.TID 0000.0001) %MON forcing_qsw_max              =   0.0000000000000E+00
(PID.TID 0000.0001) %MON forcing_qsw_min              =  -4.4450279480234E+02
(PID.TID 0000.0001) %MON forcing_qsw_mean             =  -6.9131922299632E+01
(PID.TID 0000.0001) %MON forcing_qsw_sd               =   1.0360684252567E+02
(PID.TID 0000.0001) %MON forcing_qsw_del2             =   1.7840139675387E-01
(PID.TID 0000.0001) %MON forcing_empmr_max            =   2.1708135027438E-03
(PID.TID 0000.0001) %MON forcing_empmr_min            =  -6.9522604346275E-02
(PID.TID 0000.0001) %MON forcing_empmr_mean           =  -6.0652634791322E-06
(PID.TID 0000.0001) %MON forcing_empmr_sd             =   3.1907508448185E-04
(PID.TID 0000.0001) %MON forcing_empmr_del2           =   2.1935997813451E-06
(PID.TID 0000.0001) %MON forcing_fu_max               =   1.0930538177490E+00
(PID.TID 0000.0001) %MON forcing_fu_min               =  -9.9527928233147E-01
(PID.TID 0000.0001) %MON forcing_fu_mean              =   1.3319551692385E-02
(PID.TID 0000.0001) %MON forcing_fu_sd                =   1.0980751788371E-01
(PID.TID 0000.0001) %MON forcing_fu_del2              =   1.5659628727693E-04
(PID.TID 0000.0001) %MON forcing_fv_max               =   7.2692689299583E-01
(PID.TID 0000.0001) %MON forcing_fv_min               =  -7.0940257217836E-01
(PID.TID 0000.0001) %MON forcing_fv_mean              =  -6.3681563877968E-03
(PID.TID 0000.0001) %MON forcing_fv_sd                =   1.0567797101686E-01
(PID.TID 0000.0001) %MON forcing_fv_del2              =   1.2592833271350E-04
(PID.TID 0000.0001) %MON trAdv_CFL_u_max              =   1.7817072722143E-02
(PID.TID 0000.0001) %MON trAdv_CFL_v_max              =   3.3008793452421E-02
(PID.TID 0000.0001) %MON trAdv_CFL_w_max              =   6.4857523060752E-02
(PID.TID 0000.0001) %MON advcfl_uvel_max              =   1.7907894278555E-02
(PID.TID 0000.0001) %MON advcfl_vvel_max              =   3.3504570706240E-02
(PID.TID 0000.0001) %MON advcfl_wvel_max              =   6.3383488445735E-02
(PID.TID 0000.0001) %MON advcfl_W_hf_max              =   6.4857523060752E-02
(PID.TID 0000.0001) %MON pe_b_mean                    =   4.3829360393415E-04
(PID.TID 0000.0001) %MON ke_max                       =   1.8193360504885E+00
(PID.TID 0000.0001) %MON ke_mean                      =   7.7878070960806E-04
(PID.TID 0000.0001) %MON ke_vol                       =   1.3349978769393E+18
(PID.TID 0000.0001) %MON vort_r_min                   =  -2.1213520497709E-05
(PID.TID 0000.0001) %MON vort_r_max                   =   3.0705807773030E-05
(PID.TID 0000.0001) %MON vort_a_mean                  =  -1.9727864647440E-05
(PID.TID 0000.0001) %MON vort_a_sd                    =   7.4539762471024E-05
(PID.TID 0000.0001) %MON vort_p_mean                  =  -2.1760527755546E-05
(PID.TID 0000.0001) %MON vort_p_sd                    =   9.7222767346056E-05
(PID.TID 0000.0001) %MON surfExpan_theta_mean         =   6.3887848442655E-05
(PID.TID 0000.0001) %MON surfExpan_salt_mean          =  -1.1470948908243E-08
(PID.TID 0000.0001) // =======================================================
(PID.TID 0000.0001) // End MONITOR dynamic field statistics
(PID.TID 0000.0001) // =======================================================
 AGCM Date: 2000/04/15  Time: 04:00:00
 cg2d: Sum(rhs),rhsMax =  -3.95991346638453E+00  1.88714429365964E-01
 AGCM Date: 2000/04/15  Time: 04:15:00
 cg2d: Sum(rhs),rhsMax =  -4.15590644815708E+00  1.80135756339680E-01
 AGCM Date: 2000/04/15  Time: 04:30:00
 cg2d: Sum(rhs),rhsMax =  -4.36173691446179E+00  1.72250181909203E-01
 AGCM Date: 2000/04/15  Time: 04:45:00
 cg2d: Sum(rhs),rhsMax =  -4.57731544001140E+00  1.67653629095056E-01
(PID.TID 0000.0001)      cg2d_init_res =   3.85828810224484E+00
(PID.TID 0000.0001)      cg2d_iters(min,last) =      -1      39
(PID.TID 0000.0001)      cg2d_last_res =   2.71510460453553E-05
(PID.TID 0000.0001) // =======================================================
(PID.TID 0000.0001) // Begin MONITOR dynamic field statistics
(PID.TID 0000.0001) // =======================================================
(PID.TID 0000.0001) %MON time_tsnumber                =                    32
(PID.TID 0000.0001) %MON time_secondsf                =   2.8800000000000E+04
(PID.TID 0000.0001) %MON dynstat_eta_max              =   2.4002047200284E+00
(PID.TID 0000.0001) %MON dynstat_eta_min              =  -1.8596998507783E+00
(PID.TID 0000.0001) %MON dynstat_eta_mean             =   1.4479510634306E-04
(PID.TID 0000.0001) %MON dynstat_eta_sd               =   5.8929365869209E-01
(PID.TID 0000.0001) %MON dynstat_eta_del2             =   1.2799631740810E-04
(PID.TID 0000.0001) %MON dynstat_uvel_max             =   9.6080074051167E-01
(PID.TID 0000.0001) %MON dynstat_uvel_min             =  -1.3694722176999E+00
(PID.TID 0000.0001) %MON dynstat_uvel_mean            =  -4.3238665769470E-03
(PID.TID 0000.0001) %MON dynstat_uvel_sd              =   2.8823422146928E-02
(PID.TID 0000.0001) %MON dynstat_uvel_del2            =   1.3493014552584E-05
(PID.TID 0000.0001) %MON dynstat_vvel_max             =   1.8789260018805E+00
(PID.TID 0000.0001) %MON dynstat_vvel_min             =  -1.5749601732610E+00
(PID.TID 0000.0001) %MON dynstat_vvel_mean            =  -3.2069284593179E-03
(PID.TID 0000.0001) %MON dynstat_vvel_sd              =   2.9040512168170E-02
(PID.TID 0000.0001) %MON dynstat_vvel_del2            =   1.2967907557620E-05
(PID.TID 0000.0001) %MON dynstat_wvel_max             =   2.0791313034007E-03
(PID.TID 0000.0001) %MON dynstat_wvel_min             =  -2.2120779019632E-03
(PID.TID 0000.0001) %MON dynstat_wvel_mean            =  -5.4395453654185E-21
(PID.TID 0000.0001) %MON dynstat_wvel_sd              =   9.3490455365378E-05
(PID.TID 0000.0001) %MON dynstat_wvel_del2            =   9.7631090584235E-08
(PID.TID 0000.0001) %MON dynstat_theta_max            =   3.2669589018436E+01
(PID.TID 0000.0001) %MON dynstat_theta_min            =  -2.0420346387771E+00
(PID.TID 0000.0001) %MON dynstat_theta_mean           =   3.5889887387328E+00
(PID.TID 0000.0001) %MON dynstat_theta_sd             =   4.4316690569184E+00
(PID.TID 0000.0001) %MON dynstat_theta_del2           =   1.2083639095600E-04
(PID.TID 0000.0001) %MON dynstat_salt_max             =   3.4559381191099E+01
(PID.TID 0000.0001) %MON dynstat_salt_min             =   2.8436360936008E+01
(PID.TID 0000.0001) %MON dynstat_salt_mean            =   3.4499999077045E+01
(PID.TID 0000.0001) %MON dynstat_salt_sd              =   1.3676738595660E-03
(PID.TID 0000.0001) %MON dynstat_salt_del2            =   3.7055904244250E-06
(PID.TID 0000.0001) %MON dynstat_sst_max              =   3.2669589018436E+01
(PID.TID 0000.0001) %MON dynstat_sst_min              =  -1.9363737889343E+00
(PID.TID 0000.0001) %MON dynstat_sst_mean             =   1.8618406304541E+01
(PID.TID 0000.0001) %MON dynstat_sst_sd               =   9.9510048534357E+00
(PID.TID 0000.0001) %MON dynstat_sst_del2             =   1.1346840410391E-03
(PID.TID 0000.0001) %MON dynstat_sss_max              =   3.4559381191099E+01
(PID.TID 0000.0001) %MON dynstat_sss_min              =   2.8436360936008E+01
(PID.TID 0000.0001) %MON dynstat_sss_mean             =   3.4498784238748E+01
(PID.TID 0000.0001) %MON dynstat_sss_sd               =   2.5574638823754E-02
(PID.TID 0000.0001) %MON dynstat_sss_del2             =   1.4446538411387E-04
(PID.TID 0000.0001) %MON forcing_qnet_max             =   1.3309259033203E+03
(PID.TID 0000.0001) %MON forcing_qnet_min             =  -6.5931344269378E+02
(PID.TID 0000.0001) %MON forcing_qnet_mean            =   3.4409574619933E+01
(PID.TID 0000.0001) %MON forcing_qnet_sd              =   1.9656676125885E+02
(PID.TID 0000.0001) %MON forcing_qnet_del2            =   3.8906252541746E-01
(PID.TID 0000.0001) %MON forcing_qsw_max              =   0.0000000000000E+00
(PID.TID 0000.0001) %MON forcing_qsw_min              =  -4.3643535243395E+02
(PID.TID 0000.0001) %MON forcing_qsw_mean             =  -6.4640080061434E+01
(PID.TID 0000.0001) %MON forcing_qsw_sd               =   1.0214476883384E+02
(PID.TID 0000.0001) %MON forcing_qsw_del2             =   1.7518875657657E-01
(PID.TID 0000.0001) %MON forcing_empmr_max            =   2.0427790004760E-03
(PID.TID 0000.0001) %MON forcing_empmr_min            =  -7.2531200945377E-02
(PID.TID 0000.0001) %MON forcing_empmr_mean           =  -7.7968899514457E-06
(PID.TID 0000.0001) %MON forcing_empmr_sd             =   3.5918203315758E-04
(PID.TID 0000.0001) %MON forcing_empmr_del2           =   2.8982401448230E-06
(PID.TID 0000.0001) %MON forcing_fu_max               =   1.0719801783562E+00
(PID.TID 0000.0001) %MON forcing_fu_min               =  -9.6689587831497E-01
(PID.TID 0000.0001) %MON forcing_fu_mean              =   1.3566499391224E-02
(PID.TID 0000.0001) %MON forcing_fu_sd                =   1.0898151693237E-01
(PID.TID 0000.0001) %MON forcing_fu_del2              =   1.5432657565824E-04
(PID.TID 0000.0001) %MON forcing_fv_max               =   7.1600016951561E-01
(PID.TID 0000.0001) %MON forcing_fv_min               =  -6.9666262109725E-01
(PID.TID 0000.0001) %MON forcing_fv_mean              =  -6.9643693712402E-03
(PID.TID 0000.0001) %MON forcing_fv_sd                =   1.0546112267026E-01
(PID.TID 0000.0001) %MON forcing_fv_del2              =   1.2442809803378E-04
(PID.TID 0000.0001) %MON trAdv_CFL_u_max              =   1.7358982282153E-02
(PID.TID 0000.0001) %MON trAdv_CFL_v_max              =   3.1086972350872E-02
(PID.TID 0000.0001) %MON trAdv_CFL_w_max              =   6.7558561036319E-02
(PID.TID 0000.0001) %MON advcfl_uvel_max              =   1.7447468747533E-02
(PID.TID 0000.0001) %MON advcfl_vvel_max              =   3.1553884714811E-02
(PID.TID 0000.0001) %MON advcfl_wvel_max              =   6.3997778085698E-02
(PID.TID 0000.0001) %MON advcfl_W_hf_max              =   6.7558561036319E-02
(PID.TID 0000.0001) %MON pe_b_mean                    =   4.5679552409718E-04
(PID.TID 0000.0001) %MON ke_max                       =   1.7395500098437E+00
(PID.TID 0000.0001) %MON ke_mean                      =   8.2122667627668E-04
(PID.TID 0000.0001) %MON ke_vol                       =   1.3349978769393E+18
(PID.TID 0000.0001) %MON vort_r_min                   =  -2.1405347257439E-05
(PID.TID 0000.0001) %MON vort_r_max                   =   2.4208947555511E-05
(PID.TID 0000.0001) %MON vort_a_mean                  =  -1.9727864647440E-05
(PID.TID 0000.0001) %MON vort_a_sd                    =   7.4540180822540E-05
(PID.TID 0000.0001) %MON vort_p_mean                  =  -2.1760527755546E-05
(PID.TID 0000.0001) %MON vort_p_sd                    =   9.7222719936411E-05
(PID.TID 0000.0001) %MON surfExpan_theta_mean         =   2.3834077533305E-05
(PID.TID 0000.0001) %MON surfExpan_salt_mean          =  -6.7179915959456E-09
(PID.TID 0000.0001) // =======================================================
(PID.TID 0000.0001) // End MONITOR dynamic field statistics
(PID.TID 0000.0001) // =======================================================
 AGCM Date: 2000/04/15  Time: 05:00:00
 cg2d: Sum(rhs),rhsMax =  -4.80638195559072E+00  1.64297186550279E-01
 AGCM Date: 2000/04/15  Time: 05:15:00
 cg2d: Sum(rhs),rhsMax =  -5.04669562641032E+00  1.62177475288023E-01
 AGCM Date: 2000/04/15  Time: 05:30:00
 cg2d: Sum(rhs),rhsMax =  -5.29097918458180E+00  1.61224804581906E-01
 AGCM Date: 2000/04/15  Time: 05:45:00
 cg2d: Sum(rhs),rhsMax =  -5.55459882611001E+00  1.61328654093808E-01
(PID.TID 0000.0001)      cg2d_init_res =   3.65584921425195E+00
(PID.TID 0000.0001)      cg2d_iters(min,last) =      -1      39
(PID.TID 0000.0001)      cg2d_last_res =   1.95623129313195E-05
(PID.TID 0000.0001) // =======================================================
(PID.TID 0000.0001) // Begin MONITOR dynamic field statistics
(PID.TID 0000.0001) // =======================================================
(PID.TID 0000.0001) %MON time_tsnumber                =                    36
(PID.TID 0000.0001) %MON time_secondsf                =   3.2400000000000E+04
(PID.TID 0000.0001) %MON dynstat_eta_max              =   2.1301349612158E+00
(PID.TID 0000.0001) %MON dynstat_eta_min              =  -1.8931300356450E+00
(PID.TID 0000.0001) %MON dynstat_eta_mean             =   1.7570970108147E-04
(PID.TID 0000.0001) %MON dynstat_eta_sd               =   5.9368881015950E-01
(PID.TID 0000.0001) %MON dynstat_eta_del2             =   1.2230472886699E-04
(PID.TID 0000.0001) %MON dynstat_uvel_max             =   9.7802796196742E-01
(PID.TID 0000.0001) %MON dynstat_uvel_min             =  -1.3894491108782E+00
(PID.TID 0000.0001) %MON dynstat_uvel_mean            =  -3.9209048857502E-03
(PID.TID 0000.0001) %MON dynstat_uvel_sd              =   2.9294479033417E-02
(PID.TID 0000.0001) %MON dynstat_uvel_del2            =   1.4155888119157E-05
(PID.TID 0000.0001) %MON dynstat_vvel_max             =   1.7307807805910E+00
(PID.TID 0000.0001) %MON dynstat_vvel_min             =  -1.3604608799343E+00
(PID.TID 0000.0001) %MON dynstat_vvel_mean            =  -1.6161949842945E-03
(PID.TID 0000.0001) %MON dynstat_vvel_sd              =   2.9491479522072E-02
(PID.TID 0000.0001) %MON dynstat_vvel_del2            =   1.3538660584232E-05
(PID.TID 0000.0001) %MON dynstat_wvel_max             =   2.2590777117069E-03
(PID.TID 0000.0001) %MON dynstat_wvel_min             =  -2.5104859106786E-03
(PID.TID 0000.0001) %MON dynstat_wvel_mean            =   7.6971438654122E-21
(PID.TID 0000.0001) %MON dynstat_wvel_sd              =   9.1446873994299E-05
(PID.TID 0000.0001) %MON dynstat_wvel_del2            =   9.6422941002477E-08
(PID.TID 0000.0001) %MON dynstat_theta_max            =   3.2675466327723E+01
(PID.TID 0000.0001) %MON dynstat_theta_min            =  -2.0419045747438E+00
(PID.TID 0000.0001) %MON dynstat_theta_mean           =   3.5889718501276E+00
(PID.TID 0000.0001) %MON dynstat_theta_sd             =   4.4315788374555E+00
(PID.TID 0000.0001) %MON dynstat_theta_del2           =   1.2066331843276E-04
(PID.TID 0000.0001) %MON dynstat_salt_max             =   3.4560452813967E+01
(PID.TID 0000.0001) %MON dynstat_salt_min             =   2.7831440160443E+01
(PID.TID 0000.0001) %MON dynstat_salt_mean            =   3.4499998888697E+01
(PID.TID 0000.0001) %MON dynstat_salt_sd              =   1.5193456109618E-03
(PID.TID 0000.0001) %MON dynstat_salt_del2            =   4.2574983221086E-06
(PID.TID 0000.0001) %MON dynstat_sst_max              =   3.2675466327723E+01
(PID.TID 0000.0001) %MON dynstat_sst_min              =  -1.9336341277359E+00
(PID.TID 0000.0001) %MON dynstat_sst_mean             =   1.8618656060942E+01
(PID.TID 0000.0001) %MON dynstat_sst_sd               =   9.9525765201155E+00
(PID.TID 0000.0001) %MON dynstat_sst_del2             =   1.1348145602215E-03
(PID.TID 0000.0001) %MON dynstat_sss_max              =   3.4560452813967E+01
(PID.TID 0000.0001) %MON dynstat_sss_min              =   2.7831440160443E+01
(PID.TID 0000.0001) %MON dynstat_sss_mean             =   3.4498622116955E+01
(PID.TID 0000.0001) %MON dynstat_sss_sd               =   2.8477588025888E-02
(PID.TID 0000.0001) %MON dynstat_sss_del2             =   1.6631537681257E-04
(PID.TID 0000.0001) %MON forcing_qnet_max             =   1.3176345295535E+03
(PID.TID 0000.0001) %MON forcing_qnet_min             =  -6.4281817656228E+02
(PID.TID 0000.0001) %MON forcing_qnet_mean            =   4.2907839481073E+01
(PID.TID 0000.0001) %MON forcing_qnet_sd              =   1.9752869947002E+02
(PID.TID 0000.0001) %MON forcing_qnet_del2            =   3.6934600471676E-01
(PID.TID 0000.0001) %MON forcing_qsw_max              =   0.0000000000000E+00
(PID.TID 0000.0001) %MON forcing_qsw_min              =  -4.3799962914412E+02
(PID.TID 0000.0001) %MON forcing_qsw_mean             =  -6.0101458631695E+01
(PID.TID 0000.0001) %MON forcing_qsw_sd               =   1.0281260236300E+02
(PID.TID 0000.0001) %MON forcing_qsw_del2             =   1.7287709812374E-01
(PID.TID 0000.0001) %MON forcing_empmr_max            =   1.9605848938227E-03
(PID.TID 0000.0001) %MON forcing_empmr_min            =  -9.3750163912773E-02
(PID.TID 0000.0001) %MON forcing_empmr_mean           =  -9.5344066797155E-06
(PID.TID 0000.0001) %MON forcing_empmr_sd             =   4.0883876723140E-04
(PID.TID 0000.0001) %MON forcing_empmr_del2           =   3.6533773078320E-06
(PID.TID 0000.0001) %MON forcing_fu_max               =   1.0629284381866E+00
(PID.TID 0000.0001) %MON forcing_fu_min               =  -9.5008924603462E-01
(PID.TID 0000.0001) %MON forcing_fu_mean              =   1.3734974674315E-02
(PID.TID 0000.0001) %MON forcing_fu_sd                =   1.0828146085566E-01
(PID.TID 0000.0001) %MON forcing_fu_del2              =   1.5273696864397E-04
(PID.TID 0000.0001) %MON forcing_fv_max               =   7.2427934408188E-01
(PID.TID 0000.0001) %MON forcing_fv_min               =  -6.6419546430406E-01
(PID.TID 0000.0001) %MON forcing_fv_mean              =  -7.5352617704248E-03
(PID.TID 0000.0001) %MON forcing_fv_sd                =   1.0511916946565E-01
(PID.TID 0000.0001) %MON forcing_fv_del2              =   1.2221826344043E-04
(PID.TID 0000.0001) %MON trAdv_CFL_u_max              =   1.9830722637125E-02
(PID.TID 0000.0001) %MON trAdv_CFL_v_max              =   2.6853129670823E-02
(PID.TID 0000.0001) %MON trAdv_CFL_w_max              =   8.6754746636340E-02
(PID.TID 0000.0001) %MON advcfl_uvel_max              =   1.9831226738119E-02
(PID.TID 0000.0001) %MON advcfl_vvel_max              =   2.7256451619074E-02
(PID.TID 0000.0001) %MON advcfl_wvel_max              =   8.3063055290113E-02
(PID.TID 0000.0001) %MON advcfl_W_hf_max              =   8.6754746636340E-02
(PID.TID 0000.0001) %MON pe_b_mean                    =   4.6363481790528E-04
(PID.TID 0000.0001) %MON ke_max                       =   1.5226716585775E+00
(PID.TID 0000.0001) %MON ke_mean                      =   8.4185416532096E-04
(PID.TID 0000.0001) %MON ke_vol                       =   1.3349978769393E+18
(PID.TID 0000.0001) %MON vort_r_min                   =  -2.2561967155411E-05
(PID.TID 0000.0001) %MON vort_r_max                   =   1.9109605870073E-05
(PID.TID 0000.0001) %MON vort_a_mean                  =  -1.9727864647440E-05
(PID.TID 0000.0001) %MON vort_a_sd                    =   7.4540713500703E-05
(PID.TID 0000.0001) %MON vort_p_mean                  =  -2.1760527755546E-05
(PID.TID 0000.0001) %MON vort_p_sd                    =   9.7223664901861E-05
(PID.TID 0000.0001) %MON surfExpan_theta_mean         =   2.0575889148226E-07
(PID.TID 0000.0001) %MON surfExpan_salt_mean          =   2.8677479887926E-09
(PID.TID 0000.0001) // =======================================================
(PID.TID 0000.0001) // End MONITOR dynamic field statistics
(PID.TID 0000.0001) // =======================================================
 AGCM Date: 2000/04/15  Time: 06:00:00
 Writing:    483 Slices (  4 Nodes,  2 PartitionRoot) to File:  TEST.geosgcm_prog.20000415_0600z.nc4
 Writing:    148 Slices (  1 Nodes,  1 PartitionRoot) to File:  TEST.geosgcm_surf.20000415_0430z.nc4
 Writing:    111 Slices (  1 Nodes,  1 PartitionRoot) to File:  TEST.mit_ocn.20000415_0430z.nc4
 cg2d: Sum(rhs),rhsMax =  -5.82417574462519E+00  1.62359512913804E-01
 AGCM Date: 2000/04/15  Time: 06:15:00
 cg2d: Sum(rhs),rhsMax =  -6.10365686940781E+00  1.64186517437325E-01
 AGCM Date: 2000/04/15  Time: 06:30:00
 cg2d: Sum(rhs),rhsMax =  -6.39778838023496E+00  1.66690169623066E-01
 AGCM Date: 2000/04/15  Time: 06:45:00
 cg2d: Sum(rhs),rhsMax =  -6.69653980210424E+00  1.69772906559714E-01
(PID.TID 0000.0001)      cg2d_init_res =   3.59837721767025E+00
(PID.TID 0000.0001)      cg2d_iters(min,last) =      -1      38
(PID.TID 0000.0001)      cg2d_last_res =   2.53779966146712E-05
(PID.TID 0000.0001) // =======================================================
(PID.TID 0000.0001) // Begin MONITOR dynamic field statistics
(PID.TID 0000.0001) // =======================================================
(PID.TID 0000.0001) %MON time_tsnumber                =                    40
(PID.TID 0000.0001) %MON time_secondsf                =   3.6000000000000E+04
(PID.TID 0000.0001) %MON dynstat_eta_max              =   1.7003061851265E+00
(PID.TID 0000.0001) %MON dynstat_eta_min              =  -1.9397994960042E+00
(PID.TID 0000.0001) %MON dynstat_eta_mean             =   2.1183294126950E-04
(PID.TID 0000.0001) %MON dynstat_eta_sd               =   5.9408066778737E-01
(PID.TID 0000.0001) %MON dynstat_eta_del2             =   1.1701959683020E-04
(PID.TID 0000.0001) %MON dynstat_uvel_max             =   1.0541184383470E+00
(PID.TID 0000.0001) %MON dynstat_uvel_min             =  -1.3856334737437E+00
(PID.TID 0000.0001) %MON dynstat_uvel_mean            =  -3.8357730772293E-03
(PID.TID 0000.0001) %MON dynstat_uvel_sd              =   2.9281396577973E-02
(PID.TID 0000.0001) %MON dynstat_uvel_del2            =   1.4643489862027E-05
(PID.TID 0000.0001) %MON dynstat_vvel_max             =   1.4385166467459E+00
(PID.TID 0000.0001) %MON dynstat_vvel_min             =  -1.1014480562373E+00
(PID.TID 0000.0001) %MON dynstat_vvel_mean            =   2.7954027342405E-04
(PID.TID 0000.0001) %MON dynstat_vvel_sd              =   2.9795228747295E-02
(PID.TID 0000.0001) %MON dynstat_vvel_del2            =   1.4041560381643E-05
(PID.TID 0000.0001) %MON dynstat_wvel_max             =   2.3918806938511E-03
(PID.TID 0000.0001) %MON dynstat_wvel_min             =  -2.6079317105384E-03
(PID.TID 0000.0001) %MON dynstat_wvel_mean            =   4.0774993316213E-21
(PID.TID 0000.0001) %MON dynstat_wvel_sd              =   9.1419248974406E-05
(PID.TID 0000.0001) %MON dynstat_wvel_del2            =   9.4919598350226E-08
(PID.TID 0000.0001) %MON dynstat_theta_max            =   3.2677004145717E+01
(PID.TID 0000.0001) %MON dynstat_theta_min            =  -2.0417143108198E+00
(PID.TID 0000.0001) %MON dynstat_theta_mean           =   3.5889658461765E+00
(PID.TID 0000.0001) %MON dynstat_theta_sd             =   4.4315732175101E+00
(PID.TID 0000.0001) %MON dynstat_theta_del2           =   1.2048615677373E-04
(PID.TID 0000.0001) %MON dynstat_salt_max             =   3.4561189952619E+01
(PID.TID 0000.0001) %MON dynstat_salt_min             =   2.7241109036083E+01
(PID.TID 0000.0001) %MON dynstat_salt_mean            =   3.4499998660426E+01
(PID.TID 0000.0001) %MON dynstat_salt_sd              =   1.6806458202971E-03
(PID.TID 0000.0001) %MON dynstat_salt_del2            =   4.9671563090564E-06
(PID.TID 0000.0001) %MON dynstat_sst_max              =   3.2677004145717E+01
(PID.TID 0000.0001) %MON dynstat_sst_min              =  -1.9309570666980E+00
(PID.TID 0000.0001) %MON dynstat_sst_mean             =   1.8618044108009E+01
(PID.TID 0000.0001) %MON dynstat_sst_sd               =   9.9541654281987E+00
(PID.TID 0000.0001) %MON dynstat_sst_del2             =   1.1341485108772E-03
(PID.TID 0000.0001) %MON dynstat_sss_max              =   3.4561189952619E+01
(PID.TID 0000.0001) %MON dynstat_sss_min              =   2.7241109036083E+01
(PID.TID 0000.0001) %MON dynstat_sss_mean             =   3.4498432900291E+01
(PID.TID 0000.0001) %MON dynstat_sss_sd               =   3.1599621614241E-02
(PID.TID 0000.0001) %MON dynstat_sss_del2             =   1.9461447527362E-04
(PID.TID 0000.0001) %MON forcing_qnet_max             =   1.2306332974363E+03
(PID.TID 0000.0001) %MON forcing_qnet_min             =  -6.4061186476750E+02
(PID.TID 0000.0001) %MON forcing_qnet_mean            =   5.0119737740899E+01
(PID.TID 0000.0001) %MON forcing_qnet_sd              =   1.9861802858218E+02
(PID.TID 0000.0001) %MON forcing_qnet_del2            =   3.7151049048603E-01
(PID.TID 0000.0001) %MON forcing_qsw_max              =   0.0000000000000E+00
(PID.TID 0000.0001) %MON forcing_qsw_min              =  -4.3273421537270E+02
(PID.TID 0000.0001) %MON forcing_qsw_mean             =  -5.5975271912053E+01
(PID.TID 0000.0001) %MON forcing_qsw_sd               =   1.0328217618732E+02
(PID.TID 0000.0001) %MON forcing_qsw_del2             =   1.7103265325597E-01
(PID.TID 0000.0001) %MON forcing_empmr_max            =   1.8805610015988E-03
(PID.TID 0000.0001) %MON forcing_empmr_min            =  -1.3105310499668E-01
(PID.TID 0000.0001) %MON forcing_empmr_mean           =  -1.0805027788266E-05
(PID.TID 0000.0001) %MON forcing_empmr_sd             =   4.6523349701740E-04
(PID.TID 0000.0001) %MON forcing_empmr_del2           =   4.4223953159127E-06
(PID.TID 0000.0001) %MON forcing_fu_max               =   1.0558360815048E+00
(PID.TID 0000.0001) %MON forcing_fu_min               =  -9.1604545712471E-01
(PID.TID 0000.0001) %MON forcing_fu_mean              =   1.3747418729763E-02
(PID.TID 0000.0001) %MON forcing_fu_sd                =   1.0744155797432E-01
(PID.TID 0000.0001) %MON forcing_fu_del2              =   1.5068276054432E-04
(PID.TID 0000.0001) %MON forcing_fv_max               =   7.6693499088287E-01
(PID.TID 0000.0001) %MON forcing_fv_min               =  -6.3888871628117E-01
(PID.TID 0000.0001) %MON forcing_fv_mean              =  -7.9487188378722E-03
(PID.TID 0000.0001) %MON forcing_fv_sd                =   1.0500937420147E-01
(PID.TID 0000.0001) %MON forcing_fv_del2              =   1.2052980340204E-04
(PID.TID 0000.0001) %MON trAdv_CFL_u_max              =   2.1373550849700E-02
(PID.TID 0000.0001) %MON trAdv_CFL_v_max              =   2.2309210587970E-02
(PID.TID 0000.0001) %MON trAdv_CFL_w_max              =   1.0698009659471E-01
(PID.TID 0000.0001) %MON advcfl_uvel_max              =   2.1374094169700E-02
(PID.TID 0000.0001) %MON advcfl_vvel_max              =   2.2067202444810E-02
(PID.TID 0000.0001) %MON advcfl_wvel_max              =   1.0242775205876E-01
(PID.TID 0000.0001) %MON advcfl_W_hf_max              =   1.0698009659471E-01
(PID.TID 0000.0001) %MON pe_b_mean                    =   4.6424707215278E-04
(PID.TID 0000.0001) %MON ke_max                       =   1.2271476090593E+00
(PID.TID 0000.0001) %MON ke_mean                      =   8.4862977969197E-04
(PID.TID 0000.0001) %MON ke_vol                       =   1.3349978769393E+18
(PID.TID 0000.0001) %MON vort_r_min                   =  -2.4317285914869E-05
(PID.TID 0000.0001) %MON vort_r_max                   =   1.6501863196829E-05
(PID.TID 0000.0001) %MON vort_a_mean                  =  -1.9727864647440E-05
(PID.TID 0000.0001) %MON vort_a_sd                    =   7.4541260592770E-05
(PID.TID 0000.0001) %MON vort_p_mean                  =  -2.1760527755546E-05
(PID.TID 0000.0001) %MON vort_p_sd                    =   9.7225239827717E-05
(PID.TID 0000.0001) %MON surfExpan_theta_mean         =  -7.1344663888717E-06
(PID.TID 0000.0001) %MON surfExpan_salt_mean          =   1.0658039799057E-08
(PID.TID 0000.0001) // =======================================================
(PID.TID 0000.0001) // End MONITOR dynamic field statistics
(PID.TID 0000.0001) // =======================================================
 AGCM Date: 2000/04/15  Time: 07:00:00
 cg2d: Sum(rhs),rhsMax =  -7.00509601089761E+00  1.73348602340611E-01
 AGCM Date: 2000/04/15  Time: 07:15:00
 cg2d: Sum(rhs),rhsMax =  -7.30589318943156E+00  1.77345772904591E-01
 AGCM Date: 2000/04/15  Time: 07:30:00
 cg2d: Sum(rhs),rhsMax =  -7.61212733736304E+00  1.81700233649689E-01
 AGCM Date: 2000/04/15  Time: 07:45:00
 cg2d: Sum(rhs),rhsMax =  -7.92406986294056E+00  1.86347916157955E-01
(PID.TID 0000.0001)      cg2d_init_res =   3.56390570020761E+00
(PID.TID 0000.0001)      cg2d_iters(min,last) =      -1      39
(PID.TID 0000.0001)      cg2d_last_res =   2.26855556251060E-05
(PID.TID 0000.0001) // =======================================================
(PID.TID 0000.0001) // Begin MONITOR dynamic field statistics
(PID.TID 0000.0001) // =======================================================
(PID.TID 0000.0001) %MON time_tsnumber                =                    44
(PID.TID 0000.0001) %MON time_secondsf                =   3.9600000000000E+04
(PID.TID 0000.0001) %MON dynstat_eta_max              =   2.0049075295186E+00
(PID.TID 0000.0001) %MON dynstat_eta_min              =  -2.1197829389480E+00
(PID.TID 0000.0001) %MON dynstat_eta_mean             =   2.5066363756481E-04
(PID.TID 0000.0001) %MON dynstat_eta_sd               =   5.9506549448927E-01
(PID.TID 0000.0001) %MON dynstat_eta_del2             =   1.1952851926684E-04
(PID.TID 0000.0001) %MON dynstat_uvel_max             =   1.0333387367849E+00
(PID.TID 0000.0001) %MON dynstat_uvel_min             =  -1.3617018379569E+00
(PID.TID 0000.0001) %MON dynstat_uvel_mean            =  -4.0701034663322E-03
(PID.TID 0000.0001) %MON dynstat_uvel_sd              =   2.8827106130073E-02
(PID.TID 0000.0001) %MON dynstat_uvel_del2            =   1.4923915245325E-05
(PID.TID 0000.0001) %MON dynstat_vvel_max             =   1.2264518072803E+00
(PID.TID 0000.0001) %MON dynstat_vvel_min             =  -1.2688332362170E+00
(PID.TID 0000.0001) %MON dynstat_vvel_mean            =   2.0370256633857E-03
(PID.TID 0000.0001) %MON dynstat_vvel_sd              =   3.0022419422456E-02
(PID.TID 0000.0001) %MON dynstat_vvel_del2            =   1.4478646048425E-05
(PID.TID 0000.0001) %MON dynstat_wvel_max             =   2.4324138132935E-03
(PID.TID 0000.0001) %MON dynstat_wvel_min             =  -2.4117494894214E-03
(PID.TID 0000.0001) %MON dynstat_wvel_mean            =   1.4639835170877E-20
(PID.TID 0000.0001) %MON dynstat_wvel_sd              =   9.1984727715937E-05
(PID.TID 0000.0001) %MON dynstat_wvel_del2            =   9.3142292928727E-08
(PID.TID 0000.0001) %MON dynstat_theta_max            =   3.2672045657871E+01
(PID.TID 0000.0001) %MON dynstat_theta_min            =  -2.0414890870230E+00
(PID.TID 0000.0001) %MON dynstat_theta_mean           =   3.5889587181525E+00
(PID.TID 0000.0001) %MON dynstat_theta_sd             =   4.4316099500489E+00
(PID.TID 0000.0001) %MON dynstat_theta_del2           =   1.2031346371040E-04
(PID.TID 0000.0001) %MON dynstat_salt_max             =   3.4561700543816E+01
(PID.TID 0000.0001) %MON dynstat_salt_min             =   2.6715815179190E+01
(PID.TID 0000.0001) %MON dynstat_salt_mean            =   3.4499998418546E+01
(PID.TID 0000.0001) %MON dynstat_salt_sd              =   1.8429197637955E-03
(PID.TID 0000.0001) %MON dynstat_salt_del2            =   5.8107773479439E-06
(PID.TID 0000.0001) %MON dynstat_sst_max              =   3.2672045657871E+01
(PID.TID 0000.0001) %MON dynstat_sst_min              =  -1.9283111305221E+00
(PID.TID 0000.0001) %MON dynstat_sst_mean             =   1.8616897223397E+01
(PID.TID 0000.0001) %MON dynstat_sst_sd               =   9.9557242961987E+00
(PID.TID 0000.0001) %MON dynstat_sst_del2             =   1.1332891355227E-03
(PID.TID 0000.0001) %MON dynstat_sss_max              =   3.4561700543816E+01
(PID.TID 0000.0001) %MON dynstat_sss_min              =   2.6715815179190E+01
(PID.TID 0000.0001) %MON dynstat_sss_mean             =   3.4498220272276E+01
(PID.TID 0000.0001) %MON dynstat_sss_sd               =   3.4760928363670E-02
(PID.TID 0000.0001) %MON dynstat_sss_del2             =   2.2832511668532E-04
(PID.TID 0000.0001) %MON forcing_qnet_max             =   1.0542493517442E+03
(PID.TID 0000.0001) %MON forcing_qnet_min             =  -6.8140760100341E+02
(PID.TID 0000.0001) %MON forcing_qnet_mean            =   5.3014510785918E+01
(PID.TID 0000.0001) %MON forcing_qnet_sd              =   1.9711376791618E+02
(PID.TID 0000.0001) %MON forcing_qnet_del2            =   3.6553914238433E-01
(PID.TID 0000.0001) %MON forcing_qsw_max              =   0.0000000000000E+00
(PID.TID 0000.0001) %MON forcing_qsw_min              =  -4.3907872460960E+02
(PID.TID 0000.0001) %MON forcing_qsw_mean             =  -5.3647075642957E+01
(PID.TID 0000.0001) %MON forcing_qsw_sd               =   1.0137454634580E+02
(PID.TID 0000.0001) %MON forcing_qsw_del2             =   1.6760028263909E-01
(PID.TID 0000.0001) %MON forcing_empmr_max            =   1.8046061741188E-03
(PID.TID 0000.0001) %MON forcing_empmr_min            =  -1.4302514493465E-01
(PID.TID 0000.0001) %MON forcing_empmr_mean           =  -1.1282114194377E-05
(PID.TID 0000.0001) %MON forcing_empmr_sd             =   4.9151140513463E-04
(PID.TID 0000.0001) %MON forcing_empmr_del2           =   4.9837738221961E-06
(PID.TID 0000.0001) %MON forcing_fu_max               =   1.0857797861099E+00
(PID.TID 0000.0001) %MON forcing_fu_min               =  -8.7292060256004E-01
(PID.TID 0000.0001) %MON forcing_fu_mean              =   1.3645140575288E-02
(PID.TID 0000.0001) %MON forcing_fu_sd                =   1.0682804483888E-01
(PID.TID 0000.0001) %MON forcing_fu_del2              =   1.4871347578707E-04
(PID.TID 0000.0001) %MON forcing_fv_max               =   7.8427922725677E-01
(PID.TID 0000.0001) %MON forcing_fv_min               =  -6.7520754110583E-01
(PID.TID 0000.0001) %MON forcing_fv_mean              =  -8.2564772866744E-03
(PID.TID 0000.0001) %MON forcing_fv_sd                =   1.0462830256982E-01
(PID.TID 0000.0001) %MON forcing_fv_del2              =   1.1923983534608E-04
(PID.TID 0000.0001) %MON trAdv_CFL_u_max              =   2.0079149114563E-02
(PID.TID 0000.0001) %MON trAdv_CFL_v_max              =   1.8966507066529E-02
(PID.TID 0000.0001) %MON trAdv_CFL_w_max              =   1.1908084889040E-01
(PID.TID 0000.0001) %MON advcfl_uvel_max              =   2.0079659528014E-02
(PID.TID 0000.0001) %MON advcfl_vvel_max              =   1.8742775789264E-02
(PID.TID 0000.0001) %MON advcfl_wvel_max              =   1.1401357872485E-01
(PID.TID 0000.0001) %MON advcfl_W_hf_max              =   1.1908084889040E-01
(PID.TID 0000.0001) %MON pe_b_mean                    =   4.6578756608460E-04
(PID.TID 0000.0001) %MON ke_max                       =   1.0504476965641E+00
(PID.TID 0000.0001) %MON ke_mean                      =   8.4531412801012E-04
(PID.TID 0000.0001) %MON ke_vol                       =   1.3349978769393E+18
(PID.TID 0000.0001) %MON vort_r_min                   =  -2.2844608882549E-05
(PID.TID 0000.0001) %MON vort_r_max                   =   1.7048877943933E-05
(PID.TID 0000.0001) %MON vort_a_mean                  =  -1.9727864647440E-05
(PID.TID 0000.0001) %MON vort_a_sd                    =   7.4541740147337E-05
(PID.TID 0000.0001) %MON vort_p_mean                  =  -2.1760527755546E-05
(PID.TID 0000.0001) %MON vort_p_sd                    =   9.7227111075937E-05
(PID.TID 0000.0001) %MON surfExpan_theta_mean         =  -3.3765188387168E-06
(PID.TID 0000.0001) %MON surfExpan_salt_mean          =   1.3730785622743E-08
(PID.TID 0000.0001) // =======================================================
(PID.TID 0000.0001) // End MONITOR dynamic field statistics
(PID.TID 0000.0001) // =======================================================
 AGCM Date: 2000/04/15  Time: 08:00:00
 cg2d: Sum(rhs),rhsMax =  -8.23797940710151E+00  1.91215403241081E-01
 AGCM Date: 2000/04/15  Time: 08:15:00
 cg2d: Sum(rhs),rhsMax =  -8.55528735521074E+00  1.96228086318325E-01
 AGCM Date: 2000/04/15  Time: 08:30:00
 cg2d: Sum(rhs),rhsMax =  -8.87987863179497E+00  2.01272193231982E-01
 AGCM Date: 2000/04/15  Time: 08:45:00
 cg2d: Sum(rhs),rhsMax =  -9.20532875937547E+00  2.06239459019519E-01
(PID.TID 0000.0001)      cg2d_init_res =   3.39823170507233E+00
(PID.TID 0000.0001)      cg2d_iters(min,last) =      -1      39
(PID.TID 0000.0001)      cg2d_last_res =   2.49607001596992E-05
(PID.TID 0000.0001) // =======================================================
(PID.TID 0000.0001) // Begin MONITOR dynamic field statistics
(PID.TID 0000.0001) // =======================================================
(PID.TID 0000.0001) %MON time_tsnumber                =                    48
(PID.TID 0000.0001) %MON time_secondsf                =   4.3200000000000E+04
(PID.TID 0000.0001) %MON dynstat_eta_max              =   2.1730412309758E+00
(PID.TID 0000.0001) %MON dynstat_eta_min              =  -2.0081309524361E+00
(PID.TID 0000.0001) %MON dynstat_eta_mean             =   2.9119394852856E-04
(PID.TID 0000.0001) %MON dynstat_eta_sd               =   5.9893520706166E-01
(PID.TID 0000.0001) %MON dynstat_eta_del2             =   1.2304294844154E-04
(PID.TID 0000.0001) %MON dynstat_uvel_max             =   1.0351867745741E+00
(PID.TID 0000.0001) %MON dynstat_uvel_min             =  -1.2204565991803E+00
(PID.TID 0000.0001) %MON dynstat_uvel_mean            =  -4.5318535586255E-03
(PID.TID 0000.0001) %MON dynstat_uvel_sd              =   2.8169347380352E-02
(PID.TID 0000.0001) %MON dynstat_uvel_del2            =   1.5103233050575E-05
(PID.TID 0000.0001) %MON dynstat_vvel_max             =   1.1802108953506E+00
(PID.TID 0000.0001) %MON dynstat_vvel_min             =  -1.4116164226478E+00
(PID.TID 0000.0001) %MON dynstat_vvel_mean            =   3.2987858276664E-03
(PID.TID 0000.0001) %MON dynstat_vvel_sd              =   3.0085375324632E-02
(PID.TID 0000.0001) %MON dynstat_vvel_del2            =   1.4867372324104E-05
(PID.TID 0000.0001) %MON dynstat_wvel_max             =   2.3823841921891E-03
(PID.TID 0000.0001) %MON dynstat_wvel_min             =  -2.4251568658641E-03
(PID.TID 0000.0001) %MON dynstat_wvel_mean            =  -9.2146877550763E-21
(PID.TID 0000.0001) %MON dynstat_wvel_sd              =   9.1856289325539E-05
(PID.TID 0000.0001) %MON dynstat_wvel_del2            =   9.1529451316479E-08
(PID.TID 0000.0001) %MON dynstat_theta_max            =   3.2660436642207E+01
(PID.TID 0000.0001) %MON dynstat_theta_min            =  -2.0412656314017E+00
(PID.TID 0000.0001) %MON dynstat_theta_mean           =   3.5889451626840E+00
(PID.TID 0000.0001) %MON dynstat_theta_sd             =   4.4316511663021E+00
(PID.TID 0000.0001) %MON dynstat_theta_del2           =   1.2014940752800E-04
(PID.TID 0000.0001) %MON dynstat_salt_max             =   3.4562051913740E+01
(PID.TID 0000.0001) %MON dynstat_salt_min             =   2.6297987904722E+01
(PID.TID 0000.0001) %MON dynstat_salt_mean            =   3.4499998164054E+01
(PID.TID 0000.0001) %MON dynstat_salt_sd              =   1.9920608948410E-03
(PID.TID 0000.0001) %MON dynstat_salt_del2            =   6.6577865536121E-06
(PID.TID 0000.0001) %MON dynstat_sst_max              =   3.2660436642207E+01
(PID.TID 0000.0001) %MON dynstat_sst_min              =  -1.9256839322945E+00
(PID.TID 0000.0001) %MON dynstat_sst_mean             =   1.8615653440658E+01
(PID.TID 0000.0001) %MON dynstat_sst_sd               =   9.9571644912146E+00
(PID.TID 0000.0001) %MON dynstat_sst_del2             =   1.1323018078412E-03
(PID.TID 0000.0001) %MON dynstat_sss_max              =   3.4562051913740E+01
(PID.TID 0000.0001) %MON dynstat_sss_min              =   2.6297987904722E+01
(PID.TID 0000.0001) %MON dynstat_sss_mean             =   3.4498005715991E+01
(PID.TID 0000.0001) %MON dynstat_sss_sd               =   3.7659847501700E-02
(PID.TID 0000.0001) %MON dynstat_sss_del2             =   2.6205985145840E-04
(PID.TID 0000.0001) %MON forcing_qnet_max             =   9.0846185418990E+02
(PID.TID 0000.0001) %MON forcing_qnet_min             =  -7.0251152772573E+02
(PID.TID 0000.0001) %MON forcing_qnet_mean            =   5.0261111682652E+01
(PID.TID 0000.0001) %MON forcing_qnet_sd              =   1.9340518790649E+02
(PID.TID 0000.0001) %MON forcing_qnet_del2            =   3.6365940934539E-01
(PID.TID 0000.0001) %MON forcing_qsw_max              =   0.0000000000000E+00
(PID.TID 0000.0001) %MON forcing_qsw_min              =  -4.4182738343131E+02
(PID.TID 0000.0001) %MON forcing_qsw_mean             =  -5.3794596257508E+01
(PID.TID 0000.0001) %MON forcing_qsw_sd               =   9.7956845104577E+01
(PID.TID 0000.0001) %MON forcing_qsw_del2             =   1.6503786758050E-01
(PID.TID 0000.0001) %MON forcing_empmr_max            =   1.7306858208030E-03
(PID.TID 0000.0001) %MON forcing_empmr_min            =  -1.3002811372280E-01
(PID.TID 0000.0001) %MON forcing_empmr_mean           =  -1.1770647484270E-05
(PID.TID 0000.0001) %MON forcing_empmr_sd             =   4.6853754495890E-04
(PID.TID 0000.0001) %MON forcing_empmr_del2           =   4.8717569843365E-06
(PID.TID 0000.0001) %MON forcing_fu_max               =   1.0888093113899E+00
(PID.TID 0000.0001) %MON forcing_fu_min               =  -8.3648636937141E-01
(PID.TID 0000.0001) %MON forcing_fu_mean              =   1.3393603591702E-02
(PID.TID 0000.0001) %MON forcing_fu_sd                =   1.0618475747712E-01
(PID.TID 0000.0001) %MON forcing_fu_del2              =   1.4632357341746E-04
(PID.TID 0000.0001) %MON forcing_fv_max               =   7.8494906425476E-01
(PID.TID 0000.0001) %MON forcing_fv_min               =  -6.8703307392327E-01
(PID.TID 0000.0001) %MON forcing_fv_mean              =  -8.3037735513062E-03
(PID.TID 0000.0001) %MON forcing_fv_sd                =   1.0417062631886E-01
(PID.TID 0000.0001) %MON forcing_fv_del2              =   1.1759729791332E-04
(PID.TID 0000.0001) %MON trAdv_CFL_u_max              =   1.7901809774388E-02
(PID.TID 0000.0001) %MON trAdv_CFL_v_max              =   1.6181756399286E-02
(PID.TID 0000.0001) %MON trAdv_CFL_w_max              =   1.2274935170324E-01
(PID.TID 0000.0001) %MON advcfl_uvel_max              =   1.7639492245899E-02
(PID.TID 0000.0001) %MON advcfl_vvel_max              =   1.6001441202581E-02
(PID.TID 0000.0001) %MON advcfl_wvel_max              =   1.1752597503501E-01
(PID.TID 0000.0001) %MON advcfl_W_hf_max              =   1.2274935170324E-01
(PID.TID 0000.0001) %MON pe_b_mean                    =   4.7186532729197E-04
(PID.TID 0000.0001) %MON ke_max                       =   1.0547802727163E+00
(PID.TID 0000.0001) %MON ke_mean                      =   8.3422711789598E-04
(PID.TID 0000.0001) %MON ke_vol                       =   1.3349978769393E+18
(PID.TID 0000.0001) %MON vort_r_min                   =  -2.1079301149022E-05
(PID.TID 0000.0001) %MON vort_r_max                   =   1.6793176018558E-05
(PID.TID 0000.0001) %MON vort_a_mean                  =  -1.9727864647440E-05
(PID.TID 0000.0001) %MON vort_a_sd                    =   7.4542102471074E-05
(PID.TID 0000.0001) %MON vort_p_mean                  =  -2.1760527755546E-05
(PID.TID 0000.0001) %MON vort_p_sd                    =   9.7228963683901E-05
(PID.TID 0000.0001) %MON surfExpan_theta_mean         =   4.7627086061550E-06
(PID.TID 0000.0001) %MON surfExpan_salt_mean          =   1.2448809707116E-08
(PID.TID 0000.0001) // =======================================================
(PID.TID 0000.0001) // End MONITOR dynamic field statistics
(PID.TID 0000.0001) // =======================================================
 AGCM Date: 2000/04/15  Time: 09:00:00
 Writing:    148 Slices (  5 Nodes,  1 PartitionRoot) to File:  TEST.geosgcm_surf.20000415_0730z.nc4
 Writing:    111 Slices (  5 Nodes,  1 PartitionRoot) to File:  TEST.mit_ocn.20000415_0730z.nc4
 cg2d: Sum(rhs),rhsMax =  -9.52872724796948E+00  2.11005683494546E-01
 AGCM Date: 2000/04/15  Time: 09:15:00
 cg2d: Sum(rhs),rhsMax =  -9.86107095831689E+00  2.15447585844089E-01
 AGCM Date: 2000/04/15  Time: 09:30:00
 cg2d: Sum(rhs),rhsMax =  -1.01919497299318E+01  2.19445063059461E-01
 AGCM Date: 2000/04/15  Time: 09:45:00
 cg2d: Sum(rhs),rhsMax =  -1.05283662675976E+01  2.22963481382924E-01
(PID.TID 0000.0001)      cg2d_init_res =   3.24034202507311E+00
(PID.TID 0000.0001)      cg2d_iters(min,last) =      -1      39
(PID.TID 0000.0001)      cg2d_last_res =   2.35445948468390E-05
(PID.TID 0000.0001) // =======================================================
(PID.TID 0000.0001) // Begin MONITOR dynamic field statistics
(PID.TID 0000.0001) // =======================================================
(PID.TID 0000.0001) %MON time_tsnumber                =                    52
(PID.TID 0000.0001) %MON time_secondsf                =   4.6800000000000E+04
(PID.TID 0000.0001) %MON dynstat_eta_max              =   2.3006748696971E+00
(PID.TID 0000.0001) %MON dynstat_eta_min              =  -2.3771250593776E+00
(PID.TID 0000.0001) %MON dynstat_eta_mean             =   3.3304585041487E-04
(PID.TID 0000.0001) %MON dynstat_eta_sd               =   6.0416508052895E-01
(PID.TID 0000.0001) %MON dynstat_eta_del2             =   1.2326913483941E-04
(PID.TID 0000.0001) %MON dynstat_uvel_max             =   1.0414980538539E+00
(PID.TID 0000.0001) %MON dynstat_uvel_min             =  -1.0508736612678E+00
(PID.TID 0000.0001) %MON dynstat_uvel_mean            =  -5.0615259393319E-03
(PID.TID 0000.0001) %MON dynstat_uvel_sd              =   2.7619814512522E-02
(PID.TID 0000.0001) %MON dynstat_uvel_del2            =   1.5304527704369E-05
(PID.TID 0000.0001) %MON dynstat_vvel_max             =   1.2701719083258E+00
(PID.TID 0000.0001) %MON dynstat_vvel_min             =  -1.4739028929849E+00
(PID.TID 0000.0001) %MON dynstat_vvel_mean            =   3.8768456139084E-03
(PID.TID 0000.0001) %MON dynstat_vvel_sd              =   2.9937615149186E-02
(PID.TID 0000.0001) %MON dynstat_vvel_del2            =   1.5199412778709E-05
(PID.TID 0000.0001) %MON dynstat_wvel_max             =   2.2548106275873E-03
(PID.TID 0000.0001) %MON dynstat_wvel_min             =  -2.4249034850991E-03
(PID.TID 0000.0001) %MON dynstat_wvel_mean            =  -2.6880971935512E-21
(PID.TID 0000.0001) %MON dynstat_wvel_sd              =   9.0760575712668E-05
(PID.TID 0000.0001) %MON dynstat_wvel_del2            =   9.0632771964851E-08
(PID.TID 0000.0001) %MON dynstat_theta_max            =   3.2646048848339E+01
(PID.TID 0000.0001) %MON dynstat_theta_min            =  -2.0410771399070E+00
(PID.TID 0000.0001) %MON dynstat_theta_mean           =   3.5889251935745E+00
(PID.TID 0000.0001) %MON dynstat_theta_sd             =   4.4316700146543E+00
(PID.TID 0000.0001) %MON dynstat_theta_del2           =   1.1999442684803E-04
(PID.TID 0000.0001) %MON dynstat_salt_max             =   3.4562348621669E+01
(PID.TID 0000.0001) %MON dynstat_salt_min             =   2.5953824896051E+01
(PID.TID 0000.0001) %MON dynstat_salt_mean            =   3.4499997902419E+01
(PID.TID 0000.0001) %MON dynstat_salt_sd              =   2.1255386521550E-03
(PID.TID 0000.0001) %MON dynstat_salt_del2            =   7.4314584063969E-06
(PID.TID 0000.0001) %MON dynstat_sst_max              =   3.2646048848339E+01
(PID.TID 0000.0001) %MON dynstat_sst_min              =  -1.9230752898344E+00
(PID.TID 0000.0001) %MON dynstat_sst_mean             =   1.8614624281571E+01
(PID.TID 0000.0001) %MON dynstat_sst_sd               =   9.9583843629004E+00
(PID.TID 0000.0001) %MON dynstat_sst_del2             =   1.1308282421145E-03
(PID.TID 0000.0001) %MON dynstat_sss_max              =   3.4562348621669E+01
(PID.TID 0000.0001) %MON dynstat_sss_min              =   2.5953824896051E+01
(PID.TID 0000.0001) %MON dynstat_sss_mean             =   3.4497794262175E+01
(PID.TID 0000.0001) %MON dynstat_sss_sd               =   4.0247301723821E-02
(PID.TID 0000.0001) %MON dynstat_sss_del2             =   2.9278249891002E-04
(PID.TID 0000.0001) %MON forcing_qnet_max             =   1.2333970975466E+03
(PID.TID 0000.0001) %MON forcing_qnet_min             =  -6.9680554079551E+02
(PID.TID 0000.0001) %MON forcing_qnet_mean            =   4.4189944365562E+01
(PID.TID 0000.0001) %MON forcing_qnet_sd              =   1.9148599462451E+02
(PID.TID 0000.0001) %MON forcing_qnet_del2            =   3.6889880120209E-01
(PID.TID 0000.0001) %MON forcing_qsw_max              =   0.0000000000000E+00
(PID.TID 0000.0001) %MON forcing_qsw_min              =  -4.2158676145087E+02
(PID.TID 0000.0001) %MON forcing_qsw_mean             =  -5.5574032982792E+01
(PID.TID 0000.0001) %MON forcing_qsw_sd               =   9.5677204435845E+01
(PID.TID 0000.0001) %MON forcing_qsw_del2             =   1.6441717149771E-01
(PID.TID 0000.0001) %MON forcing_empmr_max            =   1.6611057799309E-03
(PID.TID 0000.0001) %MON forcing_empmr_min            =  -1.0402102023363E-01
(PID.TID 0000.0001) %MON forcing_empmr_mean           =  -1.2167272762017E-05
(PID.TID 0000.0001) %MON forcing_empmr_sd             =   4.2288298092269E-04
(PID.TID 0000.0001) %MON forcing_empmr_del2           =   4.4433375386136E-06
(PID.TID 0000.0001) %MON forcing_fu_max               =   1.0723837018013E+00
(PID.TID 0000.0001) %MON forcing_fu_min               =  -7.9845544695854E-01
(PID.TID 0000.0001) %MON forcing_fu_mean              =   1.3138432442589E-02
(PID.TID 0000.0001) %MON forcing_fu_sd                =   1.0564322919254E-01
(PID.TID 0000.0001) %MON forcing_fu_del2              =   1.4452394974378E-04
(PID.TID 0000.0001) %MON forcing_fv_max               =   7.9129332304001E-01
(PID.TID 0000.0001) %MON forcing_fv_min               =  -6.8299961767723E-01
(PID.TID 0000.0001) %MON forcing_fv_mean              =  -8.1874584925385E-03
(PID.TID 0000.0001) %MON forcing_fv_sd                =   1.0378522174108E-01
(PID.TID 0000.0001) %MON forcing_fv_del2              =   1.1721125054776E-04
(PID.TID 0000.0001) %MON trAdv_CFL_u_max              =   1.5660013987917E-02
(PID.TID 0000.0001) %MON trAdv_CFL_v_max              =   1.3858752331025E-02
(PID.TID 0000.0001) %MON trAdv_CFL_w_max              =   1.2269663675649E-01
(PID.TID 0000.0001) %MON advcfl_uvel_max              =   1.5429016176758E-02
(PID.TID 0000.0001) %MON advcfl_vvel_max              =   1.4066904567183E-02
(PID.TID 0000.0001) %MON advcfl_wvel_max              =   1.1747550327749E-01
(PID.TID 0000.0001) %MON advcfl_W_hf_max              =   1.2269663675649E-01
(PID.TID 0000.0001) %MON pe_b_mean                    =   4.8014194876800E-04
(PID.TID 0000.0001) %MON ke_max                       =   1.0274043746753E+00
(PID.TID 0000.0001) %MON ke_mean                      =   8.1962014391645E-04
(PID.TID 0000.0001) %MON ke_vol                       =   1.3349978769393E+18
(PID.TID 0000.0001) %MON vort_r_min                   =  -2.3599941406146E-05
(PID.TID 0000.0001) %MON vort_r_max                   =   1.7534251751255E-05
(PID.TID 0000.0001) %MON vort_a_mean                  =  -1.9727864647440E-05
(PID.TID 0000.0001) %MON vort_a_sd                    =   7.4542332187130E-05
(PID.TID 0000.0001) %MON vort_p_mean                  =  -2.1760527755546E-05
(PID.TID 0000.0001) %MON vort_p_sd                    =   9.7230510617733E-05
(PID.TID 0000.0001) %MON surfExpan_theta_mean         =   1.2156004437027E-05
(PID.TID 0000.0001) %MON surfExpan_salt_mean          =   6.8424903700688E-09
(PID.TID 0000.0001) // =======================================================
(PID.TID 0000.0001) // End MONITOR dynamic field statistics
(PID.TID 0000.0001) // =======================================================
 AGCM Date: 2000/04/15  Time: 10:00:00
 cg2d: Sum(rhs),rhsMax =  -1.08592902791572E+01  2.26506561118163E-01
 AGCM Date: 2000/04/15  Time: 10:15:00
 cg2d: Sum(rhs),rhsMax =  -1.11909962004014E+01  2.29335164690550E-01
 AGCM Date: 2000/04/15  Time: 10:30:00
 cg2d: Sum(rhs),rhsMax =  -1.15316543772590E+01  2.31392556817074E-01
 AGCM Date: 2000/04/15  Time: 10:45:00
 cg2d: Sum(rhs),rhsMax =  -1.18749956044142E+01  2.32655606426030E-01
(PID.TID 0000.0001)      cg2d_init_res =   3.23945398371008E+00
(PID.TID 0000.0001)      cg2d_iters(min,last) =      -1      38
(PID.TID 0000.0001)      cg2d_last_res =   2.79313193479052E-05
(PID.TID 0000.0001) // =======================================================
(PID.TID 0000.0001) // Begin MONITOR dynamic field statistics
(PID.TID 0000.0001) // =======================================================
(PID.TID 0000.0001) %MON time_tsnumber                =                    56
(PID.TID 0000.0001) %MON time_secondsf                =   5.0400000000000E+04
(PID.TID 0000.0001) %MON dynstat_eta_max              =   2.4089524163071E+00
(PID.TID 0000.0001) %MON dynstat_eta_min              =  -2.3474324947641E+00
(PID.TID 0000.0001) %MON dynstat_eta_mean             =   3.7564403718698E-04
(PID.TID 0000.0001) %MON dynstat_eta_sd               =   6.0852897954603E-01
(PID.TID 0000.0001) %MON dynstat_eta_del2             =   1.2215616083195E-04
(PID.TID 0000.0001) %MON dynstat_uvel_max             =   1.0070927120312E+00
(PID.TID 0000.0001) %MON dynstat_uvel_min             =  -9.9315273658011E-01
(PID.TID 0000.0001) %MON dynstat_uvel_mean            =  -5.4794008388056E-03
(PID.TID 0000.0001) %MON dynstat_uvel_sd              =   2.7322206306367E-02
(PID.TID 0000.0001) %MON dynstat_uvel_del2            =   1.5555112437297E-05
(PID.TID 0000.0001) %MON dynstat_vvel_max             =   1.3008886771985E+00
(PID.TID 0000.0001) %MON dynstat_vvel_min             =  -1.5368198985433E+00
(PID.TID 0000.0001) %MON dynstat_vvel_mean            =   3.7614375711093E-03
(PID.TID 0000.0001) %MON dynstat_vvel_sd              =   2.9662419639115E-02
(PID.TID 0000.0001) %MON dynstat_vvel_del2            =   1.5443281858404E-05
(PID.TID 0000.0001) %MON dynstat_wvel_max             =   2.0844528689761E-03
(PID.TID 0000.0001) %MON dynstat_wvel_min             =  -2.3939366637315E-03
(PID.TID 0000.0001) %MON dynstat_wvel_mean            =  -4.3654583239674E-21
(PID.TID 0000.0001) %MON dynstat_wvel_sd              =   8.8905327157686E-05
(PID.TID 0000.0001) %MON dynstat_wvel_del2            =   9.0469733438095E-08
(PID.TID 0000.0001) %MON dynstat_theta_max            =   3.2636575096553E+01
(PID.TID 0000.0001) %MON dynstat_theta_min            =  -2.0409403236946E+00
(PID.TID 0000.0001) %MON dynstat_theta_mean           =   3.5889015395319E+00
(PID.TID 0000.0001) %MON dynstat_theta_sd             =   4.4316536112532E+00
(PID.TID 0000.0001) %MON dynstat_theta_del2           =   1.1985211893481E-04
(PID.TID 0000.0001) %MON dynstat_salt_max             =   3.4562678023940E+01
(PID.TID 0000.0001) %MON dynstat_salt_min             =   2.5619208651677E+01
(PID.TID 0000.0001) %MON dynstat_salt_mean            =   3.4499997635958E+01
(PID.TID 0000.0001) %MON dynstat_salt_sd              =   2.2471810049958E-03
(PID.TID 0000.0001) %MON dynstat_salt_del2            =   8.1094742612055E-06
(PID.TID 0000.0001) %MON dynstat_sst_max              =   3.2631666624201E+01
(PID.TID 0000.0001) %MON dynstat_sst_min              =  -1.9204970491957E+00
(PID.TID 0000.0001) %MON dynstat_sst_mean             =   1.8614069681851E+01
(PID.TID 0000.0001) %MON dynstat_sst_sd               =   9.9593045345960E+00
(PID.TID 0000.0001) %MON dynstat_sst_del2             =   1.1286323006004E-03
(PID.TID 0000.0001) %MON dynstat_sss_max              =   3.4562678023940E+01
(PID.TID 0000.0001) %MON dynstat_sss_min              =   2.5619208651677E+01
(PID.TID 0000.0001) %MON dynstat_sss_mean             =   3.4497597570356E+01
(PID.TID 0000.0001) %MON dynstat_sss_sd               =   4.2600681931946E-02
(PID.TID 0000.0001) %MON dynstat_sss_del2             =   3.1959390628818E-04
(PID.TID 0000.0001) %MON forcing_qnet_max             =   8.6742492675781E+02
(PID.TID 0000.0001) %MON forcing_qnet_min             =  -6.6632054697624E+02
(PID.TID 0000.0001) %MON forcing_qnet_mean            =   3.7317100420534E+01
(PID.TID 0000.0001) %MON forcing_qnet_sd              =   1.9366078866644E+02
(PID.TID 0000.0001) %MON forcing_qnet_del2            =   3.6223209945946E-01
(PID.TID 0000.0001) %MON forcing_qsw_max              =   0.0000000000000E+00
(PID.TID 0000.0001) %MON forcing_qsw_min              =  -3.9566867232741E+02
(PID.TID 0000.0001) %MON forcing_qsw_mean             =  -5.8068299093810E+01
(PID.TID 0000.0001) %MON forcing_qsw_sd               =   9.7391244377107E+01
(PID.TID 0000.0001) %MON forcing_qsw_del2             =   1.6637478493408E-01
(PID.TID 0000.0001) %MON forcing_empmr_max            =   1.5923394821584E-03
(PID.TID 0000.0001) %MON forcing_empmr_min            =  -9.0828210115433E-02
(PID.TID 0000.0001) %MON forcing_empmr_mean           =  -1.2417719979471E-05
(PID.TID 0000.0001) %MON forcing_empmr_sd             =   3.7360541286145E-04
(PID.TID 0000.0001) %MON forcing_empmr_del2           =   3.8976024909499E-06
(PID.TID 0000.0001) %MON forcing_fu_max               =   1.0663682818413E+00
(PID.TID 0000.0001) %MON forcing_fu_min               =  -7.6965627074242E-01
(PID.TID 0000.0001) %MON forcing_fu_mean              =   1.2778583356688E-02
(PID.TID 0000.0001) %MON forcing_fu_sd                =   1.0508706220634E-01
(PID.TID 0000.0001) %MON forcing_fu_del2              =   1.4300959134034E-04
(PID.TID 0000.0001) %MON forcing_fv_max               =   7.9089841246605E-01
(PID.TID 0000.0001) %MON forcing_fv_min               =  -6.9425964285142E-01
(PID.TID 0000.0001) %MON forcing_fv_mean              =  -8.0177025001865E-03
(PID.TID 0000.0001) %MON forcing_fv_sd                =   1.0329421805504E-01
(PID.TID 0000.0001) %MON forcing_fv_del2              =   1.1669737482707E-04
(PID.TID 0000.0001) %MON trAdv_CFL_u_max              =   1.4799862557913E-02
(PID.TID 0000.0001) %MON trAdv_CFL_v_max              =   1.3528138694326E-02
(PID.TID 0000.0001) %MON trAdv_CFL_w_max              =   1.2290842783443E-01
(PID.TID 0000.0001) %MON advcfl_uvel_max              =   1.4581552667520E-02
(PID.TID 0000.0001) %MON advcfl_vvel_max              =   1.3547130256452E-02
(PID.TID 0000.0001) %MON advcfl_wvel_max              =   1.1757973912150E-01
(PID.TID 0000.0001) %MON advcfl_W_hf_max              =   1.2290842783443E-01
(PID.TID 0000.0001) %MON pe_b_mean                    =   4.8710319022886E-04
(PID.TID 0000.0001) %MON ke_max                       =   1.1257950177515E+00
(PID.TID 0000.0001) %MON ke_mean                      =   8.0552619662598E-04
(PID.TID 0000.0001) %MON ke_vol                       =   1.3349978769393E+18
(PID.TID 0000.0001) %MON vort_r_min                   =  -2.5871136968401E-05
(PID.TID 0000.0001) %MON vort_r_max                   =   1.8275176754367E-05
(PID.TID 0000.0001) %MON vort_a_mean                  =  -1.9727864647440E-05
(PID.TID 0000.0001) %MON vort_a_sd                    =   7.4542441490185E-05
(PID.TID 0000.0001) %MON vort_p_mean                  =  -2.1760527755546E-05
(PID.TID 0000.0001) %MON vort_p_sd                    =   9.7231548705776E-05
(PID.TID 0000.0001) %MON surfExpan_theta_mean         =   1.6357276524164E-05
(PID.TID 0000.0001) %MON surfExpan_salt_mean          =  -1.1754265594314E-09
(PID.TID 0000.0001) // =======================================================
(PID.TID 0000.0001) // End MONITOR dynamic field statistics
(PID.TID 0000.0001) // =======================================================
 AGCM Date: 2000/04/15  Time: 11:00:00
 cg2d: Sum(rhs),rhsMax =  -1.22253607487569E+01  2.33137739161860E-01
 AGCM Date: 2000/04/15  Time: 11:15:00
 cg2d: Sum(rhs),rhsMax =  -1.25758304845249E+01  2.32885807154381E-01
 AGCM Date: 2000/04/15  Time: 11:30:00
 cg2d: Sum(rhs),rhsMax =  -1.29278042690270E+01  2.31976874700872E-01
 AGCM Date: 2000/04/15  Time: 11:45:00
 cg2d: Sum(rhs),rhsMax =  -1.32748440949590E+01  2.30515544863702E-01
(PID.TID 0000.0001)      cg2d_init_res =   3.26691340068623E+00
(PID.TID 0000.0001)      cg2d_iters(min,last) =      -1      38
(PID.TID 0000.0001)      cg2d_last_res =   2.21884034196040E-05
(PID.TID 0000.0001) // =======================================================
(PID.TID 0000.0001) // Begin MONITOR dynamic field statistics
(PID.TID 0000.0001) // =======================================================
(PID.TID 0000.0001) %MON time_tsnumber                =                    60
(PID.TID 0000.0001) %MON time_secondsf                =   5.4000000000000E+04
(PID.TID 0000.0001) %MON dynstat_eta_max              =   2.3793417830982E+00
(PID.TID 0000.0001) %MON dynstat_eta_min              =  -2.4528557958470E+00
(PID.TID 0000.0001) %MON dynstat_eta_mean             =   4.1992571576252E-04
(PID.TID 0000.0001) %MON dynstat_eta_sd               =   6.1158232331102E-01
(PID.TID 0000.0001) %MON dynstat_eta_del2             =   1.2053427126429E-04
(PID.TID 0000.0001) %MON dynstat_uvel_max             =   1.0103549444788E+00
(PID.TID 0000.0001) %MON dynstat_uvel_min             =  -1.0171581200548E+00
(PID.TID 0000.0001) %MON dynstat_uvel_mean            =  -5.6306913409902E-03
(PID.TID 0000.0001) %MON dynstat_uvel_sd              =   2.7196779408364E-02
(PID.TID 0000.0001) %MON dynstat_uvel_del2            =   1.5816890748372E-05
(PID.TID 0000.0001) %MON dynstat_vvel_max             =   1.2707895728478E+00
(PID.TID 0000.0001) %MON dynstat_vvel_min             =  -1.6565839573046E+00
(PID.TID 0000.0001) %MON dynstat_vvel_mean            =   3.0805111734341E-03
(PID.TID 0000.0001) %MON dynstat_vvel_sd              =   2.9420316831542E-02
(PID.TID 0000.0001) %MON dynstat_vvel_del2            =   1.5577916265986E-05
(PID.TID 0000.0001) %MON dynstat_wvel_max             =   2.2089583942929E-03
(PID.TID 0000.0001) %MON dynstat_wvel_min             =  -2.3054525780009E-03
(PID.TID 0000.0001) %MON dynstat_wvel_mean            =  -2.3439861976975E-21
(PID.TID 0000.0001) %MON dynstat_wvel_sd              =   8.6554845747917E-05
(PID.TID 0000.0001) %MON dynstat_wvel_del2            =   9.0649336036306E-08
(PID.TID 0000.0001) %MON dynstat_theta_max            =   3.2635349204138E+01
(PID.TID 0000.0001) %MON dynstat_theta_min            =  -2.0408485519654E+00
(PID.TID 0000.0001) %MON dynstat_theta_mean           =   3.5888774053853E+00
(PID.TID 0000.0001) %MON dynstat_theta_sd             =   4.4316032686024E+00
(PID.TID 0000.0001) %MON dynstat_theta_del2           =   1.1973072619117E-04
(PID.TID 0000.0001) %MON dynstat_salt_max             =   3.4563007221255E+01
(PID.TID 0000.0001) %MON dynstat_salt_min             =   2.5254105397461E+01
(PID.TID 0000.0001) %MON dynstat_salt_mean            =   3.4499997355537E+01
(PID.TID 0000.0001) %MON dynstat_salt_sd              =   2.3607339146135E-03
(PID.TID 0000.0001) %MON dynstat_salt_del2            =   8.6835920297615E-06
(PID.TID 0000.0001) %MON dynstat_sst_max              =   3.2617470366897E+01
(PID.TID 0000.0001) %MON dynstat_sst_min              =  -1.9179668405959E+00
(PID.TID 0000.0001) %MON dynstat_sst_mean             =   1.8614009879785E+01
(PID.TID 0000.0001) %MON dynstat_sst_sd               =   9.9598790586513E+00
(PID.TID 0000.0001) %MON dynstat_sst_del2             =   1.1260569403478E-03
(PID.TID 0000.0001) %MON dynstat_sss_max              =   3.4563007221255E+01
(PID.TID 0000.0001) %MON dynstat_sss_min              =   2.5254105397461E+01
(PID.TID 0000.0001) %MON dynstat_sss_mean             =   3.4497416972979E+01
(PID.TID 0000.0001) %MON dynstat_sss_sd               =   4.4790445257504E-02
(PID.TID 0000.0001) %MON dynstat_sss_del2             =   3.4214215297866E-04
(PID.TID 0000.0001) %MON forcing_qnet_max             =   1.1460321044922E+03
(PID.TID 0000.0001) %MON forcing_qnet_min             =  -6.5127833557887E+02
(PID.TID 0000.0001) %MON forcing_qnet_mean            =   3.1551212016945E+01
(PID.TID 0000.0001) %MON forcing_qnet_sd              =   2.0126222859425E+02
(PID.TID 0000.0001) %MON forcing_qnet_del2            =   3.7807891326311E-01
(PID.TID 0000.0001) %MON forcing_qsw_max              =   0.0000000000000E+00
(PID.TID 0000.0001) %MON forcing_qsw_min              =  -4.0874385521840E+02
(PID.TID 0000.0001) %MON forcing_qsw_mean             =  -6.0311181377570E+01
(PID.TID 0000.0001) %MON forcing_qsw_sd               =   1.0303993346645E+02
(PID.TID 0000.0001) %MON forcing_qsw_del2             =   1.7090576130005E-01
(PID.TID 0000.0001) %MON forcing_empmr_max            =   1.5273708850145E-03
(PID.TID 0000.0001) %MON forcing_empmr_min            =  -8.1079319119453E-02
(PID.TID 0000.0001) %MON forcing_empmr_mean           =  -1.2551488255250E-05
(PID.TID 0000.0001) %MON forcing_empmr_sd             =   3.3661463568533E-04
(PID.TID 0000.0001) %MON forcing_empmr_del2           =   3.3367686501512E-06
(PID.TID 0000.0001) %MON forcing_fu_max               =   1.0533891320229E+00
(PID.TID 0000.0001) %MON forcing_fu_min               =  -7.1628081798554E-01
(PID.TID 0000.0001) %MON forcing_fu_mean              =   1.2353811662885E-02
(PID.TID 0000.0001) %MON forcing_fu_sd                =   1.0417690010856E-01
(PID.TID 0000.0001) %MON forcing_fu_del2              =   1.4124051344578E-04
(PID.TID 0000.0001) %MON forcing_fv_max               =   8.0191075801849E-01
(PID.TID 0000.0001) %MON forcing_fv_min               =  -7.0198680977337E-01
(PID.TID 0000.0001) %MON forcing_fv_mean              =  -7.7578717214496E-03
(PID.TID 0000.0001) %MON forcing_fv_sd                =   1.0304374024483E-01
(PID.TID 0000.0001) %MON forcing_fv_del2              =   1.1673728213699E-04
(PID.TID 0000.0001) %MON trAdv_CFL_u_max              =   1.5157588376903E-02
(PID.TID 0000.0001) %MON trAdv_CFL_v_max              =   1.3933530827241E-02
(PID.TID 0000.0001) %MON trAdv_CFL_w_max              =   1.2401097496563E-01
(PID.TID 0000.0001) %MON advcfl_uvel_max              =   1.5273904687300E-02
(PID.TID 0000.0001) %MON advcfl_vvel_max              =   1.3953091501648E-02
(PID.TID 0000.0001) %MON advcfl_wvel_max              =   1.1848390900995E-01
(PID.TID 0000.0001) %MON advcfl_W_hf_max              =   1.2401097496563E-01
(PID.TID 0000.0001) %MON pe_b_mean                    =   4.9200365800828E-04
(PID.TID 0000.0001) %MON ke_max                       =   1.1513287569036E+00
(PID.TID 0000.0001) %MON ke_mean                      =   7.9389513728689E-04
(PID.TID 0000.0001) %MON ke_vol                       =   1.3349978769393E+18
(PID.TID 0000.0001) %MON vort_r_min                   =  -2.7845739409908E-05
(PID.TID 0000.0001) %MON vort_r_max                   =   1.9054023675445E-05
(PID.TID 0000.0001) %MON vort_a_mean                  =  -1.9727864647440E-05
(PID.TID 0000.0001) %MON vort_a_sd                    =   7.4542461482722E-05
(PID.TID 0000.0001) %MON vort_p_mean                  =  -2.1760527755546E-05
(PID.TID 0000.0001) %MON vort_p_sd                    =   9.7232003815985E-05
(PID.TID 0000.0001) %MON surfExpan_theta_mean         =   1.6988552582828E-05
(PID.TID 0000.0001) %MON surfExpan_salt_mean          =  -7.8386415859133E-09
(PID.TID 0000.0001) // =======================================================
(PID.TID 0000.0001) // End MONITOR dynamic field statistics
(PID.TID 0000.0001) // =======================================================
 AGCM Date: 2000/04/15  Time: 12:00:00
 Writing:    483 Slices (  4 Nodes,  2 PartitionRoot) to File:  TEST.geosgcm_prog.20000415_1200z.nc4
 Writing:    148 Slices (  1 Nodes,  1 PartitionRoot) to File:  TEST.geosgcm_surf.20000415_1030z.nc4
 Writing:    111 Slices (  1 Nodes,  1 PartitionRoot) to File:  TEST.mit_ocn.20000415_1030z.nc4
 cg2d: Sum(rhs),rhsMax =  -1.36176612889606E+01  2.28624446119643E-01
 AGCM Date: 2000/04/15  Time: 12:15:00
 cg2d: Sum(rhs),rhsMax =  -1.39598180632605E+01  2.26441028511992E-01
 AGCM Date: 2000/04/15  Time: 12:30:00
 cg2d: Sum(rhs),rhsMax =  -1.43116001979534E+01  2.24104142894577E-01
 AGCM Date: 2000/04/15  Time: 12:45:00
 cg2d: Sum(rhs),rhsMax =  -1.46817031629548E+01  2.21749989404506E-01
(PID.TID 0000.0001)      cg2d_init_res =   3.18850963859038E+00
(PID.TID 0000.0001)      cg2d_iters(min,last) =      -1      37
(PID.TID 0000.0001)      cg2d_last_res =   2.76719997199516E-05
(PID.TID 0000.0001) // =======================================================
(PID.TID 0000.0001) // Begin MONITOR dynamic field statistics
(PID.TID 0000.0001) // =======================================================
(PID.TID 0000.0001) %MON time_tsnumber                =                    64
(PID.TID 0000.0001) %MON time_secondsf                =   5.7600000000000E+04
(PID.TID 0000.0001) %MON dynstat_eta_max              =   2.2456353446078E+00
(PID.TID 0000.0001) %MON dynstat_eta_min              =  -2.3743745417776E+00
(PID.TID 0000.0001) %MON dynstat_eta_mean             =   4.6442916129290E-04
(PID.TID 0000.0001) %MON dynstat_eta_sd               =   6.1389163586405E-01
(PID.TID 0000.0001) %MON dynstat_eta_del2             =   1.2220509804492E-04
(PID.TID 0000.0001) %MON dynstat_uvel_max             =   1.0278234670243E+00
(PID.TID 0000.0001) %MON dynstat_uvel_min             =  -9.9156258205361E-01
(PID.TID 0000.0001) %MON dynstat_uvel_mean            =  -5.4130484186162E-03
(PID.TID 0000.0001) %MON dynstat_uvel_sd              =   2.7113041632828E-02
(PID.TID 0000.0001) %MON dynstat_uvel_del2            =   1.6052645126194E-05
(PID.TID 0000.0001) %MON dynstat_vvel_max             =   1.1854836393440E+00
(PID.TID 0000.0001) %MON dynstat_vvel_min             =  -1.6941903929261E+00
(PID.TID 0000.0001) %MON dynstat_vvel_mean            =   2.0406850951768E-03
(PID.TID 0000.0001) %MON dynstat_vvel_sd              =   2.9359014047337E-02
(PID.TID 0000.0001) %MON dynstat_vvel_del2            =   1.5615142488461E-05
(PID.TID 0000.0001) %MON dynstat_wvel_max             =   2.4637001509447E-03
(PID.TID 0000.0001) %MON dynstat_wvel_min             =  -2.3831257970525E-03
(PID.TID 0000.0001) %MON dynstat_wvel_mean            =   2.0387496658106E-21
(PID.TID 0000.0001) %MON dynstat_wvel_sd              =   8.4123329107330E-05
(PID.TID 0000.0001) %MON dynstat_wvel_del2            =   9.0851364134415E-08
(PID.TID 0000.0001) %MON dynstat_theta_max            =   3.2618037493151E+01
(PID.TID 0000.0001) %MON dynstat_theta_min            =  -2.0407748772978E+00
(PID.TID 0000.0001) %MON dynstat_theta_mean           =   3.5888556839505E+00
(PID.TID 0000.0001) %MON dynstat_theta_sd             =   4.4315335827069E+00
(PID.TID 0000.0001) %MON dynstat_theta_del2           =   1.1962987530241E-04
(PID.TID 0000.0001) %MON dynstat_salt_max             =   3.4563335692086E+01
(PID.TID 0000.0001) %MON dynstat_salt_min             =   2.4793472447593E+01
(PID.TID 0000.0001) %MON dynstat_salt_mean            =   3.4499997076390E+01
(PID.TID 0000.0001) %MON dynstat_salt_sd              =   2.4756675083023E-03
(PID.TID 0000.0001) %MON dynstat_salt_del2            =   9.1459851931554E-06
(PID.TID 0000.0001) %MON dynstat_sst_max              =   3.2618017629854E+01
(PID.TID 0000.0001) %MON dynstat_sst_min              =  -1.9154737551170E+00
(PID.TID 0000.0001) %MON dynstat_sst_mean             =   1.8614409837408E+01
(PID.TID 0000.0001) %MON dynstat_sst_sd               =   9.9602871366871E+00
(PID.TID 0000.0001) %MON dynstat_sst_del2             =   1.1228361180493E-03
(PID.TID 0000.0001) %MON dynstat_sss_max              =   3.4563335692086E+01
(PID.TID 0000.0001) %MON dynstat_sss_min              =   2.4793472447593E+01
(PID.TID 0000.0001) %MON dynstat_sss_mean             =   3.4497234039316E+01
(PID.TID 0000.0001) %MON dynstat_sss_sd               =   4.7001794988073E-02
(PID.TID 0000.0001) %MON dynstat_sss_del2             =   3.6009925387651E-04
(PID.TID 0000.0001) %MON forcing_qnet_max             =   1.8132167968750E+03
(PID.TID 0000.0001) %MON forcing_qnet_min             =  -6.8910595713150E+02
(PID.TID 0000.0001) %MON forcing_qnet_mean            =   2.6611845180559E+01
(PID.TID 0000.0001) %MON forcing_qnet_sd              =   2.1032334924300E+02
(PID.TID 0000.0001) %MON forcing_qnet_del2            =   4.0272477072634E-01
(PID.TID 0000.0001) %MON forcing_qsw_max              =   0.0000000000000E+00
(PID.TID 0000.0001) %MON forcing_qsw_min              =  -4.1798137874451E+02
(PID.TID 0000.0001) %MON forcing_qsw_mean             =  -6.2298332007780E+01
(PID.TID 0000.0001) %MON forcing_qsw_sd               =   1.0935506196944E+02
(PID.TID 0000.0001) %MON forcing_qsw_del2             =   1.7534322202805E-01
(PID.TID 0000.0001) %MON forcing_empmr_max            =   1.4649793738499E-03
(PID.TID 0000.0001) %MON forcing_empmr_min            =  -7.0766322314739E-02
(PID.TID 0000.0001) %MON forcing_empmr_mean           =  -1.3385619376540E-05
(PID.TID 0000.0001) %MON forcing_empmr_sd             =   3.3769262178157E-04
(PID.TID 0000.0001) %MON forcing_empmr_del2           =   2.8882278897986E-06
(PID.TID 0000.0001) %MON forcing_fu_max               =   1.0318465232849E+00
(PID.TID 0000.0001) %MON forcing_fu_min               =  -7.0059344172478E-01
(PID.TID 0000.0001) %MON forcing_fu_mean              =   1.1987929606312E-02
(PID.TID 0000.0001) %MON forcing_fu_sd                =   1.0344250721352E-01
(PID.TID 0000.0001) %MON forcing_fu_del2              =   1.3996820064398E-04
(PID.TID 0000.0001) %MON forcing_fv_max               =   8.5201209783554E-01
(PID.TID 0000.0001) %MON forcing_fv_min               =  -7.0448108437636E-01
(PID.TID 0000.0001) %MON forcing_fv_mean              =  -7.5467156993511E-03
(PID.TID 0000.0001) %MON forcing_fv_sd                =   1.0292259487611E-01
(PID.TID 0000.0001) %MON forcing_fv_del2              =   1.1658612935859E-04
(PID.TID 0000.0001) %MON trAdv_CFL_u_max              =   1.7366006577563E-02
(PID.TID 0000.0001) %MON trAdv_CFL_v_max              =   1.4640762208506E-02
(PID.TID 0000.0001) %MON trAdv_CFL_w_max              =   1.2453046939264E-01
(PID.TID 0000.0001) %MON advcfl_uvel_max              =   1.7350521798862E-02
(PID.TID 0000.0001) %MON advcfl_vvel_max              =   1.4640988114278E-02
(PID.TID 0000.0001) %MON advcfl_wvel_max              =   1.1890846776605E-01
(PID.TID 0000.0001) %MON advcfl_W_hf_max              =   1.2453046939264E-01
(PID.TID 0000.0001) %MON pe_b_mean                    =   4.9572629870854E-04
(PID.TID 0000.0001) %MON ke_max                       =   1.3130925020195E+00
(PID.TID 0000.0001) %MON ke_mean                      =   7.8623816779713E-04
(PID.TID 0000.0001) %MON ke_vol                       =   1.3349978769393E+18
(PID.TID 0000.0001) %MON vort_r_min                   =  -2.9365170167310E-05
(PID.TID 0000.0001) %MON vort_r_max                   =   2.1810875477434E-05
(PID.TID 0000.0001) %MON vort_a_mean                  =  -1.9727864647440E-05
(PID.TID 0000.0001) %MON vort_a_sd                    =   7.4542431808795E-05
(PID.TID 0000.0001) %MON vort_p_mean                  =  -2.1760527755546E-05
(PID.TID 0000.0001) %MON vort_p_sd                    =   9.7231911629998E-05
(PID.TID 0000.0001) %MON surfExpan_theta_mean         =   1.4708477839293E-05
(PID.TID 0000.0001) %MON surfExpan_salt_mean          =  -9.5741283298735E-09
(PID.TID 0000.0001) // =======================================================
(PID.TID 0000.0001) // End MONITOR dynamic field statistics
(PID.TID 0000.0001) // =======================================================
 AGCM Date: 2000/04/15  Time: 13:00:00
 cg2d: Sum(rhs),rhsMax =  -1.50499018350509E+01  2.19505632867646E-01
 AGCM Date: 2000/04/15  Time: 13:15:00
 cg2d: Sum(rhs),rhsMax =  -1.54049865391279E+01  2.17481241002819E-01
 AGCM Date: 2000/04/15  Time: 13:30:00
 cg2d: Sum(rhs),rhsMax =  -1.57554954661558E+01  2.15766488640153E-01
 AGCM Date: 2000/04/15  Time: 13:45:00
 cg2d: Sum(rhs),rhsMax =  -1.61149694520458E+01  2.14425585948780E-01
(PID.TID 0000.0001)      cg2d_init_res =   3.02007540965144E+00
(PID.TID 0000.0001)      cg2d_iters(min,last) =      -1      38
(PID.TID 0000.0001)      cg2d_last_res =   2.05524922036418E-05
(PID.TID 0000.0001) // =======================================================
(PID.TID 0000.0001) // Begin MONITOR dynamic field statistics
(PID.TID 0000.0001) // =======================================================
(PID.TID 0000.0001) %MON time_tsnumber                =                    68
(PID.TID 0000.0001) %MON time_secondsf                =   6.1200000000000E+04
(PID.TID 0000.0001) %MON dynstat_eta_max              =   2.1245307321588E+00
(PID.TID 0000.0001) %MON dynstat_eta_min              =  -2.2861824377704E+00
(PID.TID 0000.0001) %MON dynstat_eta_mean             =   5.0976795156583E-04
(PID.TID 0000.0001) %MON dynstat_eta_sd               =   6.1595779469249E-01
(PID.TID 0000.0001) %MON dynstat_eta_del2             =   1.2616261418231E-04
(PID.TID 0000.0001) %MON dynstat_uvel_max             =   1.0756181691221E+00
(PID.TID 0000.0001) %MON dynstat_uvel_min             =  -9.6678355749586E-01
(PID.TID 0000.0001) %MON dynstat_uvel_mean            =  -4.7920541415995E-03
(PID.TID 0000.0001) %MON dynstat_uvel_sd              =   2.7034636796678E-02
(PID.TID 0000.0001) %MON dynstat_uvel_del2            =   1.6257595810692E-05
(PID.TID 0000.0001) %MON dynstat_vvel_max             =   1.0970905361426E+00
(PID.TID 0000.0001) %MON dynstat_vvel_min             =  -1.6775340960328E+00
(PID.TID 0000.0001) %MON dynstat_vvel_mean            =   8.7251936343464E-04
(PID.TID 0000.0001) %MON dynstat_vvel_sd              =   2.9540998760046E-02
(PID.TID 0000.0001) %MON dynstat_vvel_del2            =   1.5621876751588E-05
(PID.TID 0000.0001) %MON dynstat_wvel_max             =   2.4973416487594E-03
(PID.TID 0000.0001) %MON dynstat_wvel_min             =  -2.6031602994049E-03
(PID.TID 0000.0001) %MON dynstat_wvel_mean            =  -4.5727887984566E-21
(PID.TID 0000.0001) %MON dynstat_wvel_sd              =   8.2092465737523E-05
(PID.TID 0000.0001) %MON dynstat_wvel_del2            =   9.0998566523763E-08
(PID.TID 0000.0001) %MON dynstat_theta_max            =   3.2610091036243E+01
(PID.TID 0000.0001) %MON dynstat_theta_min            =  -2.0406849432813E+00
(PID.TID 0000.0001) %MON dynstat_theta_mean           =   3.5888386294978E+00
(PID.TID 0000.0001) %MON dynstat_theta_sd             =   4.4314656470413E+00
(PID.TID 0000.0001) %MON dynstat_theta_del2           =   1.1954724110239E-04
(PID.TID 0000.0001) %MON dynstat_salt_max             =   3.4563664068773E+01
(PID.TID 0000.0001) %MON dynstat_salt_min             =   2.4163078628578E+01
(PID.TID 0000.0001) %MON dynstat_salt_mean            =   3.4499996791781E+01
(PID.TID 0000.0001) %MON dynstat_salt_sd              =   2.6072893153096E-03
(PID.TID 0000.0001) %MON dynstat_salt_del2            =   9.5292156006406E-06
(PID.TID 0000.0001) %MON dynstat_sst_max              =   3.2610070664715E+01
(PID.TID 0000.0001) %MON dynstat_sst_min              =  -1.9130630774056E+00
(PID.TID 0000.0001) %MON dynstat_sst_mean             =   1.8615313119650E+01
(PID.TID 0000.0001) %MON dynstat_sst_sd               =   9.9608317035440E+00
(PID.TID 0000.0001) %MON dynstat_sst_del2             =   1.1189868234167E-03
(PID.TID 0000.0001) %MON dynstat_sss_max              =   3.4563664068773E+01
(PID.TID 0000.0001) %MON dynstat_sss_min              =   2.4163078628578E+01
(PID.TID 0000.0001) %MON dynstat_sss_mean             =   3.4497054836794E+01
(PID.TID 0000.0001) %MON dynstat_sss_sd               =   4.9519180250584E-02
(PID.TID 0000.0001) %MON dynstat_sss_del2             =   3.7479264995866E-04
(PID.TID 0000.0001) %MON forcing_qnet_max             =   1.2058060302734E+03
(PID.TID 0000.0001) %MON forcing_qnet_min             =  -1.0499694824219E+03
(PID.TID 0000.0001) %MON forcing_qnet_mean            =   2.1179001726791E+01
(PID.TID 0000.0001) %MON forcing_qnet_sd              =   2.1541470872243E+02
(PID.TID 0000.0001) %MON forcing_qnet_del2            =   3.9177234146995E-01
(PID.TID 0000.0001) %MON forcing_qsw_max              =   0.0000000000000E+00
(PID.TID 0000.0001) %MON forcing_qsw_min              =  -4.3711292588062E+02
(PID.TID 0000.0001) %MON forcing_qsw_mean             =  -6.4847720971463E+01
(PID.TID 0000.0001) %MON forcing_qsw_sd               =   1.1392617655056E+02
(PID.TID 0000.0001) %MON forcing_qsw_del2             =   1.7886434491496E-01
(PID.TID 0000.0001) %MON forcing_empmr_max            =   1.4061144320294E-03
(PID.TID 0000.0001) %MON forcing_empmr_min            =  -9.5645651221275E-02
(PID.TID 0000.0001) %MON forcing_empmr_mean           =  -1.3001198061038E-05
(PID.TID 0000.0001) %MON forcing_empmr_sd             =   3.9620023007544E-04
(PID.TID 0000.0001) %MON forcing_empmr_del2           =   2.7349595754187E-06
(PID.TID 0000.0001) %MON forcing_fu_max               =   9.4362038373947E-01
(PID.TID 0000.0001) %MON forcing_fu_min               =  -6.9276893138886E-01
(PID.TID 0000.0001) %MON forcing_fu_mean              =   1.1730464445972E-02
(PID.TID 0000.0001) %MON forcing_fu_sd                =   1.0260993713616E-01
(PID.TID 0000.0001) %MON forcing_fu_del2              =   1.3865487936334E-04
(PID.TID 0000.0001) %MON forcing_fv_max               =   8.9893990755081E-01
(PID.TID 0000.0001) %MON forcing_fv_min               =  -7.1204465349427E-01
(PID.TID 0000.0001) %MON forcing_fv_mean              =  -7.5073913910266E-03
(PID.TID 0000.0001) %MON forcing_fv_sd                =   1.0271639948389E-01
(PID.TID 0000.0001) %MON forcing_fv_del2              =   1.1642640581665E-04
(PID.TID 0000.0001) %MON trAdv_CFL_u_max              =   1.9664747965452E-02
(PID.TID 0000.0001) %MON trAdv_CFL_v_max              =   1.6665967316515E-02
(PID.TID 0000.0001) %MON trAdv_CFL_w_max              =   1.2323656632780E-01
(PID.TID 0000.0001) %MON advcfl_uvel_max              =   1.9647213463833E-02
(PID.TID 0000.0001) %MON advcfl_vvel_max              =   1.6666224471038E-02
(PID.TID 0000.0001) %MON advcfl_wvel_max              =   1.1759690383034E-01
(PID.TID 0000.0001) %MON advcfl_W_hf_max              =   1.2323656632780E-01
(PID.TID 0000.0001) %MON pe_b_mean                    =   4.9906887612532E-04
(PID.TID 0000.0001) %MON ke_max                       =   1.3755357877502E+00
(PID.TID 0000.0001) %MON ke_mean                      =   7.8466426654145E-04
(PID.TID 0000.0001) %MON ke_vol                       =   1.3349978769393E+18
(PID.TID 0000.0001) %MON vort_r_min                   =  -3.0397482869087E-05
(PID.TID 0000.0001) %MON vort_r_max                   =   2.4345713263742E-05
(PID.TID 0000.0001) %MON vort_a_mean                  =  -1.9727864647440E-05
(PID.TID 0000.0001) %MON vort_a_sd                    =   7.4542389653428E-05
(PID.TID 0000.0001) %MON vort_p_mean                  =  -2.1760527755546E-05
(PID.TID 0000.0001) %MON vort_p_sd                    =   9.7231363484721E-05
(PID.TID 0000.0001) %MON surfExpan_theta_mean         =   1.0541669329563E-05
(PID.TID 0000.0001) %MON surfExpan_salt_mean          =  -3.6192628490504E-09
(PID.TID 0000.0001) // =======================================================
(PID.TID 0000.0001) // End MONITOR dynamic field statistics
(PID.TID 0000.0001) // =======================================================
 AGCM Date: 2000/04/15  Time: 14:00:00
 cg2d: Sum(rhs),rhsMax =  -1.64688137615034E+01  2.13496916454993E-01
 AGCM Date: 2000/04/15  Time: 14:15:00
 cg2d: Sum(rhs),rhsMax =  -1.68321067448037E+01  2.12992301114871E-01
 AGCM Date: 2000/04/15  Time: 14:30:00
 cg2d: Sum(rhs),rhsMax =  -1.71883275953968E+01  2.12899024628399E-01
 AGCM Date: 2000/04/15  Time: 14:45:00
 cg2d: Sum(rhs),rhsMax =  -1.75424536959395E+01  2.13180603850678E-01
(PID.TID 0000.0001)      cg2d_init_res =   2.84511004342677E+00
(PID.TID 0000.0001)      cg2d_iters(min,last) =      -1      38
(PID.TID 0000.0001)      cg2d_last_res =   2.12860659681479E-05
(PID.TID 0000.0001) // =======================================================
(PID.TID 0000.0001) // Begin MONITOR dynamic field statistics
(PID.TID 0000.0001) // =======================================================
(PID.TID 0000.0001) %MON time_tsnumber                =                    72
(PID.TID 0000.0001) %MON time_secondsf                =   6.4800000000000E+04
(PID.TID 0000.0001) %MON dynstat_eta_max              =   2.1101762875634E+00
(PID.TID 0000.0001) %MON dynstat_eta_min              =  -2.1902110902609E+00
(PID.TID 0000.0001) %MON dynstat_eta_mean             =   5.5492383728233E-04
(PID.TID 0000.0001) %MON dynstat_eta_sd               =   6.1824415727060E-01
(PID.TID 0000.0001) %MON dynstat_eta_del2             =   1.2550999798378E-04
(PID.TID 0000.0001) %MON dynstat_uvel_max             =   1.1548136597458E+00
(PID.TID 0000.0001) %MON dynstat_uvel_min             =  -1.0621308334847E+00
(PID.TID 0000.0001) %MON dynstat_uvel_mean            =  -3.8109220969578E-03
(PID.TID 0000.0001) %MON dynstat_uvel_sd              =   2.7021847032014E-02
(PID.TID 0000.0001) %MON dynstat_uvel_del2            =   1.6432655585314E-05
(PID.TID 0000.0001) %MON dynstat_vvel_max             =   1.1179067569034E+00
(PID.TID 0000.0001) %MON dynstat_vvel_min             =  -1.7523680522878E+00
(PID.TID 0000.0001) %MON dynstat_vvel_mean            =  -2.1081996713700E-04
(PID.TID 0000.0001) %MON dynstat_vvel_sd              =   2.9917376128411E-02
(PID.TID 0000.0001) %MON dynstat_vvel_del2            =   1.5663606689766E-05
(PID.TID 0000.0001) %MON dynstat_wvel_max             =   2.3071766360395E-03
(PID.TID 0000.0001) %MON dynstat_wvel_min             =  -2.8371246362605E-03
(PID.TID 0000.0001) %MON dynstat_wvel_mean            =  -5.2250159161206E-21
(PID.TID 0000.0001) %MON dynstat_wvel_sd              =   8.0788225582347E-05
(PID.TID 0000.0001) %MON dynstat_wvel_del2            =   9.1169833415203E-08
(PID.TID 0000.0001) %MON dynstat_theta_max            =   3.2601913900459E+01
(PID.TID 0000.0001) %MON dynstat_theta_min            =  -2.0405527578140E+00
(PID.TID 0000.0001) %MON dynstat_theta_mean           =   3.5888275210004E+00
(PID.TID 0000.0001) %MON dynstat_theta_sd             =   4.4314181016641E+00
(PID.TID 0000.0001) %MON dynstat_theta_del2           =   1.1947000580622E-04
(PID.TID 0000.0001) %MON dynstat_salt_max             =   3.4563992393477E+01
(PID.TID 0000.0001) %MON dynstat_salt_min             =   2.3494712111359E+01
(PID.TID 0000.0001) %MON dynstat_salt_mean            =   3.4499996499313E+01
(PID.TID 0000.0001) %MON dynstat_salt_sd              =   2.7409802328217E-03
(PID.TID 0000.0001) %MON dynstat_salt_del2            =   9.8115563071725E-06
(PID.TID 0000.0001) %MON dynstat_sst_max              =   3.2601892860397E+01
(PID.TID 0000.0001) %MON dynstat_sst_min              =  -1.9107093095899E+00
(PID.TID 0000.0001) %MON dynstat_sst_mean             =   1.8616688820876E+01
(PID.TID 0000.0001) %MON dynstat_sst_sd               =   9.9616788949363E+00
(PID.TID 0000.0001) %MON dynstat_sst_del2             =   1.1146589504900E-03
(PID.TID 0000.0001) %MON dynstat_sss_max              =   3.4563992393477E+01
(PID.TID 0000.0001) %MON dynstat_sss_min              =   2.3494712111359E+01
(PID.TID 0000.0001) %MON dynstat_sss_mean             =   3.4496876557191E+01
(PID.TID 0000.0001) %MON dynstat_sss_sd               =   5.2051146875865E-02
(PID.TID 0000.0001) %MON dynstat_sss_del2             =   3.8555732078208E-04
(PID.TID 0000.0001) %MON forcing_qnet_max             =   2.2297158203125E+03
(PID.TID 0000.0001) %MON forcing_qnet_min             =  -6.9532129972694E+02
(PID.TID 0000.0001) %MON forcing_qnet_mean            =   1.5387419079406E+01
(PID.TID 0000.0001) %MON forcing_qnet_sd              =   2.1595241503968E+02
(PID.TID 0000.0001) %MON forcing_qnet_del2            =   4.2381250533570E-01
(PID.TID 0000.0001) %MON forcing_qsw_max              =   0.0000000000000E+00
(PID.TID 0000.0001) %MON forcing_qsw_min              =  -4.4363994498648E+02
(PID.TID 0000.0001) %MON forcing_qsw_mean             =  -6.8258282898860E+01
(PID.TID 0000.0001) %MON forcing_qsw_sd               =   1.1520081571260E+02
(PID.TID 0000.0001) %MON forcing_qsw_del2             =   1.7914574168560E-01
(PID.TID 0000.0001) %MON forcing_empmr_max            =   1.3491482241079E-03
(PID.TID 0000.0001) %MON forcing_empmr_min            =  -9.3297325074673E-02
(PID.TID 0000.0001) %MON forcing_empmr_mean           =  -1.2807779568155E-05
(PID.TID 0000.0001) %MON forcing_empmr_sd             =   3.8160346039221E-04
(PID.TID 0000.0001) %MON forcing_empmr_del2           =   2.4678646026485E-06
(PID.TID 0000.0001) %MON forcing_fu_max               =   9.4354254007340E-01
(PID.TID 0000.0001) %MON forcing_fu_min               =  -6.8139812350273E-01
(PID.TID 0000.0001) %MON forcing_fu_mean              =   1.1571137871239E-02
(PID.TID 0000.0001) %MON forcing_fu_sd                =   1.0177640856433E-01
(PID.TID 0000.0001) %MON forcing_fu_del2              =   1.3743251145280E-04
(PID.TID 0000.0001) %MON forcing_fv_max               =   9.2916688323021E-01
(PID.TID 0000.0001) %MON forcing_fv_min               =  -7.5831445693927E-01
(PID.TID 0000.0001) %MON forcing_fv_mean              =  -7.7314743159180E-03
(PID.TID 0000.0001) %MON forcing_fv_sd                =   1.0211217497267E-01
(PID.TID 0000.0001) %MON forcing_fv_del2              =   1.1512100376685E-04
(PID.TID 0000.0001) %MON trAdv_CFL_u_max              =   2.1704074236128E-02
(PID.TID 0000.0001) %MON trAdv_CFL_v_max              =   1.7314069882301E-02
(PID.TID 0000.0001) %MON trAdv_CFL_w_max              =   1.1997244498059E-01
(PID.TID 0000.0001) %MON advcfl_uvel_max              =   2.1684721324741E-02
(PID.TID 0000.0001) %MON advcfl_vvel_max              =   1.7574119459628E-02
(PID.TID 0000.0001) %MON advcfl_wvel_max              =   1.1440151585681E-01
(PID.TID 0000.0001) %MON advcfl_W_hf_max              =   1.1997244498059E-01
(PID.TID 0000.0001) %MON pe_b_mean                    =   5.0278078246631E-04
(PID.TID 0000.0001) %MON ke_max                       =   1.4033543014794E+00
(PID.TID 0000.0001) %MON ke_mean                      =   7.9070824484627E-04
(PID.TID 0000.0001) %MON ke_vol                       =   1.3349978769393E+18
(PID.TID 0000.0001) %MON vort_r_min                   =  -3.0894967812560E-05
(PID.TID 0000.0001) %MON vort_r_max                   =   2.6215902935081E-05
(PID.TID 0000.0001) %MON vort_a_mean                  =  -1.9727864647440E-05
(PID.TID 0000.0001) %MON vort_a_sd                    =   7.4542362107179E-05
(PID.TID 0000.0001) %MON vort_p_mean                  =  -2.1760527755546E-05
(PID.TID 0000.0001) %MON vort_p_sd                    =   9.7230472350173E-05
(PID.TID 0000.0001) %MON surfExpan_theta_mean         =   5.5385808713449E-06
(PID.TID 0000.0001) %MON surfExpan_salt_mean          =   6.9589702081409E-09
(PID.TID 0000.0001) // =======================================================
(PID.TID 0000.0001) // End MONITOR dynamic field statistics
(PID.TID 0000.0001) // =======================================================
 AGCM Date: 2000/04/15  Time: 15:00:00
 Writing:    148 Slices (  5 Nodes,  1 PartitionRoot) to File:  TEST.geosgcm_surf.20000415_1330z.nc4
 Writing:    111 Slices (  5 Nodes,  1 PartitionRoot) to File:  TEST.mit_ocn.20000415_1330z.nc4
 cg2d: Sum(rhs),rhsMax =  -1.78932322421499E+01  2.13785281267408E-01
 AGCM Date: 2000/04/15  Time: 15:15:00
 cg2d: Sum(rhs),rhsMax =  -1.82392953298605E+01  2.14645402885568E-01
 AGCM Date: 2000/04/15  Time: 15:30:00
 cg2d: Sum(rhs),rhsMax =  -1.85999858075076E+01  2.15685499811257E-01
 AGCM Date: 2000/04/15  Time: 15:45:00
 cg2d: Sum(rhs),rhsMax =  -1.89669563734944E+01  2.16826318379698E-01
(PID.TID 0000.0001)      cg2d_init_res =   2.67247595052573E+00
(PID.TID 0000.0001)      cg2d_iters(min,last) =      -1      37
(PID.TID 0000.0001)      cg2d_last_res =   2.58208147106904E-05
(PID.TID 0000.0001) // =======================================================
(PID.TID 0000.0001) // Begin MONITOR dynamic field statistics
(PID.TID 0000.0001) // =======================================================
(PID.TID 0000.0001) %MON time_tsnumber                =                    76
(PID.TID 0000.0001) %MON time_secondsf                =   6.8400000000000E+04
(PID.TID 0000.0001) %MON dynstat_eta_max              =   1.9973279337858E+00
(PID.TID 0000.0001) %MON dynstat_eta_min              =  -1.9166741640108E+00
(PID.TID 0000.0001) %MON dynstat_eta_mean             =   5.9998540653295E-04
(PID.TID 0000.0001) %MON dynstat_eta_sd               =   6.2122851853075E-01
(PID.TID 0000.0001) %MON dynstat_eta_del2             =   1.1890579687603E-04
(PID.TID 0000.0001) %MON dynstat_uvel_max             =   1.2134692255904E+00
(PID.TID 0000.0001) %MON dynstat_uvel_min             =  -1.2845989217494E+00
(PID.TID 0000.0001) %MON dynstat_uvel_mean            =  -2.5887922837339E-03
(PID.TID 0000.0001) %MON dynstat_uvel_sd              =   2.7165617026797E-02
(PID.TID 0000.0001) %MON dynstat_uvel_del2            =   1.6563999189543E-05
(PID.TID 0000.0001) %MON dynstat_vvel_max             =   1.1487043358594E+00
(PID.TID 0000.0001) %MON dynstat_vvel_min             =  -1.7471930518234E+00
(PID.TID 0000.0001) %MON dynstat_vvel_mean            =  -1.0426945635745E-03
(PID.TID 0000.0001) %MON dynstat_vvel_sd              =   3.0372472149048E-02
(PID.TID 0000.0001) %MON dynstat_vvel_del2            =   1.5749217456862E-05
(PID.TID 0000.0001) %MON dynstat_wvel_max             =   2.2003106231881E-03
(PID.TID 0000.0001) %MON dynstat_wvel_min             =  -3.0853261388832E-03
(PID.TID 0000.0001) %MON dynstat_wvel_mean            =  -3.0754020382567E-21
(PID.TID 0000.0001) %MON dynstat_wvel_sd              =   8.0335603946609E-05
(PID.TID 0000.0001) %MON dynstat_wvel_del2            =   9.1471382219594E-08
(PID.TID 0000.0001) %MON dynstat_theta_max            =   3.2593513423776E+01
(PID.TID 0000.0001) %MON dynstat_theta_min            =  -2.0403708773711E+00
(PID.TID 0000.0001) %MON dynstat_theta_mean           =   3.5888226162240E+00
(PID.TID 0000.0001) %MON dynstat_theta_sd             =   4.4314004457302E+00
(PID.TID 0000.0001) %MON dynstat_theta_del2           =   1.1939180480698E-04
(PID.TID 0000.0001) %MON dynstat_salt_max             =   3.4564320251226E+01
(PID.TID 0000.0001) %MON dynstat_salt_min             =   2.2792987139910E+01
(PID.TID 0000.0001) %MON dynstat_salt_mean            =   3.4499996197671E+01
(PID.TID 0000.0001) %MON dynstat_salt_sd              =   2.8784218509331E-03
(PID.TID 0000.0001) %MON dynstat_salt_del2            =   1.0011188909767E-05
(PID.TID 0000.0001) %MON dynstat_sst_max              =   3.2593491685871E+01
(PID.TID 0000.0001) %MON dynstat_sst_min              =  -1.9083741538308E+00
(PID.TID 0000.0001) %MON dynstat_sst_mean             =   1.8618431638464E+01
(PID.TID 0000.0001) %MON dynstat_sst_sd               =   9.9628964430914E+00
(PID.TID 0000.0001) %MON dynstat_sst_del2             =   1.1105270394553E-03
(PID.TID 0000.0001) %MON dynstat_sss_max              =   3.4564320251226E+01
(PID.TID 0000.0001) %MON dynstat_sss_min              =   2.2792987139910E+01
(PID.TID 0000.0001) %MON dynstat_sss_mean             =   3.4496699763389E+01
(PID.TID 0000.0001) %MON dynstat_sss_sd               =   5.4643049168017E-02
(PID.TID 0000.0001) %MON dynstat_sss_del2             =   3.9329682864585E-04
(PID.TID 0000.0001) %MON forcing_qnet_max             =   1.1436339111328E+03
(PID.TID 0000.0001) %MON forcing_qnet_min             =  -7.1801411086014E+02
(PID.TID 0000.0001) %MON forcing_qnet_mean            =   9.9572756122470E+00
(PID.TID 0000.0001) %MON forcing_qnet_sd              =   2.1013334196043E+02
(PID.TID 0000.0001) %MON forcing_qnet_del2            =   3.8552007985272E-01
(PID.TID 0000.0001) %MON forcing_qsw_max              =   0.0000000000000E+00
(PID.TID 0000.0001) %MON forcing_qsw_min              =  -4.4396594178433E+02
(PID.TID 0000.0001) %MON forcing_qsw_mean             =  -7.1755427742390E+01
(PID.TID 0000.0001) %MON forcing_qsw_sd               =   1.1377758873031E+02
(PID.TID 0000.0001) %MON forcing_qsw_del2             =   1.7799407596345E-01
(PID.TID 0000.0001) %MON forcing_empmr_max            =   1.2939453590661E-03
(PID.TID 0000.0001) %MON forcing_empmr_min            =  -1.1535527557135E-01
(PID.TID 0000.0001) %MON forcing_empmr_mean           =  -1.3272329009233E-05
(PID.TID 0000.0001) %MON forcing_empmr_sd             =   4.5417779202421E-04
(PID.TID 0000.0001) %MON forcing_empmr_del2           =   2.7456183342575E-06
(PID.TID 0000.0001) %MON forcing_fu_max               =   9.3222120404243E-01
(PID.TID 0000.0001) %MON forcing_fu_min               =  -6.8161538243294E-01
(PID.TID 0000.0001) %MON forcing_fu_mean              =   1.1457266456627E-02
(PID.TID 0000.0001) %MON forcing_fu_sd                =   1.0102166044225E-01
(PID.TID 0000.0001) %MON forcing_fu_del2              =   1.3643321174306E-04
(PID.TID 0000.0001) %MON forcing_fv_max               =   9.4966936111450E-01
(PID.TID 0000.0001) %MON forcing_fv_min               =  -7.6299266928969E-01
(PID.TID 0000.0001) %MON forcing_fv_mean              =  -7.9891347786352E-03
(PID.TID 0000.0001) %MON forcing_fv_sd                =   1.0177756935502E-01
(PID.TID 0000.0001) %MON forcing_fv_del2              =   1.1458202724736E-04
(PID.TID 0000.0001) %MON trAdv_CFL_u_max              =   2.3443552816098E-02
(PID.TID 0000.0001) %MON trAdv_CFL_v_max              =   1.8418746185185E-02
(PID.TID 0000.0001) %MON trAdv_CFL_w_max              =   1.1551071137409E-01
(PID.TID 0000.0001) %MON advcfl_uvel_max              =   2.3422648860678E-02
(PID.TID 0000.0001) %MON advcfl_vvel_max              =   1.8695387505967E-02
(PID.TID 0000.0001) %MON advcfl_wvel_max              =   1.1010427558873E-01
(PID.TID 0000.0001) %MON advcfl_W_hf_max              =   1.1551071137409E-01
(PID.TID 0000.0001) %MON pe_b_mean                    =   5.0764656549390E-04
(PID.TID 0000.0001) %MON ke_max                       =   1.5156029247137E+00
(PID.TID 0000.0001) %MON ke_mean                      =   8.0442831903039E-04
(PID.TID 0000.0001) %MON ke_vol                       =   1.3349978769393E+18
(PID.TID 0000.0001) %MON vort_r_min                   =  -3.0787741987669E-05
(PID.TID 0000.0001) %MON vort_r_max                   =   2.7115265559143E-05
(PID.TID 0000.0001) %MON vort_a_mean                  =  -1.9727864647440E-05
(PID.TID 0000.0001) %MON vort_a_sd                    =   7.4542363996882E-05
(PID.TID 0000.0001) %MON vort_p_mean                  =  -2.1760527755546E-05
(PID.TID 0000.0001) %MON vort_p_sd                    =   9.7229372309161E-05
(PID.TID 0000.0001) %MON surfExpan_theta_mean         =   5.6356072553107E-07
(PID.TID 0000.0001) %MON surfExpan_salt_mean          =   1.7167254481381E-08
(PID.TID 0000.0001) // =======================================================
(PID.TID 0000.0001) // End MONITOR dynamic field statistics
(PID.TID 0000.0001) // =======================================================
 AGCM Date: 2000/04/15  Time: 16:00:00
 cg2d: Sum(rhs),rhsMax =  -1.93344230368824E+01  2.17990657481521E-01
 AGCM Date: 2000/04/15  Time: 16:15:00
 cg2d: Sum(rhs),rhsMax =  -1.96863482088433E+01  2.19106508809483E-01
 AGCM Date: 2000/04/15  Time: 16:30:00
 cg2d: Sum(rhs),rhsMax =  -2.00467307141803E+01  2.20111793445022E-01
 AGCM Date: 2000/04/15  Time: 16:45:00
 cg2d: Sum(rhs),rhsMax =  -2.04119551163207E+01  2.20956674886844E-01
(PID.TID 0000.0001)      cg2d_init_res =   2.43105809840740E+00
(PID.TID 0000.0001)      cg2d_iters(min,last) =      -1      36
(PID.TID 0000.0001)      cg2d_last_res =   2.47415142839065E-05
(PID.TID 0000.0001) // =======================================================
(PID.TID 0000.0001) // Begin MONITOR dynamic field statistics
(PID.TID 0000.0001) // =======================================================
(PID.TID 0000.0001) %MON time_tsnumber                =                    80
(PID.TID 0000.0001) %MON time_secondsf                =   7.2000000000000E+04
(PID.TID 0000.0001) %MON dynstat_eta_max              =   2.0565373136046E+00
(PID.TID 0000.0001) %MON dynstat_eta_min              =  -2.0108363057768E+00
(PID.TID 0000.0001) %MON dynstat_eta_mean             =   6.4569533178816E-04
(PID.TID 0000.0001) %MON dynstat_eta_sd               =   6.2461020792351E-01
(PID.TID 0000.0001) %MON dynstat_eta_del2             =   1.1289258907036E-04
(PID.TID 0000.0001) %MON dynstat_uvel_max             =   1.2502151883277E+00
(PID.TID 0000.0001) %MON dynstat_uvel_min             =  -1.4334648198299E+00
(PID.TID 0000.0001) %MON dynstat_uvel_mean            =  -1.2985816682062E-03
(PID.TID 0000.0001) %MON dynstat_uvel_sd              =   2.7551876547098E-02
(PID.TID 0000.0001) %MON dynstat_uvel_del2            =   1.6644892386301E-05
(PID.TID 0000.0001) %MON dynstat_vvel_max             =   1.1092160667281E+00
(PID.TID 0000.0001) %MON dynstat_vvel_min             =  -1.6554172466725E+00
(PID.TID 0000.0001) %MON dynstat_vvel_mean            =  -1.5253900965540E-03
(PID.TID 0000.0001) %MON dynstat_vvel_sd              =   3.0793795244502E-02
(PID.TID 0000.0001) %MON dynstat_vvel_del2            =   1.5841241340678E-05
(PID.TID 0000.0001) %MON dynstat_wvel_max             =   2.3952871588274E-03
(PID.TID 0000.0001) %MON dynstat_wvel_min             =  -3.3325530229625E-03
(PID.TID 0000.0001) %MON dynstat_wvel_mean            =   6.1738407959011E-21
(PID.TID 0000.0001) %MON dynstat_wvel_sd              =   8.0783262918649E-05
(PID.TID 0000.0001) %MON dynstat_wvel_del2            =   9.1960205271475E-08
(PID.TID 0000.0001) %MON dynstat_theta_max            =   3.2584923255754E+01
(PID.TID 0000.0001) %MON dynstat_theta_min            =  -2.0401510233993E+00
(PID.TID 0000.0001) %MON dynstat_theta_mean           =   3.5888232775551E+00
(PID.TID 0000.0001) %MON dynstat_theta_sd             =   4.4314121394702E+00
(PID.TID 0000.0001) %MON dynstat_theta_del2           =   1.1930573575704E-04
(PID.TID 0000.0001) %MON dynstat_salt_max             =   3.4564649397912E+01
(PID.TID 0000.0001) %MON dynstat_salt_min             =   2.2079266788431E+01
(PID.TID 0000.0001) %MON dynstat_salt_mean            =   3.4499995880617E+01
(PID.TID 0000.0001) %MON dynstat_salt_sd              =   3.0181475904059E-03
(PID.TID 0000.0001) %MON dynstat_salt_del2            =   1.0136195438722E-05
(PID.TID 0000.0001) %MON dynstat_sst_max              =   3.2584901001248E+01
(PID.TID 0000.0001) %MON dynstat_sst_min              =  -1.9060326611161E+00
(PID.TID 0000.0001) %MON dynstat_sst_mean             =   1.8620340336598E+01
(PID.TID 0000.0001) %MON dynstat_sst_sd               =   9.9644346071782E+00
(PID.TID 0000.0001) %MON dynstat_sst_del2             =   1.1064000449764E-03
(PID.TID 0000.0001) %MON dynstat_sss_max              =   3.4564649397912E+01
(PID.TID 0000.0001) %MON dynstat_sss_min              =   2.2079266788431E+01
(PID.TID 0000.0001) %MON dynstat_sss_mean             =   3.4496536501555E+01
(PID.TID 0000.0001) %MON dynstat_sss_sd               =   5.7263772088369E-02
(PID.TID 0000.0001) %MON dynstat_sss_del2             =   3.9815399018418E-04
(PID.TID 0000.0001) %MON forcing_qnet_max             =   2.0759128417969E+03
(PID.TID 0000.0001) %MON forcing_qnet_min             =  -7.0821303045200E+02
(PID.TID 0000.0001) %MON forcing_qnet_mean            =   5.6020839547113E+00
(PID.TID 0000.0001) %MON forcing_qnet_sd              =   2.0386833216588E+02
(PID.TID 0000.0001) %MON forcing_qnet_del2            =   3.9556590323198E-01
(PID.TID 0000.0001) %MON forcing_qsw_max              =   0.0000000000000E+00
(PID.TID 0000.0001) %MON forcing_qsw_min              =  -4.3292011106155E+02
(PID.TID 0000.0001) %MON forcing_qsw_mean             =  -7.4627794907655E+01
(PID.TID 0000.0001) %MON forcing_qsw_sd               =   1.1256025335619E+02
(PID.TID 0000.0001) %MON forcing_qsw_del2             =   1.7679453685337E-01
(PID.TID 0000.0001) %MON forcing_empmr_max            =   1.2413194635883E-03
(PID.TID 0000.0001) %MON forcing_empmr_min            =  -1.1230666935444E-01
(PID.TID 0000.0001) %MON forcing_empmr_mean           =  -1.3209175003649E-05
(PID.TID 0000.0001) %MON forcing_empmr_sd             =   4.4660566534321E-04
(PID.TID 0000.0001) %MON forcing_empmr_del2           =   2.7178339438564E-06
(PID.TID 0000.0001) %MON forcing_fu_max               =   8.9459329843521E-01
(PID.TID 0000.0001) %MON forcing_fu_min               =  -6.4994224905968E-01
(PID.TID 0000.0001) %MON forcing_fu_mean              =   1.1375299630746E-02
(PID.TID 0000.0001) %MON forcing_fu_sd                =   1.0013255277849E-01
(PID.TID 0000.0001) %MON forcing_fu_del2              =   1.3482924127818E-04
(PID.TID 0000.0001) %MON forcing_fv_max               =   9.4185408949852E-01
(PID.TID 0000.0001) %MON forcing_fv_min               =  -7.5387890939472E-01
(PID.TID 0000.0001) %MON forcing_fv_mean              =  -8.2956612041002E-03
(PID.TID 0000.0001) %MON forcing_fv_sd                =   1.0164391244290E-01
(PID.TID 0000.0001) %MON forcing_fv_del2              =   1.1393737450133E-04
(PID.TID 0000.0001) %MON trAdv_CFL_u_max              =   2.4813116151822E-02
(PID.TID 0000.0001) %MON trAdv_CFL_v_max              =   1.8536863112372E-02
(PID.TID 0000.0001) %MON trAdv_CFL_w_max              =   1.1075116636034E-01
(PID.TID 0000.0001) %MON advcfl_uvel_max              =   2.4790990995369E-02
(PID.TID 0000.0001) %MON advcfl_vvel_max              =   1.8815278491360E-02
(PID.TID 0000.0001) %MON advcfl_wvel_max              =   1.0559004352287E-01
(PID.TID 0000.0001) %MON advcfl_W_hf_max              =   1.1075116636034E-01
(PID.TID 0000.0001) %MON pe_b_mean                    =   5.1318847831348E-04
(PID.TID 0000.0001) %MON ke_max                       =   1.5102430653663E+00
(PID.TID 0000.0001) %MON ke_mean                      =   8.2522577070118E-04
(PID.TID 0000.0001) %MON ke_vol                       =   1.3349978769393E+18
(PID.TID 0000.0001) %MON vort_r_min                   =  -3.0035854665150E-05
(PID.TID 0000.0001) %MON vort_r_max                   =   2.6832966106260E-05
(PID.TID 0000.0001) %MON vort_a_mean                  =  -1.9727864647440E-05
(PID.TID 0000.0001) %MON vort_a_sd                    =   7.4542399155071E-05
(PID.TID 0000.0001) %MON vort_p_mean                  =  -2.1760527755546E-05
(PID.TID 0000.0001) %MON vort_p_sd                    =   9.7228225734780E-05
(PID.TID 0000.0001) %MON surfExpan_theta_mean         =  -3.7898578640059E-06
(PID.TID 0000.0001) %MON surfExpan_salt_mean          =   2.7128144646635E-08
(PID.TID 0000.0001) // =======================================================
(PID.TID 0000.0001) // End MONITOR dynamic field statistics
(PID.TID 0000.0001) // =======================================================
 AGCM Date: 2000/04/15  Time: 17:00:00
 cg2d: Sum(rhs),rhsMax =  -2.07664164111174E+01  2.21604609321319E-01
 AGCM Date: 2000/04/15  Time: 17:15:00
 cg2d: Sum(rhs),rhsMax =  -2.11232171956726E+01  2.22032242758344E-01
 AGCM Date: 2000/04/15  Time: 17:30:00
 cg2d: Sum(rhs),rhsMax =  -2.14738704315279E+01  2.22229902151398E-01
 AGCM Date: 2000/04/15  Time: 17:45:00
 cg2d: Sum(rhs),rhsMax =  -2.18311895067302E+01  2.22200855901559E-01
(PID.TID 0000.0001)      cg2d_init_res =   2.16075672750103E+00
(PID.TID 0000.0001)      cg2d_iters(min,last) =      -1      35
(PID.TID 0000.0001)      cg2d_last_res =   2.61867578005848E-05
(PID.TID 0000.0001) // =======================================================
(PID.TID 0000.0001) // Begin MONITOR dynamic field statistics
(PID.TID 0000.0001) // =======================================================
(PID.TID 0000.0001) %MON time_tsnumber                =                    84
(PID.TID 0000.0001) %MON time_secondsf                =   7.5600000000000E+04
(PID.TID 0000.0001) %MON dynstat_eta_max              =   2.1454013283787E+00
(PID.TID 0000.0001) %MON dynstat_eta_min              =  -2.0777290735399E+00
(PID.TID 0000.0001) %MON dynstat_eta_mean             =   6.9059024829089E-04
(PID.TID 0000.0001) %MON dynstat_eta_sd               =   6.2676132658910E-01
(PID.TID 0000.0001) %MON dynstat_eta_del2             =   1.1347260202496E-04
(PID.TID 0000.0001) %MON dynstat_uvel_max             =   1.2651696320167E+00
(PID.TID 0000.0001) %MON dynstat_uvel_min             =  -1.4665110369450E+00
(PID.TID 0000.0001) %MON dynstat_uvel_mean            =  -1.2575912552559E-04
(PID.TID 0000.0001) %MON dynstat_uvel_sd              =   2.8244881686549E-02
(PID.TID 0000.0001) %MON dynstat_uvel_del2            =   1.6699619390826E-05
(PID.TID 0000.0001) %MON dynstat_vvel_max             =   1.1565967447928E+00
(PID.TID 0000.0001) %MON dynstat_vvel_min             =  -1.4835346558970E+00
(PID.TID 0000.0001) %MON dynstat_vvel_mean            =  -1.6432825702512E-03
(PID.TID 0000.0001) %MON dynstat_vvel_sd              =   3.1115450014586E-02
(PID.TID 0000.0001) %MON dynstat_vvel_del2            =   1.5913741389964E-05
(PID.TID 0000.0001) %MON dynstat_wvel_max             =   2.5900489074310E-03
(PID.TID 0000.0001) %MON dynstat_wvel_min             =  -3.5550349647013E-03
(PID.TID 0000.0001) %MON dynstat_wvel_mean            =  -3.1740279931353E-21
(PID.TID 0000.0001) %MON dynstat_wvel_sd              =   8.2127787622917E-05
(PID.TID 0000.0001) %MON dynstat_wvel_del2            =   9.2587807399003E-08
(PID.TID 0000.0001) %MON dynstat_theta_max            =   3.2575860317928E+01
(PID.TID 0000.0001) %MON dynstat_theta_min            =  -2.0399165851749E+00
(PID.TID 0000.0001) %MON dynstat_theta_mean           =   3.5888285225525E+00
(PID.TID 0000.0001) %MON dynstat_theta_sd             =   4.4314467437269E+00
(PID.TID 0000.0001) %MON dynstat_theta_del2           =   1.1921287931937E-04
(PID.TID 0000.0001) %MON dynstat_salt_max             =   3.4564977721320E+01
(PID.TID 0000.0001) %MON dynstat_salt_min             =   2.1341015405423E+01
(PID.TID 0000.0001) %MON dynstat_salt_mean            =   3.4499995558444E+01
(PID.TID 0000.0001) %MON dynstat_salt_sd              =   3.1639374049286E-03
(PID.TID 0000.0001) %MON dynstat_salt_del2            =   1.0206594135675E-05
(PID.TID 0000.0001) %MON dynstat_sst_max              =   3.2575837242839E+01
(PID.TID 0000.0001) %MON dynstat_sst_min              =  -1.9036923768287E+00
(PID.TID 0000.0001) %MON dynstat_sst_mean             =   1.8622275209512E+01
(PID.TID 0000.0001) %MON dynstat_sst_sd               =   9.9661420198108E+00
(PID.TID 0000.0001) %MON dynstat_sst_del2             =   1.1024708150352E-03
(PID.TID 0000.0001) %MON dynstat_sss_max              =   3.4564977721320E+01
(PID.TID 0000.0001) %MON dynstat_sss_min              =   2.1341015405423E+01
(PID.TID 0000.0001) %MON dynstat_sss_mean             =   3.4496378997102E+01
(PID.TID 0000.0001) %MON dynstat_sss_sd               =   5.9986348071951E-02
(PID.TID 0000.0001) %MON dynstat_sss_del2             =   4.0085864238843E-04
(PID.TID 0000.0001) %MON forcing_qnet_max             =   2.5249499511719E+03
(PID.TID 0000.0001) %MON forcing_qnet_min             =  -7.5691517351551E+02
(PID.TID 0000.0001) %MON forcing_qnet_mean            =   1.2747987657065E+00
(PID.TID 0000.0001) %MON forcing_qnet_sd              =   2.0030976340866E+02
(PID.TID 0000.0001) %MON forcing_qnet_del2            =   3.9957618519443E-01
(PID.TID 0000.0001) %MON forcing_qsw_max              =   0.0000000000000E+00
(PID.TID 0000.0001) %MON forcing_qsw_min              =  -4.3101537180161E+02
(PID.TID 0000.0001) %MON forcing_qsw_mean             =  -7.7268211257532E+01
(PID.TID 0000.0001) %MON forcing_qsw_sd               =   1.1310728621908E+02
(PID.TID 0000.0001) %MON forcing_qsw_del2             =   1.7844162595859E-01
(PID.TID 0000.0001) %MON forcing_empmr_max            =   1.1914062779397E-03
(PID.TID 0000.0001) %MON forcing_empmr_min            =  -1.1953216046095E-01
(PID.TID 0000.0001) %MON forcing_empmr_mean           =  -1.2923260792277E-05
(PID.TID 0000.0001) %MON forcing_empmr_sd             =   4.7105091866764E-04
(PID.TID 0000.0001) %MON forcing_empmr_del2           =   2.8778987206726E-06
(PID.TID 0000.0001) %MON forcing_fu_max               =   8.6844351887703E-01
(PID.TID 0000.0001) %MON forcing_fu_min               =  -6.4233675599098E-01
(PID.TID 0000.0001) %MON forcing_fu_mean              =   1.1269390210203E-02
(PID.TID 0000.0001) %MON forcing_fu_sd                =   9.9322182002988E-02
(PID.TID 0000.0001) %MON forcing_fu_del2              =   1.3363187164561E-04
(PID.TID 0000.0001) %MON forcing_fv_max               =   9.5955106616020E-01
(PID.TID 0000.0001) %MON forcing_fv_min               =  -7.6172866140333E-01
(PID.TID 0000.0001) %MON forcing_fv_mean              =  -8.6298717713787E-03
(PID.TID 0000.0001) %MON forcing_fv_sd                =   1.0158850956624E-01
(PID.TID 0000.0001) %MON forcing_fv_del2              =   1.1331873307975E-04
(PID.TID 0000.0001) %MON trAdv_CFL_u_max              =   2.5725945537295E-02
(PID.TID 0000.0001) %MON trAdv_CFL_v_max              =   1.7219328688801E-02
(PID.TID 0000.0001) %MON trAdv_CFL_w_max              =   1.0746453380605E-01
(PID.TID 0000.0001) %MON advcfl_uvel_max              =   2.5703006436602E-02
(PID.TID 0000.0001) %MON advcfl_vvel_max              =   1.7477955291035E-02
(PID.TID 0000.0001) %MON advcfl_wvel_max              =   1.0151276959020E-01
(PID.TID 0000.0001) %MON advcfl_W_hf_max              =   1.0746453380605E-01
(PID.TID 0000.0001) %MON pe_b_mean                    =   5.1672941855455E-04
(PID.TID 0000.0001) %MON ke_max                       =   1.3800116483917E+00
(PID.TID 0000.0001) %MON ke_mean                      =   8.5284612327418E-04
(PID.TID 0000.0001) %MON ke_vol                       =   1.3349978769393E+18
(PID.TID 0000.0001) %MON vort_r_min                   =  -2.8652914269849E-05
(PID.TID 0000.0001) %MON vort_r_max                   =   2.5303991625240E-05
(PID.TID 0000.0001) %MON vort_a_mean                  =  -1.9727864647440E-05
(PID.TID 0000.0001) %MON vort_a_sd                    =   7.4542462360555E-05
(PID.TID 0000.0001) %MON vort_p_mean                  =  -2.1760527755546E-05
(PID.TID 0000.0001) %MON vort_p_sd                    =   9.7227209271965E-05
(PID.TID 0000.0001) %MON surfExpan_theta_mean         =  -7.1045165177498E-06
(PID.TID 0000.0001) %MON surfExpan_salt_mean          =   3.5711780554218E-08
(PID.TID 0000.0001) // =======================================================
(PID.TID 0000.0001) // End MONITOR dynamic field statistics
(PID.TID 0000.0001) // =======================================================
 AGCM Date: 2000/04/15  Time: 18:00:00
 Writing:    483 Slices (  4 Nodes,  2 PartitionRoot) to File:  TEST.geosgcm_prog.20000415_1800z.nc4
 Writing:    148 Slices (  1 Nodes,  1 PartitionRoot) to File:  TEST.geosgcm_surf.20000415_1630z.nc4
 Writing:    111 Slices (  1 Nodes,  1 PartitionRoot) to File:  TEST.mit_ocn.20000415_1630z.nc4
 cg2d: Sum(rhs),rhsMax =  -2.21871562276318E+01  2.21956422053064E-01
 AGCM Date: 2000/04/15  Time: 18:15:00
 cg2d: Sum(rhs),rhsMax =  -2.25463920461039E+01  2.21517474545837E-01
 AGCM Date: 2000/04/15  Time: 18:30:00
 cg2d: Sum(rhs),rhsMax =  -2.29119076114177E+01  2.20908745095322E-01
 AGCM Date: 2000/04/15  Time: 18:45:00
 cg2d: Sum(rhs),rhsMax =  -2.32656602233156E+01  2.20159450720105E-01
(PID.TID 0000.0001)      cg2d_init_res =   2.07656279125074E+00
(PID.TID 0000.0001)      cg2d_iters(min,last) =      -1      36
(PID.TID 0000.0001)      cg2d_last_res =   2.73243181589285E-05
(PID.TID 0000.0001) // =======================================================
(PID.TID 0000.0001) // Begin MONITOR dynamic field statistics
(PID.TID 0000.0001) // =======================================================
(PID.TID 0000.0001) %MON time_tsnumber                =                    88
(PID.TID 0000.0001) %MON time_secondsf                =   7.9200000000000E+04
(PID.TID 0000.0001) %MON dynstat_eta_max              =   2.2077635369796E+00
(PID.TID 0000.0001) %MON dynstat_eta_min              =  -2.3941759558956E+00
(PID.TID 0000.0001) %MON dynstat_eta_mean             =   7.3596713845198E-04
(PID.TID 0000.0001) %MON dynstat_eta_sd               =   6.2580211369420E-01
(PID.TID 0000.0001) %MON dynstat_eta_del2             =   1.1907235244661E-04
(PID.TID 0000.0001) %MON dynstat_uvel_max             =   1.2604393574451E+00
(PID.TID 0000.0001) %MON dynstat_uvel_min             =  -1.4945934746414E+00
(PID.TID 0000.0001) %MON dynstat_uvel_mean            =   7.7914361833947E-04
(PID.TID 0000.0001) %MON dynstat_uvel_sd              =   2.9231450141120E-02
(PID.TID 0000.0001) %MON dynstat_uvel_del2            =   1.6762145968664E-05
(PID.TID 0000.0001) %MON dynstat_vvel_max             =   1.1716563599843E+00
(PID.TID 0000.0001) %MON dynstat_vvel_min             =  -1.2509921199976E+00
(PID.TID 0000.0001) %MON dynstat_vvel_mean            =  -1.4600045928608E-03
(PID.TID 0000.0001) %MON dynstat_vvel_sd              =   3.1322748926759E-02
(PID.TID 0000.0001) %MON dynstat_vvel_del2            =   1.5968153644531E-05
(PID.TID 0000.0001) %MON dynstat_wvel_max             =   2.8626705578264E-03
(PID.TID 0000.0001) %MON dynstat_wvel_min             =  -3.7312764035639E-03
(PID.TID 0000.0001) %MON dynstat_wvel_mean            =  -4.1523686696313E-21
(PID.TID 0000.0001) %MON dynstat_wvel_sd              =   8.4095276846376E-05
(PID.TID 0000.0001) %MON dynstat_wvel_del2            =   9.3162598751404E-08
(PID.TID 0000.0001) %MON dynstat_theta_max            =   3.2566260412619E+01
(PID.TID 0000.0001) %MON dynstat_theta_min            =  -2.0396917060794E+00
(PID.TID 0000.0001) %MON dynstat_theta_mean           =   3.5888372159292E+00
(PID.TID 0000.0001) %MON dynstat_theta_sd             =   4.4314964794824E+00
(PID.TID 0000.0001) %MON dynstat_theta_del2           =   1.1911504042345E-04
(PID.TID 0000.0001) %MON dynstat_salt_max             =   3.4565305269287E+01
(PID.TID 0000.0001) %MON dynstat_salt_min             =   2.0643917062876E+01
(PID.TID 0000.0001) %MON dynstat_salt_mean            =   3.4499995227366E+01
(PID.TID 0000.0001) %MON dynstat_salt_sd              =   3.3070534518032E-03
(PID.TID 0000.0001) %MON dynstat_salt_del2            =   1.0224957815102E-05
(PID.TID 0000.0001) %MON dynstat_sst_max              =   3.2566236562209E+01
(PID.TID 0000.0001) %MON dynstat_sst_min              =  -1.9013944324504E+00
(PID.TID 0000.0001) %MON dynstat_sst_mean             =   1.8624338700687E+01
(PID.TID 0000.0001) %MON dynstat_sst_sd               =   9.9680098275237E+00
(PID.TID 0000.0001) %MON dynstat_sst_del2             =   1.0992240099101E-03
(PID.TID 0000.0001) %MON dynstat_sss_max              =   3.4565305269287E+01
(PID.TID 0000.0001) %MON dynstat_sss_min              =   2.0643917062876E+01
(PID.TID 0000.0001) %MON dynstat_sss_mean             =   3.4496233297585E+01
(PID.TID 0000.0001) %MON dynstat_sss_sd               =   6.2639894601256E-02
(PID.TID 0000.0001) %MON dynstat_sss_del2             =   4.0139272760081E-04
(PID.TID 0000.0001) %MON forcing_qnet_max             =   1.6203745117188E+03
(PID.TID 0000.0001) %MON forcing_qnet_min             =  -6.4254050703934E+02
(PID.TID 0000.0001) %MON forcing_qnet_mean            =  -3.4995696596265E+00
(PID.TID 0000.0001) %MON forcing_qnet_sd              =   2.0246207223922E+02
(PID.TID 0000.0001) %MON forcing_qnet_del2            =   3.9441837105937E-01
(PID.TID 0000.0001) %MON forcing_qsw_max              =   0.0000000000000E+00
(PID.TID 0000.0001) %MON forcing_qsw_min              =  -4.3318801441607E+02
(PID.TID 0000.0001) %MON forcing_qsw_mean             =  -8.0417132778713E+01
(PID.TID 0000.0001) %MON forcing_qsw_sd               =   1.1575533537096E+02
(PID.TID 0000.0001) %MON forcing_qsw_del2             =   1.8192817284695E-01
(PID.TID 0000.0001) %MON forcing_empmr_max            =   1.1432563187554E-03
(PID.TID 0000.0001) %MON forcing_empmr_min            =  -1.1252886801958E-01
(PID.TID 0000.0001) %MON forcing_empmr_mean           =  -1.2794271497855E-05
(PID.TID 0000.0001) %MON forcing_empmr_sd             =   4.4682952335273E-04
(PID.TID 0000.0001) %MON forcing_empmr_del2           =   2.7171752186217E-06
(PID.TID 0000.0001) %MON forcing_fu_max               =   8.3795738220215E-01
(PID.TID 0000.0001) %MON forcing_fu_min               =  -6.3853776454926E-01
(PID.TID 0000.0001) %MON forcing_fu_mean              =   1.1063248378764E-02
(PID.TID 0000.0001) %MON forcing_fu_sd                =   9.8320775185690E-02
(PID.TID 0000.0001) %MON forcing_fu_del2              =   1.3242137362341E-04
(PID.TID 0000.0001) %MON forcing_fv_max               =   9.9634322524071E-01
(PID.TID 0000.0001) %MON forcing_fv_min               =  -7.6791979376838E-01
(PID.TID 0000.0001) %MON forcing_fv_mean              =  -8.9569514431064E-03
(PID.TID 0000.0001) %MON forcing_fv_sd                =   1.0138508123219E-01
(PID.TID 0000.0001) %MON forcing_fv_del2              =   1.1297505474892E-04
(PID.TID 0000.0001) %MON trAdv_CFL_u_max              =   2.6107659181390E-02
(PID.TID 0000.0001) %MON trAdv_CFL_v_max              =   1.6010651666189E-02
(PID.TID 0000.0001) %MON trAdv_CFL_w_max              =   1.1642029751012E-01
(PID.TID 0000.0001) %MON advcfl_uvel_max              =   2.6084379717397E-02
(PID.TID 0000.0001) %MON advcfl_vvel_max              =   1.5825030211424E-02
(PID.TID 0000.0001) %MON advcfl_wvel_max              =   1.1014519014478E-01
(PID.TID 0000.0001) %MON advcfl_W_hf_max              =   1.1642029751012E-01
(PID.TID 0000.0001) %MON pe_b_mean                    =   5.1514908188094E-04
(PID.TID 0000.0001) %MON ke_max                       =   1.1486552706860E+00
(PID.TID 0000.0001) %MON ke_mean                      =   8.8643705767323E-04
(PID.TID 0000.0001) %MON ke_vol                       =   1.3349978769393E+18
(PID.TID 0000.0001) %MON vort_r_min                   =  -2.6694763149903E-05
(PID.TID 0000.0001) %MON vort_r_max                   =   2.5367782049722E-05
(PID.TID 0000.0001) %MON vort_a_mean                  =  -1.9727864647440E-05
(PID.TID 0000.0001) %MON vort_a_sd                    =   7.4542541573939E-05
(PID.TID 0000.0001) %MON vort_p_mean                  =  -2.1760527755546E-05
(PID.TID 0000.0001) %MON vort_p_sd                    =   9.7226472619027E-05
(PID.TID 0000.0001) %MON surfExpan_theta_mean         =  -8.9577663632905E-06
(PID.TID 0000.0001) %MON surfExpan_salt_mean          =   4.0807425239111E-08
(PID.TID 0000.0001) // =======================================================
(PID.TID 0000.0001) // End MONITOR dynamic field statistics
(PID.TID 0000.0001) // =======================================================
 AGCM Date: 2000/04/15  Time: 19:00:00
 cg2d: Sum(rhs),rhsMax =  -2.36166422266606E+01  2.19298265058453E-01
 AGCM Date: 2000/04/15  Time: 19:15:00
 cg2d: Sum(rhs),rhsMax =  -2.39720051564283E+01  2.18354041201522E-01
 AGCM Date: 2000/04/15  Time: 19:30:00
 cg2d: Sum(rhs),rhsMax =  -2.43134815214387E+01  2.17351964899101E-01
 AGCM Date: 2000/04/15  Time: 19:45:00
 cg2d: Sum(rhs),rhsMax =  -2.46656580944675E+01  2.16315048007279E-01
(PID.TID 0000.0001)      cg2d_init_res =   2.27247241456985E+00
(PID.TID 0000.0001)      cg2d_iters(min,last) =      -1      37
(PID.TID 0000.0001)      cg2d_last_res =   1.97813160944188E-05
(PID.TID 0000.0001) // =======================================================
(PID.TID 0000.0001) // Begin MONITOR dynamic field statistics
(PID.TID 0000.0001) // =======================================================
(PID.TID 0000.0001) %MON time_tsnumber                =                    92
(PID.TID 0000.0001) %MON time_secondsf                =   8.2800000000000E+04
(PID.TID 0000.0001) %MON dynstat_eta_max              =   2.2085568302208E+00
(PID.TID 0000.0001) %MON dynstat_eta_min              =  -2.3000775232188E+00
(PID.TID 0000.0001) %MON dynstat_eta_mean             =   7.8025354241306E-04
(PID.TID 0000.0001) %MON dynstat_eta_sd               =   6.2143453996556E-01
(PID.TID 0000.0001) %MON dynstat_eta_del2             =   1.2361751087636E-04
(PID.TID 0000.0001) %MON dynstat_uvel_max             =   1.2391971749504E+00
(PID.TID 0000.0001) %MON dynstat_uvel_min             =  -1.4259566732411E+00
(PID.TID 0000.0001) %MON dynstat_uvel_mean            =   1.3359208328858E-03
(PID.TID 0000.0001) %MON dynstat_uvel_sd              =   3.0364170145176E-02
(PID.TID 0000.0001) %MON dynstat_uvel_del2            =   1.6842367027961E-05
(PID.TID 0000.0001) %MON dynstat_vvel_max             =   1.2043864781171E+00
(PID.TID 0000.0001) %MON dynstat_vvel_min             =  -1.0975474967637E+00
(PID.TID 0000.0001) %MON dynstat_vvel_mean            =  -1.0948102074055E-03
(PID.TID 0000.0001) %MON dynstat_vvel_sd              =   3.1438011335858E-02
(PID.TID 0000.0001) %MON dynstat_vvel_del2            =   1.6016364169772E-05
(PID.TID 0000.0001) %MON dynstat_wvel_max             =   3.1025191199774E-03
(PID.TID 0000.0001) %MON dynstat_wvel_min             =  -3.8463638256777E-03
(PID.TID 0000.0001) %MON dynstat_wvel_mean            =  -4.8218733268360E-21
(PID.TID 0000.0001) %MON dynstat_wvel_sd              =   8.6034410123751E-05
(PID.TID 0000.0001) %MON dynstat_wvel_del2            =   9.3426075041438E-08
(PID.TID 0000.0001) %MON dynstat_theta_max            =   3.2556327876044E+01
(PID.TID 0000.0001) %MON dynstat_theta_min            =  -2.0394919908676E+00
(PID.TID 0000.0001) %MON dynstat_theta_mean           =   3.5888478830837E+00
(PID.TID 0000.0001) %MON dynstat_theta_sd             =   4.4315541016960E+00
(PID.TID 0000.0001) %MON dynstat_theta_del2           =   1.1901174828727E-04
(PID.TID 0000.0001) %MON dynstat_salt_max             =   3.4565632394789E+01
(PID.TID 0000.0001) %MON dynstat_salt_min             =   2.0001213989999E+01
(PID.TID 0000.0001) %MON dynstat_salt_mean            =   3.4499994901091E+01
(PID.TID 0000.0001) %MON dynstat_salt_sd              =   3.4455359880099E-03
(PID.TID 0000.0001) %MON dynstat_salt_del2            =   1.0237158118783E-05
(PID.TID 0000.0001) %MON dynstat_sst_max              =   3.2556303735514E+01
(PID.TID 0000.0001) %MON dynstat_sst_min              =  -1.8991993934103E+00
(PID.TID 0000.0001) %MON dynstat_sst_mean             =   1.8626642329435E+01
(PID.TID 0000.0001) %MON dynstat_sst_sd               =   9.9700504080481E+00
(PID.TID 0000.0001) %MON dynstat_sst_del2             =   1.0962644681374E-03
(PID.TID 0000.0001) %MON dynstat_sss_max              =   3.4565632394789E+01
(PID.TID 0000.0001) %MON dynstat_sss_min              =   2.0001213989999E+01
(PID.TID 0000.0001) %MON dynstat_sss_mean             =   3.4496093378516E+01
(PID.TID 0000.0001) %MON dynstat_sss_sd               =   6.5203113224411E-02
(PID.TID 0000.0001) %MON dynstat_sss_del2             =   4.0160078674329E-04
(PID.TID 0000.0001) %MON forcing_qnet_max             =   1.9362795410156E+03
(PID.TID 0000.0001) %MON forcing_qnet_min             =  -7.5824066162109E+02
(PID.TID 0000.0001) %MON forcing_qnet_mean            =  -9.4805729677267E+00
(PID.TID 0000.0001) %MON forcing_qnet_sd              =   2.0947795321533E+02
(PID.TID 0000.0001) %MON forcing_qnet_del2            =   4.1590098623120E-01
(PID.TID 0000.0001) %MON forcing_qsw_max              =   0.0000000000000E+00
(PID.TID 0000.0001) %MON forcing_qsw_min              =  -4.3432554810604E+02
(PID.TID 0000.0001) %MON forcing_qsw_mean             =  -8.4071531633484E+01
(PID.TID 0000.0001) %MON forcing_qsw_sd               =   1.1929323447933E+02
(PID.TID 0000.0001) %MON forcing_qsw_del2             =   1.8673876829074E-01
(PID.TID 0000.0001) %MON forcing_empmr_max            =   1.0959202190861E-03
(PID.TID 0000.0001) %MON forcing_empmr_min            =  -1.0693415999413E-01
(PID.TID 0000.0001) %MON forcing_empmr_mean           =  -1.2737270450942E-05
(PID.TID 0000.0001) %MON forcing_empmr_sd             =   4.2741316981605E-04
(PID.TID 0000.0001) %MON forcing_empmr_del2           =   2.6123592661429E-06
(PID.TID 0000.0001) %MON forcing_fu_max               =   8.2294645905495E-01
(PID.TID 0000.0001) %MON forcing_fu_min               =  -6.4834493398666E-01
(PID.TID 0000.0001) %MON forcing_fu_mean              =   1.0872767654827E-02
(PID.TID 0000.0001) %MON forcing_fu_sd                =   9.7879738138618E-02
(PID.TID 0000.0001) %MON forcing_fu_del2              =   1.3131349891984E-04
(PID.TID 0000.0001) %MON forcing_fv_max               =   1.0299577713013E+00
(PID.TID 0000.0001) %MON forcing_fv_min               =  -7.4065510013819E-01
(PID.TID 0000.0001) %MON forcing_fv_mean              =  -9.1245044471929E-03
(PID.TID 0000.0001) %MON forcing_fv_sd                =   1.0127402558346E-01
(PID.TID 0000.0001) %MON forcing_fv_del2              =   1.1291518925800E-04
(PID.TID 0000.0001) %MON trAdv_CFL_u_max              =   2.5926260390779E-02
(PID.TID 0000.0001) %MON trAdv_CFL_v_max              =   1.5133972676405E-02
(PID.TID 0000.0001) %MON trAdv_CFL_w_max              =   1.2440137124652E-01
(PID.TID 0000.0001) %MON advcfl_uvel_max              =   2.5903142674976E-02
(PID.TID 0000.0001) %MON advcfl_vvel_max              =   1.4915035266252E-02
(PID.TID 0000.0001) %MON advcfl_wvel_max              =   1.1785059907760E-01
(PID.TID 0000.0001) %MON advcfl_W_hf_max              =   1.2440137124652E-01
(PID.TID 0000.0001) %MON pe_b_mean                    =   5.0798365555332E-04
(PID.TID 0000.0001) %MON ke_max                       =   1.0060354153835E+00
(PID.TID 0000.0001) %MON ke_mean                      =   9.2258897980598E-04
(PID.TID 0000.0001) %MON ke_vol                       =   1.3349978769393E+18
(PID.TID 0000.0001) %MON vort_r_min                   =  -2.5014052992981E-05
(PID.TID 0000.0001) %MON vort_r_max                   =   2.5984239426230E-05
(PID.TID 0000.0001) %MON vort_a_mean                  =  -1.9727864647440E-05
(PID.TID 0000.0001) %MON vort_a_sd                    =   7.4542621636544E-05
(PID.TID 0000.0001) %MON vort_p_mean                  =  -2.1760527755546E-05
(PID.TID 0000.0001) %MON vort_p_sd                    =   9.7226095023160E-05
(PID.TID 0000.0001) %MON surfExpan_theta_mean         =  -8.8882130206383E-06
(PID.TID 0000.0001) %MON surfExpan_salt_mean          =   4.0429675412423E-08
(PID.TID 0000.0001) // =======================================================
(PID.TID 0000.0001) // End MONITOR dynamic field statistics
(PID.TID 0000.0001) // =======================================================
 AGCM Date: 2000/04/15  Time: 20:00:00
 cg2d: Sum(rhs),rhsMax =  -2.50094450519893E+01  2.15262790060391E-01
 AGCM Date: 2000/04/15  Time: 20:15:00
 cg2d: Sum(rhs),rhsMax =  -2.53454720347301E+01  2.14210571859336E-01
 AGCM Date: 2000/04/15  Time: 20:30:00
 cg2d: Sum(rhs),rhsMax =  -2.56772963176305E+01  2.13172024750876E-01
 AGCM Date: 2000/04/15  Time: 20:45:00
 cg2d: Sum(rhs),rhsMax =  -2.60162675067703E+01  2.12320239279561E-01
(PID.TID 0000.0001)      cg2d_init_res =   2.53486001963592E+00
(PID.TID 0000.0001)      cg2d_iters(min,last) =      -1      36
(PID.TID 0000.0001)      cg2d_last_res =   2.59652321436698E-05
(PID.TID 0000.0001) // =======================================================
(PID.TID 0000.0001) // Begin MONITOR dynamic field statistics
(PID.TID 0000.0001) // =======================================================
(PID.TID 0000.0001) %MON time_tsnumber                =                    96
(PID.TID 0000.0001) %MON time_secondsf                =   8.6400000000000E+04
(PID.TID 0000.0001) %MON dynstat_eta_max              =   2.4174165980134E+00
(PID.TID 0000.0001) %MON dynstat_eta_min              =  -1.7954866051100E+00
(PID.TID 0000.0001) %MON dynstat_eta_mean             =   8.2297763168436E-04
(PID.TID 0000.0001) %MON dynstat_eta_sd               =   6.1559492266891E-01
(PID.TID 0000.0001) %MON dynstat_eta_del2             =   1.2266482331211E-04
(PID.TID 0000.0001) %MON dynstat_uvel_max             =   1.3626102777932E+00
(PID.TID 0000.0001) %MON dynstat_uvel_min             =  -1.2975443702884E+00
(PID.TID 0000.0001) %MON dynstat_uvel_mean            =   1.5429170356600E-03
(PID.TID 0000.0001) %MON dynstat_uvel_sd              =   3.1400694428288E-02
(PID.TID 0000.0001) %MON dynstat_uvel_del2            =   1.6913879054950E-05
(PID.TID 0000.0001) %MON dynstat_vvel_max             =   1.2391787484399E+00
(PID.TID 0000.0001) %MON dynstat_vvel_min             =  -1.0692055970250E+00
(PID.TID 0000.0001) %MON dynstat_vvel_mean            =  -6.8408021137865E-04
(PID.TID 0000.0001) %MON dynstat_vvel_sd              =   3.1501876492806E-02
(PID.TID 0000.0001) %MON dynstat_vvel_del2            =   1.6066116490236E-05
(PID.TID 0000.0001) %MON dynstat_wvel_max             =   3.2804756707064E-03
(PID.TID 0000.0001) %MON dynstat_wvel_min             =  -3.9756004263595E-03
(PID.TID 0000.0001) %MON dynstat_wvel_mean            =   1.9869170471883E-21
(PID.TID 0000.0001) %MON dynstat_wvel_sd              =   8.7193579250345E-05
(PID.TID 0000.0001) %MON dynstat_wvel_del2            =   9.3228137445481E-08
(PID.TID 0000.0001) %MON dynstat_theta_max            =   3.2546287078193E+01
(PID.TID 0000.0001) %MON dynstat_theta_min            =  -2.0393203234201E+00
(PID.TID 0000.0001) %MON dynstat_theta_mean           =   3.5888588110383E+00
(PID.TID 0000.0001) %MON dynstat_theta_sd             =   4.4316137847792E+00
(PID.TID 0000.0001) %MON dynstat_theta_del2           =   1.1890474628144E-04
(PID.TID 0000.0001) %MON dynstat_salt_max             =   3.4565959513292E+01
(PID.TID 0000.0001) %MON dynstat_salt_min             =   1.9439513820806E+01
(PID.TID 0000.0001) %MON dynstat_salt_mean            =   3.4499994589986E+01
(PID.TID 0000.0001) %MON dynstat_salt_sd              =   3.5729091440761E-03
(PID.TID 0000.0001) %MON dynstat_salt_del2            =   1.0264702282292E-05
(PID.TID 0000.0001) %MON dynstat_sst_max              =   3.2546262028578E+01
(PID.TID 0000.0001) %MON dynstat_sst_min              =  -1.8971343258812E+00
(PID.TID 0000.0001) %MON dynstat_sst_mean             =   1.8629445330530E+01
(PID.TID 0000.0001) %MON dynstat_sst_sd               =   9.9724320252574E+00
(PID.TID 0000.0001) %MON dynstat_sst_del2             =   1.0938271115076E-03
(PID.TID 0000.0001) %MON dynstat_sss_max              =   3.4565959513292E+01
(PID.TID 0000.0001) %MON dynstat_sss_min              =   1.9439513820806E+01
(PID.TID 0000.0001) %MON dynstat_sss_mean             =   3.4495957780509E+01
(PID.TID 0000.0001) %MON dynstat_sss_sd               =   6.7577180639126E-02
(PID.TID 0000.0001) %MON dynstat_sss_del2             =   4.0241074145470E-04
(PID.TID 0000.0001) %MON forcing_qnet_max             =   2.3560285644531E+03
(PID.TID 0000.0001) %MON forcing_qnet_min             =  -6.0957740072709E+02
(PID.TID 0000.0001) %MON forcing_qnet_mean            =  -1.6706502306170E+01
(PID.TID 0000.0001) %MON forcing_qnet_sd              =   2.1553062146446E+02
(PID.TID 0000.0001) %MON forcing_qnet_del2            =   4.1818432986872E-01
(PID.TID 0000.0001) %MON forcing_qsw_max              =   0.0000000000000E+00
(PID.TID 0000.0001) %MON forcing_qsw_min              =  -4.2902696662639E+02
(PID.TID 0000.0001) %MON forcing_qsw_mean             =  -8.8209591043737E+01
(PID.TID 0000.0001) %MON forcing_qsw_sd               =   1.2138887756962E+02
(PID.TID 0000.0001) %MON forcing_qsw_del2             =   1.9127547126663E-01
(PID.TID 0000.0001) %MON forcing_empmr_max            =   1.0514323366806E-03
(PID.TID 0000.0001) %MON forcing_empmr_min            =  -9.5231592655182E-02
(PID.TID 0000.0001) %MON forcing_empmr_mean           =  -1.2259667569798E-05
(PID.TID 0000.0001) %MON forcing_empmr_sd             =   3.9030369588767E-04
(PID.TID 0000.0001) %MON forcing_empmr_del2           =   2.3976979166674E-06
(PID.TID 0000.0001) %MON forcing_fu_max               =   8.3758595585823E-01
(PID.TID 0000.0001) %MON forcing_fu_min               =  -6.5818873047829E-01
(PID.TID 0000.0001) %MON forcing_fu_mean              =   1.0623616776255E-02
(PID.TID 0000.0001) %MON forcing_fu_sd                =   9.7885263086099E-02
(PID.TID 0000.0001) %MON forcing_fu_del2              =   1.3082332957614E-04
(PID.TID 0000.0001) %MON forcing_fv_max               =   1.0728725194931E+00
(PID.TID 0000.0001) %MON forcing_fv_min               =  -7.4601051225954E-01
(PID.TID 0000.0001) %MON forcing_fv_mean              =  -9.1334781102543E-03
(PID.TID 0000.0001) %MON forcing_fv_sd                =   1.0156612625447E-01
(PID.TID 0000.0001) %MON forcing_fv_del2              =   1.1339454506098E-04
(PID.TID 0000.0001) %MON trAdv_CFL_u_max              =   2.5205534079835E-02
(PID.TID 0000.0001) %MON trAdv_CFL_v_max              =   1.3949256184401E-02
(PID.TID 0000.0001) %MON trAdv_CFL_w_max              =   1.3096565989744E-01
(PID.TID 0000.0001) %MON advcfl_uvel_max              =   2.5183059015374E-02
(PID.TID 0000.0001) %MON advcfl_vvel_max              =   1.3904306363741E-02
(PID.TID 0000.0001) %MON advcfl_wvel_max              =   1.2419391232480E-01
(PID.TID 0000.0001) %MON advcfl_W_hf_max              =   1.3096565989744E-01
(PID.TID 0000.0001) %MON pe_b_mean                    =   4.9848157758182E-04
(PID.TID 0000.0001) %MON ke_max                       =   8.0359629174327E-01
(PID.TID 0000.0001) %MON ke_mean                      =   9.5532814658290E-04
(PID.TID 0000.0001) %MON ke_vol                       =   1.3349978769393E+18
(PID.TID 0000.0001) %MON vort_r_min                   =  -2.8521309691864E-05
(PID.TID 0000.0001) %MON vort_r_max                   =   3.2361446225302E-05
(PID.TID 0000.0001) %MON vort_a_mean                  =  -1.9727864647440E-05
(PID.TID 0000.0001) %MON vort_a_sd                    =   7.4542688703122E-05
(PID.TID 0000.0001) %MON vort_p_mean                  =  -2.1760527755546E-05
(PID.TID 0000.0001) %MON vort_p_sd                    =   9.7226062067215E-05
(PID.TID 0000.0001) %MON surfExpan_theta_mean         =  -6.5889389005128E-06
(PID.TID 0000.0001) %MON surfExpan_salt_mean          =   3.5095477150375E-08
(PID.TID 0000.0001) // =======================================================
(PID.TID 0000.0001) // End MONITOR dynamic field statistics
(PID.TID 0000.0001) // =======================================================
 AGCM Date: 2000/04/15  Time: 21:00:00
 Writing:    148 Slices (  5 Nodes,  1 PartitionRoot) to File:  TEST.geosgcm_surf.20000415_1930z.nc4
 Writing:    111 Slices (  5 Nodes,  1 PartitionRoot) to File:  TEST.mit_ocn.20000415_1930z.nc4
   Character Resource Parameter DYN_INTERNAL_CHECKPOINT_FILE: fvcore_internal_checkpoint
   Character Resource Parameter DYN_INTERNAL_CHECKPOINT_TYPE: pnc4
   Character Resource Parameter MOIST_INTERNAL_CHECKPOINT_FILE: moist_internal_checkpoint
   Character Resource Parameter MOIST_INTERNAL_CHECKPOINT_TYPE: pnc4
   Character Resource Parameter MOIST_IMPORT_CHECKPOINT_FILE: moist_import_checkpoint
   Character Resource Parameter MOIST_IMPORT_CHECKPOINT_TYPE: pnc4
   Character Resource Parameter SALTWATER_INTERNAL_CHECKPOINT_FILE: saltwater_internal_checkpoint
   Character Resource Parameter SALTWATER_INTERNAL_CHECKPOINT_TYPE: pnc4
   Character Resource Parameter SALTWATER_IMPORT_CHECKPOINT_FILE: saltwater_import_checkpoint
   Character Resource Parameter SALTWATER_IMPORT_CHECKPOINT_TYPE: pnc4
   Character Resource Parameter LAKE_INTERNAL_CHECKPOINT_FILE: lake_internal_checkpoint
   Character Resource Parameter LAKE_INTERNAL_CHECKPOINT_TYPE: pnc4
   Character Resource Parameter LANDICE_INTERNAL_CHECKPOINT_FILE: landice_internal_checkpoint
   Character Resource Parameter LANDICE_INTERNAL_CHECKPOINT_TYPE: pnc4
   Character Resource Parameter CATCH_INTERNAL_CHECKPOINT_FILE: catch_internal_checkpoint
   Character Resource Parameter CATCH_INTERNAL_CHECKPOINT_TYPE: pnc4
   Character Resource Parameter SURFACE_IMPORT_CHECKPOINT_FILE: surf_import_checkpoint
   Character Resource Parameter SURFACE_IMPORT_CHECKPOINT_TYPE: pnc4
   Character Resource Parameter TURBULENCE_INTERNAL_CHECKPOINT_FILE: turb_internal_checkpoint
   Character Resource Parameter TURBULENCE_INTERNAL_CHECKPOINT_TYPE: pnc4
   Character Resource Parameter TURBULENCE_IMPORT_CHECKPOINT_FILE: turb_import_checkpoint
   Character Resource Parameter TURBULENCE_IMPORT_CHECKPOINT_TYPE: pnc4
   Character Resource Parameter PCHEM_INTERNAL_CHECKPOINT_FILE: pchem_internal_checkpoint
   Character Resource Parameter PCHEM_INTERNAL_CHECKPOINT_TYPE: pnc4
   Character Resource Parameter GOCART.data_INTERNAL_CHECKPOINT_FILE: gocartdata_internal_checkpoint
   Character Resource Parameter GOCART.data_INTERNAL_CHECKPOINT_TYPE: pnc4
   Character Resource Parameter TR_INTERNAL_CHECKPOINT_FILE: tr_internal_checkpoint
   Character Resource Parameter TR_INTERNAL_CHECKPOINT_TYPE: pnc4
   Character Resource Parameter TR_IMPORT_CHECKPOINT_FILE: tr_import_checkpoint
   Character Resource Parameter TR_IMPORT_CHECKPOINT_TYPE: pnc4
   Character Resource Parameter SOLAR_INTERNAL_CHECKPOINT_FILE: solar_internal_checkpoint
   Character Resource Parameter SOLAR_INTERNAL_CHECKPOINT_TYPE: pnc4
   Character Resource Parameter IRRAD_INTERNAL_CHECKPOINT_FILE: irrad_internal_checkpoint
   Character Resource Parameter IRRAD_INTERNAL_CHECKPOINT_TYPE: pnc4
   Character Resource Parameter ORAD_IMPORT_CHECKPOINT_FILE: orad_import_checkpoint
   Character Resource Parameter ORAD_IMPORT_CHECKPOINT_TYPE: pnc4
