(PID.TID 0000.0001) 
(PID.TID 0000.0001) // ======================================================
(PID.TID 0000.0001) //                      MITgcm UV
(PID.TID 0000.0001) //                      =========
(PID.TID 0000.0001) // ======================================================
(PID.TID 0000.0001) // execution environment starting up...
(PID.TID 0000.0001) 
(PID.TID 0000.0001) // MITgcmUV version:  checkpoint66k
(PID.TID 0000.0001) // Build user:        heracles
(PID.TID 0000.0001) // Build host:        heracles
(PID.TID 0000.0001) // Build date:        Thu Oct 12 06:22:43 PDT 2017
(PID.TID 0000.0001) 
(PID.TID 0000.0001) // =======================================================
(PID.TID 0000.0001) // Execution Environment parameter file "eedata"
(PID.TID 0000.0001) // =======================================================
(PID.TID 0000.0001) ># Example "eedata" file
(PID.TID 0000.0001) ># Lines beginning "#" are comments
(PID.TID 0000.0001) ># nTx - No. threads per process in X
(PID.TID 0000.0001) ># nTy - No. threads per process in Y
(PID.TID 0000.0001) > &EEPARMS
(PID.TID 0000.0001) > useCubedSphereExchange=.TRUE.,
(PID.TID 0000.0001) > nTx=1,
(PID.TID 0000.0001) > nTy=1,
(PID.TID 0000.0001) > &end
(PID.TID 0000.0001) ># Note: Some systems use & as the
(PID.TID 0000.0001) ># namelist terminator. Other systems
(PID.TID 0000.0001) ># use a / character (as shown here).
(PID.TID 0000.0001) 
(PID.TID 0000.0001) // =======================================================
(PID.TID 0000.0001) // Computational Grid Specification ( see files "SIZE.h" )
(PID.TID 0000.0001) //                                  ( and "eedata"       )
(PID.TID 0000.0001) // =======================================================
(PID.TID 0000.0001)      nPx =    6 ; /* No. processes in X */
(PID.TID 0000.0001)      nPy =    1 ; /* No. processes in Y */
(PID.TID 0000.0001)      nSx =    1 ; /* No. tiles in X per process */
(PID.TID 0000.0001)      nSy =    1 ; /* No. tiles in Y per process */
(PID.TID 0000.0001)      sNx =   32 ; /* Tile size in X */
(PID.TID 0000.0001)      sNy =   32 ; /* Tile size in Y */
(PID.TID 0000.0001)      OLx =    4 ; /* Tile overlap distance in X */
(PID.TID 0000.0001)      OLy =    4 ; /* Tile overlap distance in Y */
(PID.TID 0000.0001)      nTx =    1 ; /* No. threads in X per process */
(PID.TID 0000.0001)      nTy =    1 ; /* No. threads in Y per process */
(PID.TID 0000.0001)       Nr =   15 ; /* No. levels in the vertical   */
(PID.TID 0000.0001)       Nx =  192 ; /* Total domain size in X ( = nPx*nSx*sNx ) */
(PID.TID 0000.0001)       Ny =   32 ; /* Total domain size in Y ( = nPy*nSy*sNy ) */
(PID.TID 0000.0001)   nTiles =    1 ; /* Total no. tiles per process ( = nSx*nSy ) */
(PID.TID 0000.0001)   nProcs =    6 ; /* Total no. processes ( = nPx*nPy ) */
(PID.TID 0000.0001) nThreads =    1 ; /* Total no. threads per process ( = nTx*nTy ) */
(PID.TID 0000.0001) usingMPI =    T ; /* Flag used to control whether MPI is in use */
(PID.TID 0000.0001)                   /*  note: To execute a program with MPI calls */
(PID.TID 0000.0001)                   /*  it must be launched appropriately e.g     */
(PID.TID 0000.0001)                   /*  "mpirun -np 64 ......"                    */
(PID.TID 0000.0001) useCoupler=    F ;/* Flag used to control communications with   */
(PID.TID 0000.0001)                   /*  other model components, through a coupler */
(PID.TID 0000.0001) debugMode =    F ; /* print debug msg. (sequence of S/R calls)  */
(PID.TID 0000.0001) printMapIncludesZeros=    F ; /* print zeros in Std.Output maps */
(PID.TID 0000.0001) maxLengthPrt1D=   65 /* maxLength of 1D array printed to StdOut */
(PID.TID 0000.0001) 
(PID.TID 0000.0001) ======= Starting MPI parallel Run =========
(PID.TID 0000.0001)  My Processor Name (len:  8 ) = heracles
(PID.TID 0000.0001)  Located at (  0,  0) on processor grid (0:  5,0:  0)
(PID.TID 0000.0001)  Origin at  (     1,     1) on global grid (1:   192,1:    32)
(PID.TID 0000.0001)  North neighbor = processor 0000
(PID.TID 0000.0001)  South neighbor = processor 0000
(PID.TID 0000.0001)   East neighbor = processor 0001
(PID.TID 0000.0001)   West neighbor = processor 0005
(PID.TID 0000.0001) // ======================================================
(PID.TID 0000.0001) // Mapping of tiles to threads
(PID.TID 0000.0001) // ======================================================
(PID.TID 0000.0001) // -o- Thread   1, tiles (   1:   1,   1:   1)
(PID.TID 0000.0001) 
(PID.TID 0000.0001) W2_READPARMS: file data.exch2 not found
(PID.TID 0000.0001) => use W2_EXCH2 default: regular 6-facets Cube
(PID.TID 0000.0001) W2_useE2ioLayOut=    T ;/* T: use Exch2 glob IO map; F: use model default */
(PID.TID 0000.0001) W2_mapIO        =  -1 ; /* select option for Exch2 global-IO map */
(PID.TID 0000.0001) W2_printMsg     =  -1 ; /* select option for printing information */
(PID.TID 0000.0001) ===== Start setting W2 TOPOLOGY:
(PID.TID 0000.0001)  write to log-file: w2_tile_topology.0000.log
(PID.TID 0000.0001) =====       setting W2 TOPOLOGY: Done
(PID.TID 0000.0001) 
(PID.TID 0000.0001)  INI_PARMS: opening model parameter file "data"
(PID.TID 0000.0001)  OPEN_COPY_DATA_FILE: opening file data
(PID.TID 0000.0001) // =======================================================
(PID.TID 0000.0001) // Parameter file "data"
(PID.TID 0000.0001) // =======================================================
(PID.TID 0000.0001) ># ====================
(PID.TID 0000.0001) ># | Model parameters |
(PID.TID 0000.0001) ># ====================
(PID.TID 0000.0001) >#
(PID.TID 0000.0001) ># Continuous equation parameters
(PID.TID 0000.0001) > &PARM01
(PID.TID 0000.0001) > tRef=15*20.,
(PID.TID 0000.0001) > sRef=15*35.,
(PID.TID 0000.0001) > viscAh =3.E5,
(PID.TID 0000.0001) > viscAr =1.E-3,
(PID.TID 0000.0001) > diffKrT=3.E-5,
(PID.TID 0000.0001) > diffKrS=3.E-5,
(PID.TID 0000.0001) > ivdc_kappa=10.,
(PID.TID 0000.0001) > implicitDiffusion=.TRUE.,
(PID.TID 0000.0001) > rhonil=1035.,
(PID.TID 0000.0001) > rhoConstFresh=1000.,
(PID.TID 0000.0001) > eosType='JMD95Z',
(PID.TID 0000.0001) > staggerTimeStep=.TRUE.,
(PID.TID 0000.0001) > vectorInvariantMomentum=.TRUE.,
(PID.TID 0000.0001) > implicitFreeSurface=.TRUE.,
(PID.TID 0000.0001) > exactConserv=.TRUE.,
(PID.TID 0000.0001) > select_rStar=2,
(PID.TID 0000.0001) > nonlinFreeSurf=4,
(PID.TID 0000.0001) > useRealFreshWaterFlux=.TRUE.,
(PID.TID 0000.0001) > allowFreezing=.TRUE.,
(PID.TID 0000.0001) > hFacMin=.1,
(PID.TID 0000.0001) > hFacMinDr=20.,
(PID.TID 0000.0001) > readBinaryPrec=64,
(PID.TID 0000.0001) > useSingleCpuIo=.TRUE.,
(PID.TID 0000.0001) > &end
(PID.TID 0000.0001) >
(PID.TID 0000.0001) ># Elliptic solver parameters
(PID.TID 0000.0001) > &PARM02
(PID.TID 0000.0001) > &end
(PID.TID 0000.0001) >
(PID.TID 0000.0001) ># Time stepping parameters
(PID.TID 0000.0001) > &PARM03
(PID.TID 0000.0001) > nIter0           = 72000,
(PID.TID 0000.0001) >  nTimeSteps       = 4,
(PID.TID 0000.0001) > deltaT           = 25.,
(PID.TID 0000.0001) > monitorFreq      = 25.,
(PID.TID 0000.0001) > abEps            = 0.1,
(PID.TID 0000.0001) > tracForcingOutAB = 1,
(PID.TID 0000.0001) > &end
(PID.TID 0000.0001) >
(PID.TID 0000.0001) ># Gridding parameters
(PID.TID 0000.0001) > &PARM04
(PID.TID 0000.0001) > usingCurvilinearGrid=.TRUE.,
(PID.TID 0000.0001) > horizGridFile='grid_cs32',
(PID.TID 0000.0001) > delR= 50., 70., 100., 140., 190.,
(PID.TID 0000.0001) >       240., 290., 340., 390., 440.,
(PID.TID 0000.0001) >       490., 540., 590., 640., 690.,
(PID.TID 0000.0001) > &end
(PID.TID 0000.0001) >
(PID.TID 0000.0001) ># Input datasets
(PID.TID 0000.0001) > &PARM05
(PID.TID 0000.0001) > bathyFile      ='bathy_Hmin50.bin',
(PID.TID 0000.0001) > &end
(PID.TID 0000.0001) 
(PID.TID 0000.0001)  INI_PARMS ; starts to read PARM01
(PID.TID 0000.0001)  INI_PARMS ; read PARM01 : OK
(PID.TID 0000.0001)  INI_PARMS ; starts to read PARM02
(PID.TID 0000.0001)  INI_PARMS ; read PARM02 : OK
(PID.TID 0000.0001)  INI_PARMS ; starts to read PARM03
(PID.TID 0000.0001)  INI_PARMS ; read PARM03 : OK
(PID.TID 0000.0001)  INI_PARMS ; starts to read PARM04
(PID.TID 0000.0001)  INI_PARMS ; read PARM04 : OK
(PID.TID 0000.0001)  INI_PARMS ; starts to read PARM05
(PID.TID 0000.0001)  INI_PARMS ; read PARM05 : OK
(PID.TID 0000.0001)  INI_PARMS: finished reading file "data"
(PID.TID 0000.0001)  PACKAGES_BOOT: opening data.pkg
(PID.TID 0000.0001)  OPEN_COPY_DATA_FILE: opening file data.pkg
(PID.TID 0000.0001) // =======================================================
(PID.TID 0000.0001) // Parameter file "data.pkg"
(PID.TID 0000.0001) // =======================================================
(PID.TID 0000.0001) ># Packages
(PID.TID 0000.0001) > &PACKAGES
(PID.TID 0000.0001) > useGMRedi=.TRUE.,
(PID.TID 0000.0001) > &end
(PID.TID 0000.0001) 
(PID.TID 0000.0001)  PACKAGES_BOOT: finished reading data.pkg
(PID.TID 0000.0001)  PACKAGES_BOOT: On/Off package Summary
 --------  pkgs with a standard "usePKG" On/Off switch in "data.pkg":  --------
 pkg/gmredi               compiled   and   used ( useGMRedi                = T )
 pkg/bulk_force           compiled but not used ( useBulkForce             = F )
 pkg/diagnostics          compiled but not used ( useDiagnostics           = F )
 -------- pkgs without standard "usePKG" On/Off switch in "data.pkg":  --------
 pkg/generic_advdiff      compiled   and   used ( useGAD                   = T )
 pkg/mom_common           compiled   and   used ( momStepping              = T )
 pkg/mom_vecinv           compiled   and   used ( +vectorInvariantMomentum = T )
 pkg/mom_fluxform         compiled but not used ( & not vectorInvariantMom = F )
 pkg/monitor              compiled   and   used ( monitorFreq > 0.         = T )
 pkg/timeave              compiled but not used ( taveFreq > 0.            = F )
 pkg/debug                compiled but not used ( debugMode                = F )
 pkg/exch2                compiled   and   used
 pkg/rw                   compiled   and   used
 pkg/mdsio                compiled   and   used
(PID.TID 0000.0001)  PACKAGES_BOOT: End of package Summary
(PID.TID 0000.0001) 
(PID.TID 0000.0001)  GM_READPARMS: opening data.gmredi
(PID.TID 0000.0001)  OPEN_COPY_DATA_FILE: opening file data.gmredi
(PID.TID 0000.0001) // =======================================================
(PID.TID 0000.0001) // Parameter file "data.gmredi"
(PID.TID 0000.0001) // =======================================================
(PID.TID 0000.0001) ># GM+Redi package parameters:
(PID.TID 0000.0001) >
(PID.TID 0000.0001) >#-from MOM :
(PID.TID 0000.0001) ># GM_background_K: 	G & Mc.W  diffusion coefficient
(PID.TID 0000.0001) ># GM_maxSlope    :	max slope of isopycnals
(PID.TID 0000.0001) ># GM_Scrit       :	transition for scaling diffusion coefficient
(PID.TID 0000.0001) ># GM_Sd          :	half width scaling for diffusion coefficient
(PID.TID 0000.0001) ># GM_taper_scheme:	slope clipping or one of the tapering schemes
(PID.TID 0000.0001) ># GM_Kmin_horiz  :	horizontal diffusion minimum value
(PID.TID 0000.0001) >
(PID.TID 0000.0001) >#-Option parameters (needs to "define" options in GMREDI_OPTIONS.h")
(PID.TID 0000.0001) ># GM_isopycK     :	isopycnal diffusion coefficient (default=GM_background_K)
(PID.TID 0000.0001) ># GM_AdvForm     :	turn on GM Advective form       (default=Skew flux form)
(PID.TID 0000.0001) >
(PID.TID 0000.0001) > &GM_PARM01
(PID.TID 0000.0001) >  GM_background_K    = 800.,
(PID.TID 0000.0001) >  GM_taper_scheme    = 'gkw91',
(PID.TID 0000.0001) >  GM_maxSlope        = 1.e-2,
(PID.TID 0000.0001) >  GM_Kmin_horiz      = 50.,
(PID.TID 0000.0001) >  GM_Scrit           = 4.e-3,
(PID.TID 0000.0001) >  GM_Sd              = 1.e-3,
(PID.TID 0000.0001) ># GM_Visbeck_alpha   = 0.,
(PID.TID 0000.0001) ># GM_Visbeck_length  = 2.e+5,
(PID.TID 0000.0001) ># GM_Visbeck_depth   = 1.e+3,
(PID.TID 0000.0001) ># GM_Visbeck_maxval_K= 2.5e+3,
(PID.TID 0000.0001) > &end
(PID.TID 0000.0001) >
(PID.TID 0000.0001) >
(PID.TID 0000.0001) 
(PID.TID 0000.0001)  GM_READPARMS: finished reading data.gmredi
(PID.TID 0000.0001) SET_PARMS: done
(PID.TID 0000.0001) Enter INI_VERTICAL_GRID: setInterFDr=    T ; setCenterDr=    F
(PID.TID 0000.0001) tile:   1 ; Read from file grid_cs32.face001.bin
(PID.TID 0000.0001)   => xC yC dxF dyF rA xG yG dxV dyU rAz dxC dyC rAw rAs dxG dyG AngleCS AngleSN
(PID.TID 0000.0001) %MON XC_max                       =   1.7854351589505E+02
(PID.TID 0000.0001) %MON XC_min                       =  -1.7854351589505E+02
(PID.TID 0000.0001) %MON XC_mean                      =  -4.6999441375798E-15
(PID.TID 0000.0001) %MON XC_sd                        =   1.0355545336287E+02
(PID.TID 0000.0001) %MON XG_max                       =   1.8000000000000E+02
(PID.TID 0000.0001) %MON XG_min                       =  -1.7708797161002E+02
(PID.TID 0000.0001) %MON XG_mean                      =   1.8603515625000E+00
(PID.TID 0000.0001) %MON XG_sd                        =   1.0357130300504E+02
(PID.TID 0000.0001) %MON DXC_max                      =   3.2375185836900E+05
(PID.TID 0000.0001) %MON DXC_min                      =   1.1142031410131E+05
(PID.TID 0000.0001) %MON DXC_mean                     =   2.8605689051214E+05
(PID.TID 0000.0001) %MON DXC_sd                       =   3.4042087138252E+04
(PID.TID 0000.0001) %MON DXF_max                      =   3.2369947500827E+05
(PID.TID 0000.0001) %MON DXF_min                      =   1.2020820513318E+05
(PID.TID 0000.0001) %MON DXF_mean                     =   2.8605437324820E+05
(PID.TID 0000.0001) %MON DXF_sd                       =   3.4050524252539E+04
(PID.TID 0000.0001) %MON DXG_max                      =   3.2375195872773E+05
(PID.TID 0000.0001) %MON DXG_min                      =   1.0098378008791E+05
(PID.TID 0000.0001) %MON DXG_mean                     =   2.8603818508931E+05
(PID.TID 0000.0001) %MON DXG_sd                       =   3.4140406908005E+04
(PID.TID 0000.0001) %MON DXV_max                      =   3.2380418162750E+05
(PID.TID 0000.0001) %MON DXV_min                      =   8.0152299824136E+04
(PID.TID 0000.0001) %MON DXV_mean                     =   2.8603970633619E+05
(PID.TID 0000.0001) %MON DXV_sd                       =   3.4145142117723E+04
(PID.TID 0000.0001) %MON YC_max                       =   8.7940663871962E+01
(PID.TID 0000.0001) %MON YC_min                       =  -8.7940663871962E+01
(PID.TID 0000.0001) %MON YC_mean                      =   0.0000000000000E+00
(PID.TID 0000.0001) %MON YC_sd                        =   3.8676242969072E+01
(PID.TID 0000.0001) %MON YG_max                       =   9.0000000000000E+01
(PID.TID 0000.0001) %MON YG_min                       =  -9.0000000000000E+01
(PID.TID 0000.0001) %MON YG_mean                      =  -1.1842378929335E-15
(PID.TID 0000.0001) %MON YG_sd                        =   3.8676895860710E+01
(PID.TID 0000.0001) %MON DYC_max                      =   3.2375185836900E+05
(PID.TID 0000.0001) %MON DYC_min                      =   1.1142031410131E+05
(PID.TID 0000.0001) %MON DYC_mean                     =   2.8605689051214E+05
(PID.TID 0000.0001) %MON DYC_sd                       =   3.4042087138252E+04
(PID.TID 0000.0001) %MON DYF_max                      =   3.2369947500827E+05
(PID.TID 0000.0001) %MON DYF_min                      =   1.2020820513318E+05
(PID.TID 0000.0001) %MON DYF_mean                     =   2.8605437324820E+05
(PID.TID 0000.0001) %MON DYF_sd                       =   3.4050524252539E+04
(PID.TID 0000.0001) %MON DYG_max                      =   3.2375195872773E+05
(PID.TID 0000.0001) %MON DYG_min                      =   1.0098378008791E+05
(PID.TID 0000.0001) %MON DYG_mean                     =   2.8603818508931E+05
(PID.TID 0000.0001) %MON DYG_sd                       =   3.4140406908005E+04
(PID.TID 0000.0001) %MON DYU_max                      =   3.2380418162750E+05
(PID.TID 0000.0001) %MON DYU_min                      =   8.0152299824136E+04
(PID.TID 0000.0001) %MON DYU_mean                     =   2.8603970633619E+05
(PID.TID 0000.0001) %MON DYU_sd                       =   3.4145142117723E+04
(PID.TID 0000.0001) %MON RA_max                       =   1.0479260248419E+11
(PID.TID 0000.0001) %MON RA_min                       =   1.4019007022556E+10
(PID.TID 0000.0001) %MON RA_mean                      =   8.2992246709265E+10
(PID.TID 0000.0001) %MON RA_sd                        =   1.7509089299457E+10
(PID.TID 0000.0001) %MON RAW_max                      =   1.0480965274559E+11
(PID.TID 0000.0001) %MON RAW_min                      =   1.2166903467143E+10
(PID.TID 0000.0001) %MON RAW_mean                     =   8.2992246709235E+10
(PID.TID 0000.0001) %MON RAW_sd                       =   1.7481917919656E+10
(PID.TID 0000.0001) %MON RAS_max                      =   1.0480965274559E+11
(PID.TID 0000.0001) %MON RAS_min                      =   1.2166903467143E+10
(PID.TID 0000.0001) %MON RAS_mean                     =   8.2992246709235E+10
(PID.TID 0000.0001) %MON RAS_sd                       =   1.7481917919656E+10
(PID.TID 0000.0001) %MON RAZ_max                      =   1.0484349334619E+11
(PID.TID 0000.0001) %MON RAZ_min                      =   8.8317900612505E+09
(PID.TID 0000.0001) %MON RAZ_mean                     =   8.2992246709235E+10
(PID.TID 0000.0001) %MON RAZ_sd                       =   1.7482297311044E+10
(PID.TID 0000.0001) %MON AngleCS_max                  =   9.9999994756719E-01
(PID.TID 0000.0001) %MON AngleCS_min                  =  -9.9968286884824E-01
(PID.TID 0000.0001) %MON AngleCS_mean                 =   3.3078922539000E-01
(PID.TID 0000.0001) %MON AngleCS_sd                   =   6.2496278958502E-01
(PID.TID 0000.0001) %MON AngleSN_max                  =   9.9968286884824E-01
(PID.TID 0000.0001) %MON AngleSN_min                  =  -9.9999994756719E-01
(PID.TID 0000.0001) %MON AngleSN_mean                 =  -3.3078922539000E-01
(PID.TID 0000.0001) %MON AngleSN_sd                   =   6.2496278958502E-01
(PID.TID 0000.0001)  MDS_READ_FIELD: opening global file: bathy_Hmin50.bin
(PID.TID 0000.0001) // =======================================================
(PID.TID 0000.0001) // Field Model R_low (ini_masks_etc)
(PID.TID 0000.0001) // CMIN =         -5.200000000000000E+03
(PID.TID 0000.0001) // CMAX =         -5.000000000000000E+01
(PID.TID 0000.0001) // CINT =          1.907407407407407E+02
(PID.TID 0000.0001) // SYMBOLS (CMIN->CMAX): -abcdefghijklmnopqrstuvwxyz+
(PID.TID 0000.0001) //                  0.0: .
(PID.TID 0000.0001) // RANGE I (Lo:Hi:Step):(    -3:    36:     1)
(PID.TID 0000.0001) // RANGE J (Lo:Hi:Step):(    36:    -3:    -1)
(PID.TID 0000.0001) // RANGE K (Lo:Hi:Step):(   1:   1:   1)
(PID.TID 0000.0001) // =======================================================
(PID.TID 0000.0001) K =   1
(PID.TID 0000.0001) //                I=6       I=16      I=26      I=36
(PID.TID 0000.0001) // |--J--|321012345|789012345|789012345|789012345|
(PID.TID 0000.0001) //     36 cbbc-ddcbcdehkhhmn..++..................
(PID.TID 0000.0001) //     35 dcac--cbbeefjkfefw+..........zpu........
(PID.TID 0000.0001) //     34 d--ba-abcehjnldcclz+........spps........
(PID.TID 0000.0001) //     33 --abbbccceiomkfdbbc+.......+s...........
(PID.TID 0000.0001) //     32 --bddefhhkqqlgfaakqz..v.+..+............
(PID.TID 0000.0001) //     31 abbcffijnpnqneaaat..umrr+s.z............
(PID.TID 0000.0001) //     30 --adgillkkkifcadcx.ymmqzqikvnnps........
(PID.TID 0000.0001) //     29 --cfiljigfjd--efdozy...+ximpnnuz........
(PID.TID 0000.0001) //     28 -abgkhfcccea-bdei........t..............
(PID.TID 0000.0001) //     27 -acghfbaaaa-achmy......................+
(PID.TID 0000.0001) //     26 -adhfca-----bfiv.......................+
(PID.TID 0000.0001) //     25 -achfa------ch+..................w......
(PID.TID 0000.0001) //     24 aaeifa--acbcei...................w......
(PID.TID 0000.0001) //     23 abfida-aabchjk...................zz.....
(PID.TID 0000.0001) //     22 -afhfaa---bfgi....................zz..rn
(PID.TID 0000.0001) //     21 babcgca----abe.....................ysstl
(PID.TID 0000.0001) //     20 fbbbcgfcaa-aae+.......................lc
(PID.TID 0000.0001) //     19 zmfeccdghfeegcbt......................aa
(PID.TID 0000.0001) //     18 ..wifedfkhfegbbcivlqfoz..............jaa
(PID.TID 0000.0001) //     17 ..+wfeefikhgcbbccaaacgn.............icaa
(PID.TID 0000.0001) //     16 ....wiheddeccdfhfbabdfl............jdbad
(PID.TID 0000.0001) //     15 ......ylea--acfihebcbbes..........sfcbbn
(PID.TID 0000.0001) //     14 ........c---acgkhdcc--di..........ofddch
(PID.TID 0000.0001) //     13 .......+b----cfkhec---afz.........nhfdff
(PID.TID 0000.0001) //     12 .......ec----chjhec---ag..........skiqdd
(PID.TID 0000.0001) //     11 ......pdca--achlheba--ai..........nkn.fd
(PID.TID 0000.0001) //     10 ......wfdb--achlhea---an.........uos..dc
(PID.TID 0000.0001) //      9 ......vgec---bfikca--cjl+.......+nnv.+cc
(PID.TID 0000.0001) //      8 .....zleca---afjfca--hdfz.......vkky.jce
(PID.TID 0000.0001) //      7 ...+zohec--abcfkhecbchbdx.......qiht.faa
(PID.TID 0000.0001) //      6 ..+yomfddcaabefkifdchaadt......uqdeisc--
(PID.TID 0000.0001) //      5 ..+nhgffkghccfhkhffgdaackz....uoibcimlaa
(PID.TID 0000.0001) //      4 .+ujhgfllfhdffhkfffca-aady...llnabdopfcb
(PID.TID 0000.0001) //      3 +vjggfcceeffffjlkjgaa---bfvheeln-aesphfd
(PID.TID 0000.0001) //      2 qifeecbbccddefilihecbaacbaajfega-aesqhff
(PID.TID 0000.0001) //      1 ebbbbaaaaaccdfhlhfefdcccaabjefbaaafonhgl
(PID.TID 0000.0001) //      0 -aaaaaaa-aacccfikkhecccbbbaaabaadfkllilm
(PID.TID 0000.0001) //     -1 --aaaaa----aacffiljgfffcca--adfikkiikimi
(PID.TID 0000.0001) //     -2 --aaa-------acdefinmlgiieb-chnnnmlmlfklk
(PID.TID 0000.0001) //     -3 a--a---aa---aedeegknmlgiigcdfhpokkimdkmk
(PID.TID 0000.0001) // =======================================================
(PID.TID 0000.0001) // END OF FIELD                                          =
(PID.TID 0000.0001) // =======================================================
(PID.TID 0000.0001) 
(PID.TID 0000.0001) // =======================================================
(PID.TID 0000.0001) // Field Model Ro_surf (ini_masks_etc)
(PID.TID 0000.0001) // CMIN =          1.000000000000000E+32
(PID.TID 0000.0001) // CMAX =         -1.000000000000000E+32
(PID.TID 0000.0001) // CINT =          0.000000000000000E+00
(PID.TID 0000.0001) // SYMBOLS (CMIN->CMAX): -abcdefghijklmnopqrstuvwxyz+
(PID.TID 0000.0001) //                  0.0: .
(PID.TID 0000.0001) // RANGE I (Lo:Hi:Step):(    -3:    36:     1)
(PID.TID 0000.0001) // RANGE J (Lo:Hi:Step):(    36:    -3:    -1)
(PID.TID 0000.0001) // RANGE K (Lo:Hi:Step):(   1:   1:   1)
(PID.TID 0000.0001) // =======================================================
(PID.TID 0000.0001) // =======================================================
(PID.TID 0000.0001) // END OF FIELD                                          =
(PID.TID 0000.0001) // =======================================================
(PID.TID 0000.0001) 
(PID.TID 0000.0001) // =======================================================
(PID.TID 0000.0001) // Field hFacC at iteration          0
(PID.TID 0000.0001) // CMIN =          1.000000000000000E+00
(PID.TID 0000.0001) // CMAX =          1.000000000000000E+00
(PID.TID 0000.0001) // CINT =          0.000000000000000E+00
(PID.TID 0000.0001) // SYMBOLS (CMIN->CMAX): -abcdefghijklmnopqrstuvwxyz+
(PID.TID 0000.0001) //                  0.0: .
(PID.TID 0000.0001) // RANGE I (Lo:Hi:Step):(    -3:    36:     1)
(PID.TID 0000.0001) // RANGE J (Lo:Hi:Step):(    36:    -3:    -1)
(PID.TID 0000.0001) // RANGE K (Lo:Hi:Step):(   1:   1:   1)
(PID.TID 0000.0001) // =======================================================
(PID.TID 0000.0001) // =======================================================
(PID.TID 0000.0001) // END OF FIELD                                          =
(PID.TID 0000.0001) // =======================================================
(PID.TID 0000.0001) 
(PID.TID 0000.0001) // =======================================================
(PID.TID 0000.0001) // Field hFacW at iteration          0
(PID.TID 0000.0001) // CMIN =          1.000000000000000E+00
(PID.TID 0000.0001) // CMAX =          1.000000000000000E+00
(PID.TID 0000.0001) // CINT =          0.000000000000000E+00
(PID.TID 0000.0001) // SYMBOLS (CMIN->CMAX): -abcdefghijklmnopqrstuvwxyz+
(PID.TID 0000.0001) //                  0.0: .
(PID.TID 0000.0001) // RANGE I (Lo:Hi:Step):(    -3:    36:     1)
(PID.TID 0000.0001) // RANGE J (Lo:Hi:Step):(    36:    -3:    -1)
(PID.TID 0000.0001) // RANGE K (Lo:Hi:Step):(   1:   1:   1)
(PID.TID 0000.0001) // =======================================================
(PID.TID 0000.0001) // =======================================================
(PID.TID 0000.0001) // END OF FIELD                                          =
(PID.TID 0000.0001) // =======================================================
(PID.TID 0000.0001) 
(PID.TID 0000.0001) // =======================================================
(PID.TID 0000.0001) // Field hFacS at iteration          0
(PID.TID 0000.0001) // CMIN =          1.000000000000000E+00
(PID.TID 0000.0001) // CMAX =          1.000000000000000E+00
(PID.TID 0000.0001) // CINT =          0.000000000000000E+00
(PID.TID 0000.0001) // SYMBOLS (CMIN->CMAX): -abcdefghijklmnopqrstuvwxyz+
(PID.TID 0000.0001) //                  0.0: .
(PID.TID 0000.0001) // RANGE I (Lo:Hi:Step):(    -3:    36:     1)
(PID.TID 0000.0001) // RANGE J (Lo:Hi:Step):(    36:    -3:    -1)
(PID.TID 0000.0001) // RANGE K (Lo:Hi:Step):(   1:   1:   1)
(PID.TID 0000.0001) // =======================================================
(PID.TID 0000.0001) // =======================================================
(PID.TID 0000.0001) // END OF FIELD                                          =
(PID.TID 0000.0001) // =======================================================
(PID.TID 0000.0001) 
(PID.TID 0000.0001) GAD_INIT_FIXED: GAD_OlMinSize=  1  0  1
(PID.TID 0000.0001) 
(PID.TID 0000.0001) // ===================================
(PID.TID 0000.0001) // GAD parameters :
(PID.TID 0000.0001) // ===================================
(PID.TID 0000.0001) tempAdvScheme =   /* Temp. Horiz.Advection scheme selector */
(PID.TID 0000.0001)                       2
(PID.TID 0000.0001)     ;
(PID.TID 0000.0001) tempVertAdvScheme =   /* Temp. Vert. Advection scheme selector */
(PID.TID 0000.0001)                       2
(PID.TID 0000.0001)     ;
(PID.TID 0000.0001) tempMultiDimAdvec =   /* use Muti-Dim Advec method for Temp */
(PID.TID 0000.0001)                   F
(PID.TID 0000.0001)     ;
(PID.TID 0000.0001) tempSOM_Advection = /* use 2nd Order Moment Advection for Temp */
(PID.TID 0000.0001)                   F
(PID.TID 0000.0001)     ;
(PID.TID 0000.0001) AdamsBashforthGt = /* apply Adams-Bashforth extrapolation on Gt */
(PID.TID 0000.0001)                   T
(PID.TID 0000.0001)     ;
(PID.TID 0000.0001) AdamsBashforth_T = /* apply Adams-Bashforth extrapolation on Temp */
(PID.TID 0000.0001)                   F
(PID.TID 0000.0001)     ;
(PID.TID 0000.0001) saltAdvScheme =   /* Salt. Horiz.advection scheme selector */
(PID.TID 0000.0001)                       2
(PID.TID 0000.0001)     ;
(PID.TID 0000.0001) saltVertAdvScheme =   /* Salt. Vert. Advection scheme selector */
(PID.TID 0000.0001)                       2
(PID.TID 0000.0001)     ;
(PID.TID 0000.0001) saltMultiDimAdvec =   /* use Muti-Dim Advec method for Salt */
(PID.TID 0000.0001)                   F
(PID.TID 0000.0001)     ;
(PID.TID 0000.0001) saltSOM_Advection = /* use 2nd Order Moment Advection for Salt */
(PID.TID 0000.0001)                   F
(PID.TID 0000.0001)     ;
(PID.TID 0000.0001) AdamsBashforthGs = /* apply Adams-Bashforth extrapolation on Gs */
(PID.TID 0000.0001)                   T
(PID.TID 0000.0001)     ;
(PID.TID 0000.0001) AdamsBashforth_S = /* apply Adams-Bashforth extrapolation on Salt */
(PID.TID 0000.0001)                   F
(PID.TID 0000.0001)     ;
(PID.TID 0000.0001) // ===================================
(PID.TID 0000.0001) INI_GLOBAL_DOMAIN: Found  19 CS-corner Pts in the domain
(PID.TID 0000.0001) %MON fCori_max                    =   1.4574827780704E-04
(PID.TID 0000.0001) %MON fCori_min                    =  -1.4574827780704E-04
(PID.TID 0000.0001) %MON fCori_mean                   =   0.0000000000000E+00
(PID.TID 0000.0001) %MON fCori_sd                     =   8.4202189509968E-05
(PID.TID 0000.0001) %MON fCoriG_max                   =   1.4584247033981E-04
(PID.TID 0000.0001) %MON fCoriG_min                   =  -1.4584247033981E-04
(PID.TID 0000.0001) %MON fCoriG_mean                  =   2.2587545260115E-21
(PID.TID 0000.0001) %MON fCoriG_sd                    =   8.4202189509968E-05
(PID.TID 0000.0001) %MON fCoriCos_max                 =   1.4580166994612E-04
(PID.TID 0000.0001) %MON fCoriCos_min                 =   5.2407700865903E-06
(PID.TID 0000.0001) %MON fCoriCos_mean                =   1.1514045869113E-04
(PID.TID 0000.0001) %MON fCoriCos_sd                  =   3.0375849106513E-05
(PID.TID 0000.0001) INI_CG2D: CG2D normalisation factor =  1.9156564154949553E-04
(PID.TID 0000.0001) 
(PID.TID 0000.0001) // =======================================================
(PID.TID 0000.0001) // Model configuration
(PID.TID 0000.0001) // =======================================================
(PID.TID 0000.0001) //
(PID.TID 0000.0001) // "Physical" paramters ( PARM01 in namelist )
(PID.TID 0000.0001) //
(PID.TID 0000.0001) buoyancyRelation = /* Type of relation to get Buoyancy */
(PID.TID 0000.0001)               'OCEANIC'
(PID.TID 0000.0001)     ;
(PID.TID 0000.0001) fluidIsAir   =  /* fluid major constituent is Air */
(PID.TID 0000.0001)                   F
(PID.TID 0000.0001)     ;
(PID.TID 0000.0001) fluidIsWater =  /* fluid major constituent is Water */
(PID.TID 0000.0001)                   T
(PID.TID 0000.0001)     ;
(PID.TID 0000.0001) usingPCoords =  /* use p (or p*) vertical coordinate */
(PID.TID 0000.0001)                   F
(PID.TID 0000.0001)     ;
(PID.TID 0000.0001) usingZCoords =  /* use z (or z*) vertical coordinate */
(PID.TID 0000.0001)                   T
(PID.TID 0000.0001)     ;
(PID.TID 0000.0001) tRef =   /* Reference temperature profile ( oC or K ) */
(PID.TID 0000.0001)    15 @  2.000000000000000E+01              /* K =  1: 15 */
(PID.TID 0000.0001)     ;
(PID.TID 0000.0001) sRef =   /* Reference salinity profile ( psu ) */
(PID.TID 0000.0001)    15 @  3.500000000000000E+01              /* K =  1: 15 */
(PID.TID 0000.0001)     ;
(PID.TID 0000.0001) useStrainTensionVisc= /* Use StrainTension Form of Viscous Operator */
(PID.TID 0000.0001)                   F
(PID.TID 0000.0001)     ;
(PID.TID 0000.0001) useVariableVisc = /* Use variable horizontal viscosity */
(PID.TID 0000.0001)                   F
(PID.TID 0000.0001)     ;
(PID.TID 0000.0001) useHarmonicVisc = /* Use harmonic horizontal viscosity */
(PID.TID 0000.0001)                   T
(PID.TID 0000.0001)     ;
(PID.TID 0000.0001) useBiharmonicVisc= /* Use biharmonic horiz.  viscosity */
(PID.TID 0000.0001)                   F
(PID.TID 0000.0001)     ;
(PID.TID 0000.0001) useSmag3D = /* Use isotropic 3-D Smagorinsky viscosity */
(PID.TID 0000.0001)                   F
(PID.TID 0000.0001)     ;
(PID.TID 0000.0001) viscAh  =   /* Lateral harmonic viscosity ( m^2/s ) */
(PID.TID 0000.0001)                 3.000000000000000E+05
(PID.TID 0000.0001)     ;
(PID.TID 0000.0001) viscA4  =   /* Lateral biharmonic viscosity ( m^4/s ) */
(PID.TID 0000.0001)                 0.000000000000000E+00
(PID.TID 0000.0001)     ;
(PID.TID 0000.0001) no_slip_sides =  /* Viscous BCs: No-slip sides */
(PID.TID 0000.0001)                   T
(PID.TID 0000.0001)     ;
(PID.TID 0000.0001) sideDragFactor = /* side-drag scaling factor (non-dim) */
(PID.TID 0000.0001)                 2.000000000000000E+00
(PID.TID 0000.0001)     ;
(PID.TID 0000.0001) viscArNr = /* vertical profile of vertical viscosity ( m^2/s )*/
(PID.TID 0000.0001)    15 @  1.000000000000000E-03              /* K =  1: 15 */
(PID.TID 0000.0001)     ;
(PID.TID 0000.0001) no_slip_bottom =  /* Viscous BCs: No-slip bottom */
(PID.TID 0000.0001)                   T
(PID.TID 0000.0001)     ;
(PID.TID 0000.0001) bottomVisc_pCell = /* Partial-cell in bottom Visc. BC */
(PID.TID 0000.0001)                   F
(PID.TID 0000.0001)     ;
(PID.TID 0000.0001) bottomDragLinear = /* linear bottom-drag coefficient ( m/s ) */
(PID.TID 0000.0001)                 0.000000000000000E+00
(PID.TID 0000.0001)     ;
(PID.TID 0000.0001) bottomDragQuadratic = /* quadratic bottom-drag coefficient (-) */
(PID.TID 0000.0001)                 0.000000000000000E+00
(PID.TID 0000.0001)     ;
(PID.TID 0000.0001) selectBotDragQuadr = /* select quadratic bottom drag options */
(PID.TID 0000.0001)                      -1
(PID.TID 0000.0001)     ;
(PID.TID 0000.0001) diffKhT =   /* Laplacian diffusion of heat laterally ( m^2/s ) */
(PID.TID 0000.0001)                 0.000000000000000E+00
(PID.TID 0000.0001)     ;
(PID.TID 0000.0001) diffK4T =   /* Biharmonic diffusion of heat laterally ( m^4/s ) */
(PID.TID 0000.0001)                 0.000000000000000E+00
(PID.TID 0000.0001)     ;
(PID.TID 0000.0001) diffKhS =   /* Laplacian diffusion of salt laterally ( m^2/s ) */
(PID.TID 0000.0001)                 0.000000000000000E+00
(PID.TID 0000.0001)     ;
(PID.TID 0000.0001) diffK4S =   /* Biharmonic diffusion of salt laterally ( m^4/s ) */
(PID.TID 0000.0001)                 0.000000000000000E+00
(PID.TID 0000.0001)     ;
(PID.TID 0000.0001) diffKrNrT = /* vertical profile of vertical diffusion of Temp ( m^2/s )*/
(PID.TID 0000.0001)    15 @  3.000000000000000E-05              /* K =  1: 15 */
(PID.TID 0000.0001)     ;
(PID.TID 0000.0001) diffKrNrS = /* vertical profile of vertical diffusion of Salt ( m^2/s )*/
(PID.TID 0000.0001)    15 @  3.000000000000000E-05              /* K =  1: 15 */
(PID.TID 0000.0001)     ;
(PID.TID 0000.0001) diffKrBL79surf = /* Surface diffusion for Bryan and Lewis 79 ( m^2/s ) */
(PID.TID 0000.0001)                 0.000000000000000E+00
(PID.TID 0000.0001)     ;
(PID.TID 0000.0001) diffKrBL79deep = /* Deep diffusion for Bryan and Lewis 1979 ( m^2/s ) */
(PID.TID 0000.0001)                 0.000000000000000E+00
(PID.TID 0000.0001)     ;
(PID.TID 0000.0001) diffKrBL79scl = /* Depth scale for Bryan and Lewis 1979 ( m ) */
(PID.TID 0000.0001)                 2.000000000000000E+02
(PID.TID 0000.0001)     ;
(PID.TID 0000.0001) diffKrBL79Ho = /* Turning depth for Bryan and Lewis 1979 ( m ) */
(PID.TID 0000.0001)                -2.000000000000000E+03
(PID.TID 0000.0001)     ;
(PID.TID 0000.0001) ivdc_kappa = /* Implicit Vertical Diffusivity for Convection ( m^2/s) */
(PID.TID 0000.0001)                 1.000000000000000E+01
(PID.TID 0000.0001)     ;
(PID.TID 0000.0001) hMixCriteria=  /* Criteria for mixed-layer diagnostic */
(PID.TID 0000.0001)                -8.000000000000000E-01
(PID.TID 0000.0001)     ;
(PID.TID 0000.0001) dRhoSmall =  /* Parameter for mixed-layer diagnostic */
(PID.TID 0000.0001)                 1.000000000000000E-06
(PID.TID 0000.0001)     ;
(PID.TID 0000.0001) hMixSmooth=  /* Smoothing parameter for mixed-layer diagnostic */
(PID.TID 0000.0001)                 0.000000000000000E+00
(PID.TID 0000.0001)     ;
(PID.TID 0000.0001) eosType =  /* Type of Equation of State */
(PID.TID 0000.0001)               'JMD95Z'
(PID.TID 0000.0001)     ;
(PID.TID 0000.0001) selectP_inEOS_Zc = /* select pressure to use in EOS (0,1,2,3) */
(PID.TID 0000.0001)                       0
(PID.TID 0000.0001)     0= -g*rhoConst*z ; 1= pRef (from tRef,sRef); 2= Hyd P ; 3= Hyd+NH P
(PID.TID 0000.0001)     ;
(PID.TID 0000.0001) HeatCapacity_Cp =  /* Specific heat capacity ( J/kg/K ) */
(PID.TID 0000.0001)                 3.994000000000000E+03
(PID.TID 0000.0001)     ;
(PID.TID 0000.0001) celsius2K = /* 0 degree Celsius converted to Kelvin ( K ) */
(PID.TID 0000.0001)                 2.731500000000000E+02
(PID.TID 0000.0001)     ;
(PID.TID 0000.0001) rhoConst  = /* Reference density (Boussinesq)  ( kg/m^3 ) */
(PID.TID 0000.0001)                 1.035000000000000E+03
(PID.TID 0000.0001)     ;
(PID.TID 0000.0001) rhoFacC = /* normalized Reference density @ cell-Center (-) */
(PID.TID 0000.0001)    15 @  1.000000000000000E+00              /* K =  1: 15 */
(PID.TID 0000.0001)     ;
(PID.TID 0000.0001) rhoFacF = /* normalized Reference density @ W-Interface (-) */
(PID.TID 0000.0001)    16 @  1.000000000000000E+00              /* K =  1: 16 */
(PID.TID 0000.0001)     ;
(PID.TID 0000.0001) rhoConstFresh = /* Fresh-water reference density ( kg/m^3 ) */
(PID.TID 0000.0001)                 1.000000000000000E+03
(PID.TID 0000.0001)     ;
(PID.TID 0000.0001) gravity =   /* Gravitational acceleration ( m/s^2 ) */
(PID.TID 0000.0001)                 9.810000000000000E+00
(PID.TID 0000.0001)     ;
(PID.TID 0000.0001) gBaro =   /* Barotropic gravity ( m/s^2 ) */
(PID.TID 0000.0001)                 9.810000000000000E+00
(PID.TID 0000.0001)     ;
(PID.TID 0000.0001) gravFacC = /* gravity factor (vs surf.) @ cell-Center (-) */
(PID.TID 0000.0001)    15 @  1.000000000000000E+00              /* K =  1: 15 */
(PID.TID 0000.0001)     ;
(PID.TID 0000.0001) gravFacF = /* gravity factor (vs surf.) @ W-Interface (-) */
(PID.TID 0000.0001)    16 @  1.000000000000000E+00              /* K =  1: 16 */
(PID.TID 0000.0001)     ;
(PID.TID 0000.0001) rotationPeriod =   /* Rotation Period ( s ) */
(PID.TID 0000.0001)                 8.616400000000000E+04
(PID.TID 0000.0001)     ;
(PID.TID 0000.0001) omega =   /* Angular velocity ( rad/s ) */
(PID.TID 0000.0001)                 7.292123516990375E-05
(PID.TID 0000.0001)     ;
(PID.TID 0000.0001) f0 =   /* Reference coriolis parameter ( 1/s ) */
(PID.TID 0000.0001)                 1.000000000000000E-04
(PID.TID 0000.0001)     ;
(PID.TID 0000.0001) beta =   /* Beta ( 1/(m.s) ) */
(PID.TID 0000.0001)                 9.999999999999999E-12
(PID.TID 0000.0001)     ;
(PID.TID 0000.0001) fPrime =   /* Second coriolis parameter ( 1/s ) */
(PID.TID 0000.0001)                 0.000000000000000E+00
(PID.TID 0000.0001)     ;
(PID.TID 0000.0001) rigidLid =   /* Rigid lid on/off flag */
(PID.TID 0000.0001)                   F
(PID.TID 0000.0001)     ;
(PID.TID 0000.0001) implicitFreeSurface =   /* Implicit free surface on/off flag */
(PID.TID 0000.0001)                   T
(PID.TID 0000.0001)     ;
(PID.TID 0000.0001) freeSurfFac =   /* Implicit free surface factor */
(PID.TID 0000.0001)                 1.000000000000000E+00
(PID.TID 0000.0001)     ;
(PID.TID 0000.0001) implicSurfPress =  /* Surface Pressure implicit factor (0-1)*/
(PID.TID 0000.0001)                 1.000000000000000E+00
(PID.TID 0000.0001)     ;
(PID.TID 0000.0001) implicDiv2DFlow =  /* Barot. Flow Div. implicit factor (0-1)*/
(PID.TID 0000.0001)                 1.000000000000000E+00
(PID.TID 0000.0001)     ;
(PID.TID 0000.0001) uniformLin_PhiSurf = /* use uniform Bo_surf on/off flag*/
(PID.TID 0000.0001)                   T
(PID.TID 0000.0001)     ;
(PID.TID 0000.0001) uniformFreeSurfLev = /* free-surface level-index is uniform */
(PID.TID 0000.0001)                   T
(PID.TID 0000.0001)     ;
(PID.TID 0000.0001) hFacMin =   /* minimum partial cell factor (hFac) */
(PID.TID 0000.0001)                 1.000000000000000E-01
(PID.TID 0000.0001)     ;
(PID.TID 0000.0001) hFacMinDr = /* minimum partial cell thickness ( m) */
(PID.TID 0000.0001)                 2.000000000000000E+01
(PID.TID 0000.0001)     ;
(PID.TID 0000.0001) exactConserv =  /* Exact Volume Conservation on/off flag*/
(PID.TID 0000.0001)                   T
(PID.TID 0000.0001)     ;
(PID.TID 0000.0001) linFSConserveTr = /* Tracer correction for Lin Free Surface on/off flag*/
(PID.TID 0000.0001)                   F
(PID.TID 0000.0001)     ;
(PID.TID 0000.0001) nonlinFreeSurf = /* Non-linear Free Surf. options (-1,0,1,2,3)*/
(PID.TID 0000.0001)                       4
(PID.TID 0000.0001)      -1,0= Off ; 1,2,3= On, 2=+rescale gU,gV, 3=+update cg2d solv.
(PID.TID 0000.0001)     ;
(PID.TID 0000.0001) hFacInf =   /* lower threshold for hFac (nonlinFreeSurf only)*/
(PID.TID 0000.0001)                 2.000000000000000E-01
(PID.TID 0000.0001)     ;
(PID.TID 0000.0001) hFacSup =   /* upper threshold for hFac (nonlinFreeSurf only)*/
(PID.TID 0000.0001)                 2.000000000000000E+00
(PID.TID 0000.0001)     ;
(PID.TID 0000.0001) select_rStar = /* r* Vertical coord. options (=0 r coord.; >0 uses r*)*/
(PID.TID 0000.0001)                       2
(PID.TID 0000.0001)     ;
(PID.TID 0000.0001) useRealFreshWaterFlux = /* Real Fresh Water Flux on/off flag*/
(PID.TID 0000.0001)                   T
(PID.TID 0000.0001)     ;
(PID.TID 0000.0001) temp_EvPrRn = /* Temp. of Evap/Prec/R (UNSET=use local T)(oC)*/
(PID.TID 0000.0001)                 1.234567000000000E+05
(PID.TID 0000.0001)     ;
(PID.TID 0000.0001) salt_EvPrRn = /* Salin. of Evap/Prec/R (UNSET=use local S)(psu)*/
(PID.TID 0000.0001)                 0.000000000000000E+00
(PID.TID 0000.0001)     ;
(PID.TID 0000.0001) selectAddFluid = /* option for mass source/sink of fluid (=0: off) */
(PID.TID 0000.0001)                       0
(PID.TID 0000.0001)     ;
(PID.TID 0000.0001) temp_addMass = /* Temp. of addMass array (UNSET=use local T)(oC)*/
(PID.TID 0000.0001)                 1.234567000000000E+05
(PID.TID 0000.0001)     ;
(PID.TID 0000.0001) salt_addMass = /* Salin. of addMass array (UNSET=use local S)(psu)*/
(PID.TID 0000.0001)                 0.000000000000000E+00
(PID.TID 0000.0001)     ;
(PID.TID 0000.0001) use3Dsolver = /* use 3-D pressure solver on/off flag */
(PID.TID 0000.0001)                   F
(PID.TID 0000.0001)     ;
(PID.TID 0000.0001) nonHydrostatic =  /* Non-Hydrostatic on/off flag */
(PID.TID 0000.0001)                   F
(PID.TID 0000.0001)     ;
(PID.TID 0000.0001) nh_Am2 = /* Non-Hydrostatic terms scaling factor */
(PID.TID 0000.0001)                 1.000000000000000E+00
(PID.TID 0000.0001)     ;
(PID.TID 0000.0001) implicitNHPress = /* Non-Hyd Pressure implicit factor (0-1)*/
(PID.TID 0000.0001)                 1.000000000000000E+00
(PID.TID 0000.0001)     ;
(PID.TID 0000.0001) selectNHfreeSurf = /* Non-Hyd (free-)Surface option */
(PID.TID 0000.0001)                       0
(PID.TID 0000.0001)     ;
(PID.TID 0000.0001) quasiHydrostatic = /* Quasi-Hydrostatic on/off flag */
(PID.TID 0000.0001)                   F
(PID.TID 0000.0001)     ;
(PID.TID 0000.0001) calc_wVelocity = /* vertical velocity calculation on/off flag */
(PID.TID 0000.0001)                   T
(PID.TID 0000.0001)     ;
(PID.TID 0000.0001) momStepping =  /* Momentum equation on/off flag */
(PID.TID 0000.0001)                   T
(PID.TID 0000.0001)     ;
(PID.TID 0000.0001) vectorInvariantMomentum= /* Vector-Invariant Momentum on/off */
(PID.TID 0000.0001)                   T
(PID.TID 0000.0001)     ;
(PID.TID 0000.0001) momAdvection =  /* Momentum advection on/off flag */
(PID.TID 0000.0001)                   T
(PID.TID 0000.0001)     ;
(PID.TID 0000.0001) momViscosity =  /* Momentum viscosity on/off flag */
(PID.TID 0000.0001)                   T
(PID.TID 0000.0001)     ;
(PID.TID 0000.0001) momImplVertAdv= /* Momentum implicit vert. advection on/off*/
(PID.TID 0000.0001)                   F
(PID.TID 0000.0001)     ;
(PID.TID 0000.0001) implicitViscosity = /* Implicit viscosity on/off flag */
(PID.TID 0000.0001)                   F
(PID.TID 0000.0001)     ;
(PID.TID 0000.0001) selectImplicitDrag= /* Implicit bot Drag options (0,1,2)*/
(PID.TID 0000.0001)                       0
(PID.TID 0000.0001)     0= Expl. ; 1= Impl. on provis. Vel ; 2= Fully Impl (with surf.P)
(PID.TID 0000.0001)     ;
(PID.TID 0000.0001) metricTerms =  /* metric-Terms on/off flag */
(PID.TID 0000.0001)                   F
(PID.TID 0000.0001)     ;
(PID.TID 0000.0001) useNHMTerms = /* Non-Hydrostatic Metric-Terms on/off */
(PID.TID 0000.0001)                   F
(PID.TID 0000.0001)     ;
(PID.TID 0000.0001) selectCoriMap = /* Coriolis Map options (0,1,2,3)*/
(PID.TID 0000.0001)                       2
(PID.TID 0000.0001)     0= f-Plane ; 1= Beta-Plane ; 2= Spherical ; 3= read from file
(PID.TID 0000.0001)     ;
(PID.TID 0000.0001) use3dCoriolis = /* 3-D Coriolis on/off flag */
(PID.TID 0000.0001)                   F
(PID.TID 0000.0001)     ;
(PID.TID 0000.0001) useCoriolis =  /* Coriolis on/off flag */
(PID.TID 0000.0001)                   T
(PID.TID 0000.0001)     ;
(PID.TID 0000.0001) useCDscheme =  /* CD scheme on/off flag */
(PID.TID 0000.0001)                   F
(PID.TID 0000.0001)     ;
(PID.TID 0000.0001) useEnergyConservingCoriolis= /* Flx-Form Coriolis scheme flag */
(PID.TID 0000.0001)                   F
(PID.TID 0000.0001)     ;
(PID.TID 0000.0001) useJamartWetPoints= /* Coriolis WetPoints method flag */
(PID.TID 0000.0001)                   F
(PID.TID 0000.0001)     ;
(PID.TID 0000.0001) useJamartMomAdv= /* V.I Non-linear terms Jamart flag */
(PID.TID 0000.0001)                   F
(PID.TID 0000.0001)     ;
(PID.TID 0000.0001) useAbsVorticity= /* V.I Works with f+zeta in Coriolis */
(PID.TID 0000.0001)                   F
(PID.TID 0000.0001)     ;
(PID.TID 0000.0001) selectVortScheme= /* V.I Scheme selector for Vorticity-Term */
(PID.TID 0000.0001)                       1
(PID.TID 0000.0001)    = 0 : enstrophy (Shallow-Water Eq.) conserving scheme by Sadourny, JAS 75
(PID.TID 0000.0001)    = 1 : same as 0 with modified hFac
(PID.TID 0000.0001)    = 2 : energy conserving scheme (used by Sadourny in JAS 75 paper)
(PID.TID 0000.0001)    = 3 : energy (general) and enstrophy (2D, nonDiv.) conserving scheme
(PID.TID 0000.0001)          from Sadourny (Burridge & Haseler, ECMWF Rep.4, 1977)
(PID.TID 0000.0001)     ;
(PID.TID 0000.0001) upwindVorticity= /* V.I Upwind bias vorticity flag */
(PID.TID 0000.0001)                   F
(PID.TID 0000.0001)     ;
(PID.TID 0000.0001) highOrderVorticity= /* V.I High order vort. advect. flag */
(PID.TID 0000.0001)                   F
(PID.TID 0000.0001)     ;
(PID.TID 0000.0001) upwindShear= /* V.I Upwind vertical Shear advection flag */
(PID.TID 0000.0001)                   F
(PID.TID 0000.0001)     ;
(PID.TID 0000.0001) selectKEscheme= /* V.I Kinetic Energy scheme selector */
(PID.TID 0000.0001)                       0
(PID.TID 0000.0001)     ;
(PID.TID 0000.0001) momForcing =  /* Momentum forcing on/off flag */
(PID.TID 0000.0001)                   T
(PID.TID 0000.0001)     ;
(PID.TID 0000.0001) momTidalForcing = /* Momentum Tidal forcing on/off flag */
(PID.TID 0000.0001)                   T
(PID.TID 0000.0001)     ;
(PID.TID 0000.0001) momPressureForcing =  /* Momentum pressure term on/off flag */
(PID.TID 0000.0001)                   T
(PID.TID 0000.0001)     ;
(PID.TID 0000.0001) implicitIntGravWave= /* Implicit Internal Gravity Wave flag */
(PID.TID 0000.0001)                   F
(PID.TID 0000.0001)     ;
(PID.TID 0000.0001) staggerTimeStep =    /* Stagger time stepping on/off flag */
(PID.TID 0000.0001)                   T
(PID.TID 0000.0001)     ;
(PID.TID 0000.0001) doResetHFactors = /* reset thickness factors @ each time-step */
(PID.TID 0000.0001)                   F
(PID.TID 0000.0001)     ;
(PID.TID 0000.0001) multiDimAdvection =  /* enable/disable Multi-Dim Advection */
(PID.TID 0000.0001)                   T
(PID.TID 0000.0001)     ;
(PID.TID 0000.0001) useMultiDimAdvec =   /* Multi-Dim Advection is/is-not used */
(PID.TID 0000.0001)                   F
(PID.TID 0000.0001)     ;
(PID.TID 0000.0001) implicitDiffusion = /* Implicit Diffusion on/off flag */
(PID.TID 0000.0001)                   T
(PID.TID 0000.0001)     ;
(PID.TID 0000.0001) tempStepping =  /* Temperature equation on/off flag */
(PID.TID 0000.0001)                   T
(PID.TID 0000.0001)     ;
(PID.TID 0000.0001) tempAdvection = /* Temperature advection on/off flag */
(PID.TID 0000.0001)                   T
(PID.TID 0000.0001)     ;
(PID.TID 0000.0001) tempImplVertAdv = /* Temp. implicit vert. advection on/off */
(PID.TID 0000.0001)                   F
(PID.TID 0000.0001)     ;
(PID.TID 0000.0001) tempForcing  =  /* Temperature forcing on/off flag */
(PID.TID 0000.0001)                   T
(PID.TID 0000.0001)     ;
(PID.TID 0000.0001) balanceQnet  =  /* balance net heat-flux on/off flag */
(PID.TID 0000.0001)                   F
(PID.TID 0000.0001)     ;
(PID.TID 0000.0001) doThetaClimRelax = /* apply SST relaxation on/off flag */
(PID.TID 0000.0001)                   F
(PID.TID 0000.0001)     ;
(PID.TID 0000.0001) balanceThetaClimRelax= /* balance SST relaxation on/off flag */
(PID.TID 0000.0001)                   F
(PID.TID 0000.0001)     ;
(PID.TID 0000.0001) tempIsActiveTr = /* Temp. is a dynamically Active Tracer */
(PID.TID 0000.0001)                   T
(PID.TID 0000.0001)     ;
(PID.TID 0000.0001) saltStepping =  /* Salinity equation on/off flag */
(PID.TID 0000.0001)                   T
(PID.TID 0000.0001)     ;
(PID.TID 0000.0001) saltAdvection = /* Salinity advection on/off flag */
(PID.TID 0000.0001)                   T
(PID.TID 0000.0001)     ;
(PID.TID 0000.0001) saltImplVertAdv = /* Sali. implicit vert. advection on/off */
(PID.TID 0000.0001)                   F
(PID.TID 0000.0001)     ;
(PID.TID 0000.0001) saltForcing  =  /* Salinity forcing on/off flag */
(PID.TID 0000.0001)                   T
(PID.TID 0000.0001)     ;
(PID.TID 0000.0001) balanceEmPmR =  /* balance net fresh-water flux on/off flag */
(PID.TID 0000.0001)                   F
(PID.TID 0000.0001)     ;
(PID.TID 0000.0001) doSaltClimRelax = /* apply SSS relaxation on/off flag */
(PID.TID 0000.0001)                   F
(PID.TID 0000.0001)     ;
(PID.TID 0000.0001) balanceSaltClimRelax= /* balance SSS relaxation on/off flag */
(PID.TID 0000.0001)                   F
(PID.TID 0000.0001)     ;
(PID.TID 0000.0001) saltIsActiveTr = /* Salt  is a dynamically Active Tracer */
(PID.TID 0000.0001)                   T
(PID.TID 0000.0001)     ;
(PID.TID 0000.0001)  readBinaryPrec = /* Precision used for reading binary files */
(PID.TID 0000.0001)                      64
(PID.TID 0000.0001)     ;
(PID.TID 0000.0001) writeBinaryPrec = /* Precision used for writing binary files */
(PID.TID 0000.0001)                      32
(PID.TID 0000.0001)     ;
(PID.TID 0000.0001)  rwSuffixType =   /* select format of mds file suffix */
(PID.TID 0000.0001)                       0
(PID.TID 0000.0001)    = 0 : myIter (I10.10) ;   = 1 : 100*myTime (100th sec) ;
(PID.TID 0000.0001)    = 2 : myTime (seconds);   = 3 : myTime/360 (10th of hr);
(PID.TID 0000.0001)    = 4 : myTime/3600 (hours)
(PID.TID 0000.0001)     ;
(PID.TID 0000.0001)  globalFiles = /* write "global" (=not per tile) files */
(PID.TID 0000.0001)                   F
(PID.TID 0000.0001)     ;
(PID.TID 0000.0001)  useSingleCpuIO = /* only master MPI process does I/O */
(PID.TID 0000.0001)                   T
(PID.TID 0000.0001)     ;
(PID.TID 0000.0001)  useSingleCpuInput = /* only master process reads input */
(PID.TID 0000.0001)                   T
(PID.TID 0000.0001)     ;
(PID.TID 0000.0001) /* debLev[*]  : level of debug & auxiliary message printing */
(PID.TID 0000.0001) debLevZero =  0 ; /* level of disabled aux. msg printing */
(PID.TID 0000.0001)    debLevA =  1 ; /* level of minimum  aux. msg printing */
(PID.TID 0000.0001)    debLevB =  2 ; /* level of low aux. print (report read-file opening)*/
(PID.TID 0000.0001)    debLevC =  3 ; /* level of moderate debug prt (most pkgs debug msg) */
(PID.TID 0000.0001)    debLevD =  4 ; /* level of enhanced debug prt (add DEBUG_STATS prt) */
(PID.TID 0000.0001)    debLevE =  5 ; /* level of extensive debug printing */
(PID.TID 0000.0001) debugLevel =  /* select debug printing level */
(PID.TID 0000.0001)                       2
(PID.TID 0000.0001)     ;
(PID.TID 0000.0001)  plotLevel =  /* select PLOT_FIELD printing level */
(PID.TID 0000.0001)                       2
(PID.TID 0000.0001)     ;
(PID.TID 0000.0001) //
(PID.TID 0000.0001) // Elliptic solver(s) paramters ( PARM02 in namelist )
(PID.TID 0000.0001) //
(PID.TID 0000.0001) cg2dMaxIters =   /* Upper limit on 2d con. grad iterations  */
(PID.TID 0000.0001)                     150
(PID.TID 0000.0001)     ;
(PID.TID 0000.0001) cg2dChkResFreq =   /* 2d con. grad convergence test frequency */
(PID.TID 0000.0001)                       1
(PID.TID 0000.0001)     ;
(PID.TID 0000.0001) cg2dUseMinResSol= /* use cg2d last-iter(=0) / min-resid.(=1) solution */
(PID.TID 0000.0001)                       0
(PID.TID 0000.0001)     ;
(PID.TID 0000.0001) cg2dTargetResidual =   /* 2d con. grad target residual  */
(PID.TID 0000.0001)                 1.000000000000000E-07
(PID.TID 0000.0001)     ;
(PID.TID 0000.0001) cg2dTargetResWunit =   /* CG2d target residual [W units] */
(PID.TID 0000.0001)                -1.000000000000000E+00
(PID.TID 0000.0001)     ;
(PID.TID 0000.0001) cg2dPreCondFreq =   /* Freq. for updating cg2d preconditioner */
(PID.TID 0000.0001)                       1
(PID.TID 0000.0001)     ;
(PID.TID 0000.0001) useSRCGSolver =  /* use single reduction CG solver(s) */
(PID.TID 0000.0001)                   F
(PID.TID 0000.0001)     ;
(PID.TID 0000.0001) printResidualFreq = /* Freq. for printing CG residual */
(PID.TID 0000.0001)                       0
(PID.TID 0000.0001)     ;
(PID.TID 0000.0001) //
(PID.TID 0000.0001) // Time stepping paramters ( PARM03 in namelist )
(PID.TID 0000.0001) //
(PID.TID 0000.0001) deltaTMom =   /* Momentum equation timestep ( s ) */
(PID.TID 0000.0001)                 2.500000000000000E+01
(PID.TID 0000.0001)     ;
(PID.TID 0000.0001) deltaTFreeSurf = /* FreeSurface equation timestep ( s ) */
(PID.TID 0000.0001)                 2.500000000000000E+01
(PID.TID 0000.0001)     ;
(PID.TID 0000.0001) dTtracerLev =  /* Tracer equation timestep ( s ) */
(PID.TID 0000.0001)    15 @  2.500000000000000E+01              /* K =  1: 15 */
(PID.TID 0000.0001)     ;
(PID.TID 0000.0001) deltaTClock  =   /* Model clock timestep ( s ) */
(PID.TID 0000.0001)                 2.500000000000000E+01
(PID.TID 0000.0001)     ;
(PID.TID 0000.0001) cAdjFreq =   /* Convective adjustment interval ( s ) */
(PID.TID 0000.0001)                 0.000000000000000E+00
(PID.TID 0000.0001)     ;
(PID.TID 0000.0001) momForcingOutAB = /* =1: take Momentum Forcing out of Adams-Bash. stepping */
(PID.TID 0000.0001)                       0
(PID.TID 0000.0001)     ;
(PID.TID 0000.0001) tracForcingOutAB = /* =1: take T,S,pTr Forcing out of Adams-Bash. stepping */
(PID.TID 0000.0001)                       1
(PID.TID 0000.0001)     ;
(PID.TID 0000.0001) momDissip_In_AB = /* put Dissipation Tendency in Adams-Bash. stepping */
(PID.TID 0000.0001)                   T
(PID.TID 0000.0001)     ;
(PID.TID 0000.0001) doAB_onGtGs = /* apply AB on Tendencies (rather than on T,S)*/
(PID.TID 0000.0001)                   T
(PID.TID 0000.0001)     ;
(PID.TID 0000.0001) abEps =   /* Adams-Bashforth-2 stabilizing weight */
(PID.TID 0000.0001)                 1.000000000000000E-01
(PID.TID 0000.0001)     ;
(PID.TID 0000.0001) applyExchUV_early = /* Apply EXCH to U,V earlier in time-step */
(PID.TID 0000.0001)                   F
(PID.TID 0000.0001)     ;
(PID.TID 0000.0001) pickupStrictlyMatch= /* stop if pickup do not strictly match */
(PID.TID 0000.0001)                   T
(PID.TID 0000.0001)     ;
(PID.TID 0000.0001) nIter0   =   /* Run starting timestep number */
(PID.TID 0000.0001)                   72000
(PID.TID 0000.0001)     ;
(PID.TID 0000.0001) nTimeSteps = /* Number of timesteps */
(PID.TID 0000.0001)                       4
(PID.TID 0000.0001)     ;
(PID.TID 0000.0001) nEndIter =   /* Run ending timestep number */
(PID.TID 0000.0001)                   72004
(PID.TID 0000.0001)     ;
(PID.TID 0000.0001) baseTime =   /* Model base time ( s ) */
(PID.TID 0000.0001)                 0.000000000000000E+00
(PID.TID 0000.0001)     ;
(PID.TID 0000.0001) startTime =  /* Run start time ( s ) */
(PID.TID 0000.0001)                 1.800000000000000E+06
(PID.TID 0000.0001)     ;
(PID.TID 0000.0001) endTime  =   /* Integration ending time ( s ) */
(PID.TID 0000.0001)                 1.800100000000000E+06
(PID.TID 0000.0001)     ;
(PID.TID 0000.0001) pChkPtFreq = /* Permanent restart/pickup file interval ( s ) */
(PID.TID 0000.0001)                 0.000000000000000E+00
(PID.TID 0000.0001)     ;
(PID.TID 0000.0001) chkPtFreq  = /* Rolling restart/pickup file interval ( s ) */
(PID.TID 0000.0001)                 0.000000000000000E+00
(PID.TID 0000.0001)     ;
(PID.TID 0000.0001) pickup_write_mdsio =   /* Model IO flag. */
(PID.TID 0000.0001)                   T
(PID.TID 0000.0001)     ;
(PID.TID 0000.0001) pickup_read_mdsio =   /* Model IO flag. */
(PID.TID 0000.0001)                   T
(PID.TID 0000.0001)     ;
(PID.TID 0000.0001) writePickupAtEnd =   /* Model IO flag. */
(PID.TID 0000.0001)                   T
(PID.TID 0000.0001)     ;
(PID.TID 0000.0001) dumpFreq =   /* Model state write out interval ( s ). */
(PID.TID 0000.0001)                 0.000000000000000E+00
(PID.TID 0000.0001)     ;
(PID.TID 0000.0001) dumpInitAndLast= /* write out Initial & Last iter. model state */
(PID.TID 0000.0001)                   T
(PID.TID 0000.0001)     ;
(PID.TID 0000.0001) snapshot_mdsio =   /* Model IO flag. */
(PID.TID 0000.0001)                   T
(PID.TID 0000.0001)     ;
(PID.TID 0000.0001) monitorFreq =   /* Monitor output interval ( s ). */
(PID.TID 0000.0001)                 2.500000000000000E+01
(PID.TID 0000.0001)     ;
(PID.TID 0000.0001) monitorSelect = /* select group of variables to monitor */
(PID.TID 0000.0001)                       3
(PID.TID 0000.0001)     ;
(PID.TID 0000.0001) monitor_stdio =   /* Model IO flag. */
(PID.TID 0000.0001)                   T
(PID.TID 0000.0001)     ;
(PID.TID 0000.0001) externForcingPeriod =   /* forcing period (s) */
(PID.TID 0000.0001)                 0.000000000000000E+00
(PID.TID 0000.0001)     ;
(PID.TID 0000.0001) externForcingCycle =   /* period of the cyle (s). */
(PID.TID 0000.0001)                 0.000000000000000E+00
(PID.TID 0000.0001)     ;
(PID.TID 0000.0001) tauThetaClimRelax =   /* relaxation time scale (s) */
(PID.TID 0000.0001)                 0.000000000000000E+00
(PID.TID 0000.0001)     ;
(PID.TID 0000.0001) tauSaltClimRelax =   /* relaxation time scale (s) */
(PID.TID 0000.0001)                 0.000000000000000E+00
(PID.TID 0000.0001)     ;
(PID.TID 0000.0001) latBandClimRelax =   /* max. Lat. where relaxation */
(PID.TID 0000.0001)                 1.800000000000000E+02
(PID.TID 0000.0001)     ;
(PID.TID 0000.0001) //
(PID.TID 0000.0001) // Gridding paramters ( PARM04 in namelist )
(PID.TID 0000.0001) //
(PID.TID 0000.0001) usingCartesianGrid = /* Cartesian coordinates flag ( True/False ) */
(PID.TID 0000.0001)                   F
(PID.TID 0000.0001)     ;
(PID.TID 0000.0001) usingCylindricalGrid = /* Cylindrical coordinates flag ( True/False ) */
(PID.TID 0000.0001)                   F
(PID.TID 0000.0001)     ;
(PID.TID 0000.0001) usingSphericalPolarGrid = /* Spherical coordinates flag ( True/False ) */
(PID.TID 0000.0001)                   F
(PID.TID 0000.0001)     ;
(PID.TID 0000.0001) usingCurvilinearGrid = /* Curvilinear coordinates flag ( True/False ) */
(PID.TID 0000.0001)                   T
(PID.TID 0000.0001)     ;
(PID.TID 0000.0001) useMin4hFacEdges = /* set hFacW,S as minimum of adjacent hFacC factor */
(PID.TID 0000.0001)                   F
(PID.TID 0000.0001)     ;
(PID.TID 0000.0001) selectSigmaCoord = /* Hybrid-Sigma Vert. Coordinate option */
(PID.TID 0000.0001)                       0
(PID.TID 0000.0001)     ;
(PID.TID 0000.0001) rSigmaBnd = /* r/sigma transition ( units of r ==  m ) */
(PID.TID 0000.0001)                 1.234567000000000E+05
(PID.TID 0000.0001)     ;
(PID.TID 0000.0001) rkSign =   /* index orientation relative to vertical coordinate */
(PID.TID 0000.0001)                -1.000000000000000E+00
(PID.TID 0000.0001)     ;
(PID.TID 0000.0001) gravitySign = /* gravity orientation relative to vertical coordinate */
(PID.TID 0000.0001)                -1.000000000000000E+00
(PID.TID 0000.0001)     ;
(PID.TID 0000.0001) seaLev_Z =  /* reference height of sea-level [m] */
(PID.TID 0000.0001)                 0.000000000000000E+00
(PID.TID 0000.0001)     ;
(PID.TID 0000.0001) top_Pres =  /* reference pressure at the top [Pa] */
(PID.TID 0000.0001)                 0.000000000000000E+00
(PID.TID 0000.0001)     ;
(PID.TID 0000.0001) mass2rUnit = /* convert mass per unit area [kg/m2] to r-units [m] */
(PID.TID 0000.0001)                 9.661835748792270E-04
(PID.TID 0000.0001)     ;
(PID.TID 0000.0001) rUnit2mass = /* convert r-units [m] to mass per unit area [kg/m2] */
(PID.TID 0000.0001)                 1.035000000000000E+03
(PID.TID 0000.0001)     ;
(PID.TID 0000.0001) drC =   /* C spacing ( units of r ) */
(PID.TID 0000.0001)                 2.500000000000000E+01,      /* K =  1 */
(PID.TID 0000.0001)                 6.000000000000000E+01,      /* K =  2 */
(PID.TID 0000.0001)                 8.500000000000000E+01,      /* K =  3 */
(PID.TID 0000.0001)                 1.200000000000000E+02,      /* K =  4 */
(PID.TID 0000.0001)                 1.650000000000000E+02,      /* K =  5 */
(PID.TID 0000.0001)                 2.150000000000000E+02,      /* K =  6 */
(PID.TID 0000.0001)                 2.650000000000000E+02,      /* K =  7 */
(PID.TID 0000.0001)                 3.150000000000000E+02,      /* K =  8 */
(PID.TID 0000.0001)                 3.650000000000000E+02,      /* K =  9 */
(PID.TID 0000.0001)                 4.150000000000000E+02,      /* K = 10 */
(PID.TID 0000.0001)                 4.650000000000000E+02,      /* K = 11 */
(PID.TID 0000.0001)                 5.150000000000000E+02,      /* K = 12 */
(PID.TID 0000.0001)                 5.650000000000000E+02,      /* K = 13 */
(PID.TID 0000.0001)                 6.150000000000000E+02,      /* K = 14 */
(PID.TID 0000.0001)                 6.650000000000000E+02,      /* K = 15 */
(PID.TID 0000.0001)                 3.450000000000000E+02       /* K = 16 */
(PID.TID 0000.0001)     ;
(PID.TID 0000.0001) drF =   /* W spacing ( units of r ) */
(PID.TID 0000.0001)                 5.000000000000000E+01,      /* K =  1 */
(PID.TID 0000.0001)                 7.000000000000000E+01,      /* K =  2 */
(PID.TID 0000.0001)                 1.000000000000000E+02,      /* K =  3 */
(PID.TID 0000.0001)                 1.400000000000000E+02,      /* K =  4 */
(PID.TID 0000.0001)                 1.900000000000000E+02,      /* K =  5 */
(PID.TID 0000.0001)                 2.400000000000000E+02,      /* K =  6 */
(PID.TID 0000.0001)                 2.900000000000000E+02,      /* K =  7 */
(PID.TID 0000.0001)                 3.400000000000000E+02,      /* K =  8 */
(PID.TID 0000.0001)                 3.900000000000000E+02,      /* K =  9 */
(PID.TID 0000.0001)                 4.400000000000000E+02,      /* K = 10 */
(PID.TID 0000.0001)                 4.900000000000000E+02,      /* K = 11 */
(PID.TID 0000.0001)                 5.400000000000000E+02,      /* K = 12 */
(PID.TID 0000.0001)                 5.900000000000000E+02,      /* K = 13 */
(PID.TID 0000.0001)                 6.400000000000000E+02,      /* K = 14 */
(PID.TID 0000.0001)                 6.900000000000000E+02       /* K = 15 */
(PID.TID 0000.0001)     ;
(PID.TID 0000.0001) radius_fromHorizGrid = /* sphere Radius of input horiz. grid */
(PID.TID 0000.0001)                 6.370000000000000E+06
(PID.TID 0000.0001)     ;
(PID.TID 0000.0001) rSphere =  /* Radius ( ignored - cartesian, m - spherical ) */
(PID.TID 0000.0001)                 6.370000000000000E+06
(PID.TID 0000.0001)     ;
(PID.TID 0000.0001) deepAtmosphere = /* Deep/Shallow Atmosphere flag (True/False) */
(PID.TID 0000.0001)                   F
(PID.TID 0000.0001)     ;
(PID.TID 0000.0001) xC =  /* xC(:,1,:,1) : P-point X coord ( deg. or m if cartesian) */
(PID.TID 0000.0001)                -4.439521994760536E+01,      /* I =  1 */
(PID.TID 0000.0001)                -4.295641272275883E+01,      /* I =  2 */
(PID.TID 0000.0001)                -4.122055553388957E+01,      /* I =  3 */
(PID.TID 0000.0001)                -3.923446288487304E+01,      /* I =  4 */
(PID.TID 0000.0001)                -3.702585158682200E+01,      /* I =  5 */
(PID.TID 0000.0001)                -3.461179367094151E+01,      /* I =  6 */
(PID.TID 0000.0001)                -3.200434569041793E+01,      /* I =  7 */
(PID.TID 0000.0001)                -2.921355965632675E+01,      /* I =  8 */
(PID.TID 0000.0001)                -2.624932223028290E+01,      /* I =  9 */
(PID.TID 0000.0001)                -2.312261250426344E+01,      /* I = 10 */
(PID.TID 0000.0001)                -1.984640717127058E+01,      /* I = 11 */
(PID.TID 0000.0001)                -1.643630800555134E+01,      /* I = 12 */
(PID.TID 0000.0001)                -1.291089806302069E+01,      /* I = 13 */
(PID.TID 0000.0001)                -9.291807802719402E+00,      /* I = 14 */
(PID.TID 0000.0001)                -5.603475335822332E+00,      /* I = 15 */
(PID.TID 0000.0001)                -1.872608513033445E+00,      /* I = 16 */
(PID.TID 0000.0001)                 1.872608513033445E+00,      /* I = 17 */
(PID.TID 0000.0001)                 5.603475335822332E+00,      /* I = 18 */
(PID.TID 0000.0001)                 9.291807802719402E+00,      /* I = 19 */
(PID.TID 0000.0001)                 1.291089806302069E+01,      /* I = 20 */
(PID.TID 0000.0001)                 1.643630800555134E+01,      /* I = 21 */
(PID.TID 0000.0001)                 1.984640717127058E+01,      /* I = 22 */
(PID.TID 0000.0001)                 2.312261250426344E+01,      /* I = 23 */
(PID.TID 0000.0001)                 2.624932223028290E+01,      /* I = 24 */
(PID.TID 0000.0001)                 2.921355965632675E+01,      /* I = 25 */
(PID.TID 0000.0001)                 3.200434569041793E+01,      /* I = 26 */
(PID.TID 0000.0001)                 3.461179367094151E+01,      /* I = 27 */
(PID.TID 0000.0001)                 3.702585158682200E+01,      /* I = 28 */
(PID.TID 0000.0001)                 3.923446288487304E+01,      /* I = 29 */
(PID.TID 0000.0001)                 4.122055553388957E+01,      /* I = 30 */
(PID.TID 0000.0001)                 4.295641272275883E+01,      /* I = 31 */
(PID.TID 0000.0001)                 4.439521994760536E+01       /* I = 32 */
(PID.TID 0000.0001)     ;
(PID.TID 0000.0001) yC =  /* yC(1,:,1,:) : P-point Y coord ( deg. or m if cartesian) */
(PID.TID 0000.0001)                -3.497677942598243E+01,      /* J =  1 */
(PID.TID 0000.0001)                -3.374005967394886E+01,      /* J =  2 */
(PID.TID 0000.0001)                -3.220655175667454E+01,      /* J =  3 */
(PID.TID 0000.0001)                -3.045756348838641E+01,      /* J =  4 */
(PID.TID 0000.0001)                -2.853728129852918E+01,      /* J =  5 */
(PID.TID 0000.0001)                -2.647426640173173E+01,      /* J =  6 */
(PID.TID 0000.0001)                -2.428936657094636E+01,      /* J =  7 */
(PID.TID 0000.0001)                -2.199915808312262E+01,      /* J =  8 */
(PID.TID 0000.0001)                -1.961768597440146E+01,      /* J =  9 */
(PID.TID 0000.0001)                -1.715743888281371E+01,      /* J = 10 */
(PID.TID 0000.0001)                -1.462993396899330E+01,      /* J = 11 */
(PID.TID 0000.0001)                -1.204608340464756E+01,      /* J = 12 */
(PID.TID 0000.0001)                -9.416429130284818E+00,      /* J = 13 */
(PID.TID 0000.0001)                -6.751293662992216E+00,      /* J = 14 */
(PID.TID 0000.0001)                -4.060875511835959E+00,      /* J = 15 */
(PID.TID 0000.0001)                -1.355307764409121E+00,      /* J = 16 */
(PID.TID 0000.0001)                 1.355307764409121E+00,      /* J = 17 */
(PID.TID 0000.0001)                 4.060875511835959E+00,      /* J = 18 */
(PID.TID 0000.0001)                 6.751293662992216E+00,      /* J = 19 */
(PID.TID 0000.0001)                 9.416429130284818E+00,      /* J = 20 */
(PID.TID 0000.0001)                 1.204608340464756E+01,      /* J = 21 */
(PID.TID 0000.0001)                 1.462993396899330E+01,      /* J = 22 */
(PID.TID 0000.0001)                 1.715743888281371E+01,      /* J = 23 */
(PID.TID 0000.0001)                 1.961768597440146E+01,      /* J = 24 */
(PID.TID 0000.0001)                 2.199915808312262E+01,      /* J = 25 */
(PID.TID 0000.0001)                 2.428936657094636E+01,      /* J = 26 */
(PID.TID 0000.0001)                 2.647426640173173E+01,      /* J = 27 */
(PID.TID 0000.0001)                 2.853728129852918E+01,      /* J = 28 */
(PID.TID 0000.0001)                 3.045756348838641E+01,      /* J = 29 */
(PID.TID 0000.0001)                 3.220655175667454E+01,      /* J = 30 */
(PID.TID 0000.0001)                 3.374005967394886E+01,      /* J = 31 */
(PID.TID 0000.0001)                 3.497677942598243E+01       /* J = 32 */
(PID.TID 0000.0001)     ;
(PID.TID 0000.0001) rcoord = /* P-point R coordinate (  units of r ) */
(PID.TID 0000.0001)                -2.500000000000000E+01,      /* K =  1 */
(PID.TID 0000.0001)                -8.500000000000000E+01,      /* K =  2 */
(PID.TID 0000.0001)                -1.700000000000000E+02,      /* K =  3 */
(PID.TID 0000.0001)                -2.900000000000000E+02,      /* K =  4 */
(PID.TID 0000.0001)                -4.550000000000000E+02,      /* K =  5 */
(PID.TID 0000.0001)                -6.700000000000000E+02,      /* K =  6 */
(PID.TID 0000.0001)                -9.350000000000000E+02,      /* K =  7 */
(PID.TID 0000.0001)                -1.250000000000000E+03,      /* K =  8 */
(PID.TID 0000.0001)                -1.615000000000000E+03,      /* K =  9 */
(PID.TID 0000.0001)                -2.030000000000000E+03,      /* K = 10 */
(PID.TID 0000.0001)                -2.495000000000000E+03,      /* K = 11 */
(PID.TID 0000.0001)                -3.010000000000000E+03,      /* K = 12 */
(PID.TID 0000.0001)                -3.575000000000000E+03,      /* K = 13 */
(PID.TID 0000.0001)                -4.190000000000000E+03,      /* K = 14 */
(PID.TID 0000.0001)                -4.855000000000000E+03       /* K = 15 */
(PID.TID 0000.0001)     ;
(PID.TID 0000.0001) rF =   /* W-Interf. R coordinate (  units of r ) */
(PID.TID 0000.0001)                 0.000000000000000E+00,      /* K =  1 */
(PID.TID 0000.0001)                -5.000000000000000E+01,      /* K =  2 */
(PID.TID 0000.0001)                -1.200000000000000E+02,      /* K =  3 */
(PID.TID 0000.0001)                -2.200000000000000E+02,      /* K =  4 */
(PID.TID 0000.0001)                -3.600000000000000E+02,      /* K =  5 */
(PID.TID 0000.0001)                -5.500000000000000E+02,      /* K =  6 */
(PID.TID 0000.0001)                -7.900000000000000E+02,      /* K =  7 */
(PID.TID 0000.0001)                -1.080000000000000E+03,      /* K =  8 */
(PID.TID 0000.0001)                -1.420000000000000E+03,      /* K =  9 */
(PID.TID 0000.0001)                -1.810000000000000E+03,      /* K = 10 */
(PID.TID 0000.0001)                -2.250000000000000E+03,      /* K = 11 */
(PID.TID 0000.0001)                -2.740000000000000E+03,      /* K = 12 */
(PID.TID 0000.0001)                -3.280000000000000E+03,      /* K = 13 */
(PID.TID 0000.0001)                -3.870000000000000E+03,      /* K = 14 */
(PID.TID 0000.0001)                -4.510000000000000E+03,      /* K = 15 */
(PID.TID 0000.0001)                -5.200000000000000E+03       /* K = 16 */
(PID.TID 0000.0001)     ;
(PID.TID 0000.0001) deepFacC = /* deep-model grid factor @ cell-Center (-) */
(PID.TID 0000.0001)    15 @  1.000000000000000E+00              /* K =  1: 15 */
(PID.TID 0000.0001)     ;
(PID.TID 0000.0001) deepFacF = /* deep-model grid factor @ W-Interface (-) */
(PID.TID 0000.0001)    16 @  1.000000000000000E+00              /* K =  1: 16 */
(PID.TID 0000.0001)     ;
(PID.TID 0000.0001) rVel2wUnit = /* convert units: rVel -> wSpeed (=1 if z-coord)*/
(PID.TID 0000.0001)    16 @  1.000000000000000E+00              /* K =  1: 16 */
(PID.TID 0000.0001)     ;
(PID.TID 0000.0001) wUnit2rVel = /* convert units: wSpeed -> rVel (=1 if z-coord)*/
(PID.TID 0000.0001)    16 @  1.000000000000000E+00              /* K =  1: 16 */
(PID.TID 0000.0001)     ;
(PID.TID 0000.0001) dBdrRef = /* Vertical grad. of reference buoyancy [(m/s/r)^2] */
(PID.TID 0000.0001)    15 @  0.000000000000000E+00              /* K =  1: 15 */
(PID.TID 0000.0001)     ;
(PID.TID 0000.0001) rotateGrid = /* use rotated grid ( True/False ) */
(PID.TID 0000.0001)                   F
(PID.TID 0000.0001)     ;
(PID.TID 0000.0001) phiEuler = /* Euler angle, rotation about original z-coordinate [rad] */
(PID.TID 0000.0001)                 0.000000000000000E+00
(PID.TID 0000.0001)     ;
(PID.TID 0000.0001) thetaEuler = /* Euler angle, rotation about new x-coordinate [rad] */
(PID.TID 0000.0001)                 0.000000000000000E+00
(PID.TID 0000.0001)     ;
(PID.TID 0000.0001) psiEuler = /* Euler angle, rotation about new z-coordinate [rad] */
(PID.TID 0000.0001)                 0.000000000000000E+00
(PID.TID 0000.0001)     ;
(PID.TID 0000.0001) dxF =  /* dxF(:,1,:,1) ( units: m ) */
(PID.TID 0000.0001)                 1.202082051331828E+05,      /* I =  1 */
(PID.TID 0000.0001)                 1.563594089971120E+05,      /* I =  2 */
(PID.TID 0000.0001)                 1.835530058121492E+05,      /* I =  3 */
(PID.TID 0000.0001)                 2.045883481718707E+05,      /* I =  4 */
(PID.TID 0000.0001)                 2.218350349844185E+05,      /* I =  5 */
(PID.TID 0000.0001)                 2.364352994647058E+05,      /* I =  6 */
(PID.TID 0000.0001)                 2.490022710862746E+05,      /* I =  7 */
(PID.TID 0000.0001)                 2.598919724358304E+05,      /* I =  8 */
(PID.TID 0000.0001)                 2.693210245495156E+05,      /* I =  9 */
(PID.TID 0000.0001)                 2.774243179696503E+05,      /* I = 10 */
(PID.TID 0000.0001)                 2.842862532064524E+05,      /* I = 11 */
(PID.TID 0000.0001)                 2.899590699694043E+05,      /* I = 12 */
(PID.TID 0000.0001)                 2.944742915095688E+05,      /* I = 13 */
(PID.TID 0000.0001)                 2.978501920522794E+05,      /* I = 14 */
(PID.TID 0000.0001)                 3.000967749619962E+05,      /* I = 15 */
(PID.TID 0000.0001)     2 @  3.012190981969055E+05,             /* I = 16: 17 */
(PID.TID 0000.0001)                 3.000967749619962E+05,      /* I = 18 */
(PID.TID 0000.0001)                 2.978501920522794E+05,      /* I = 19 */
(PID.TID 0000.0001)                 2.944742915095688E+05,      /* I = 20 */
(PID.TID 0000.0001)                 2.899590699694043E+05,      /* I = 21 */
(PID.TID 0000.0001)                 2.842862532064524E+05,      /* I = 22 */
(PID.TID 0000.0001)                 2.774243179696503E+05,      /* I = 23 */
(PID.TID 0000.0001)                 2.693210245495156E+05,      /* I = 24 */
(PID.TID 0000.0001)                 2.598919724358304E+05,      /* I = 25 */
(PID.TID 0000.0001)                 2.490022710862746E+05,      /* I = 26 */
(PID.TID 0000.0001)                 2.364352994647058E+05,      /* I = 27 */
(PID.TID 0000.0001)                 2.218350349844185E+05,      /* I = 28 */
(PID.TID 0000.0001)                 2.045883481718707E+05,      /* I = 29 */
(PID.TID 0000.0001)                 1.835530058121492E+05,      /* I = 30 */
(PID.TID 0000.0001)                 1.563594089971120E+05,      /* I = 31 */
(PID.TID 0000.0001)                 1.202082051331828E+05       /* I = 32 */
(PID.TID 0000.0001)     ;
(PID.TID 0000.0001) dxF =  /* dxF(1,:,1,:) ( units: m ) */
(PID.TID 0000.0001)                 1.202082051331828E+05,      /* J =  1 */
(PID.TID 0000.0001)                 1.572908084538706E+05,      /* J =  2 */
(PID.TID 0000.0001)                 1.840412227747703E+05,      /* J =  3 */
(PID.TID 0000.0001)                 2.048868197919576E+05,      /* J =  4 */
(PID.TID 0000.0001)                 2.220405216043041E+05,      /* J =  5 */
(PID.TID 0000.0001)                 2.365892017348392E+05,      /* J =  6 */
(PID.TID 0000.0001)                 2.491250781852558E+05,      /* J =  7 */
(PID.TID 0000.0001)                 2.599949918261881E+05,      /* J =  8 */
(PID.TID 0000.0001)                 2.694110134598581E+05,      /* J =  9 */
(PID.TID 0000.0001)                 2.775055554645015E+05,      /* J = 10 */
(PID.TID 0000.0001)                 2.843615645344775E+05,      /* J = 11 */
(PID.TID 0000.0001)                 2.900303768613599E+05,      /* J = 12 */
(PID.TID 0000.0001)                 2.945429307892709E+05,      /* J = 13 */
(PID.TID 0000.0001)                 2.979171143158405E+05,      /* J = 14 */
(PID.TID 0000.0001)                 3.001626787528886E+05,      /* J = 15 */
(PID.TID 0000.0001)     2 @  3.012844832048790E+05,             /* J = 16: 17 */
(PID.TID 0000.0001)                 3.001626787528886E+05,      /* J = 18 */
(PID.TID 0000.0001)                 2.979171143158405E+05,      /* J = 19 */
(PID.TID 0000.0001)                 2.945429307892709E+05,      /* J = 20 */
(PID.TID 0000.0001)                 2.900303768613599E+05,      /* J = 21 */
(PID.TID 0000.0001)                 2.843615645344775E+05,      /* J = 22 */
(PID.TID 0000.0001)                 2.775055554645015E+05,      /* J = 23 */
(PID.TID 0000.0001)                 2.694110134598581E+05,      /* J = 24 */
(PID.TID 0000.0001)                 2.599949918261881E+05,      /* J = 25 */
(PID.TID 0000.0001)                 2.491250781852558E+05,      /* J = 26 */
(PID.TID 0000.0001)                 2.365892017348392E+05,      /* J = 27 */
(PID.TID 0000.0001)                 2.220405216043041E+05,      /* J = 28 */
(PID.TID 0000.0001)                 2.048868197919576E+05,      /* J = 29 */
(PID.TID 0000.0001)                 1.840412227747703E+05,      /* J = 30 */
(PID.TID 0000.0001)                 1.572908084538706E+05,      /* J = 31 */
(PID.TID 0000.0001)                 1.202082051331828E+05       /* J = 32 */
(PID.TID 0000.0001)     ;
(PID.TID 0000.0001) dyF =  /* dyF(:,1,:,1) ( units: m ) */
(PID.TID 0000.0001)                 1.202082051331828E+05,      /* I =  1 */
(PID.TID 0000.0001)                 1.572908084538706E+05,      /* I =  2 */
(PID.TID 0000.0001)                 1.840412227747703E+05,      /* I =  3 */
(PID.TID 0000.0001)                 2.048868197919576E+05,      /* I =  4 */
(PID.TID 0000.0001)                 2.220405216043041E+05,      /* I =  5 */
(PID.TID 0000.0001)                 2.365892017348392E+05,      /* I =  6 */
(PID.TID 0000.0001)                 2.491250781852558E+05,      /* I =  7 */
(PID.TID 0000.0001)                 2.599949918261881E+05,      /* I =  8 */
(PID.TID 0000.0001)                 2.694110134598581E+05,      /* I =  9 */
(PID.TID 0000.0001)                 2.775055554645015E+05,      /* I = 10 */
(PID.TID 0000.0001)                 2.843615645344775E+05,      /* I = 11 */
(PID.TID 0000.0001)                 2.900303768613599E+05,      /* I = 12 */
(PID.TID 0000.0001)                 2.945429307892709E+05,      /* I = 13 */
(PID.TID 0000.0001)                 2.979171143158405E+05,      /* I = 14 */
(PID.TID 0000.0001)                 3.001626787528886E+05,      /* I = 15 */
(PID.TID 0000.0001)     2 @  3.012844832048790E+05,             /* I = 16: 17 */
(PID.TID 0000.0001)                 3.001626787528886E+05,      /* I = 18 */
(PID.TID 0000.0001)                 2.979171143158405E+05,      /* I = 19 */
(PID.TID 0000.0001)                 2.945429307892709E+05,      /* I = 20 */
(PID.TID 0000.0001)                 2.900303768613599E+05,      /* I = 21 */
(PID.TID 0000.0001)                 2.843615645344775E+05,      /* I = 22 */
(PID.TID 0000.0001)                 2.775055554645015E+05,      /* I = 23 */
(PID.TID 0000.0001)                 2.694110134598581E+05,      /* I = 24 */
(PID.TID 0000.0001)                 2.599949918261881E+05,      /* I = 25 */
(PID.TID 0000.0001)                 2.491250781852558E+05,      /* I = 26 */
(PID.TID 0000.0001)                 2.365892017348392E+05,      /* I = 27 */
(PID.TID 0000.0001)                 2.220405216043041E+05,      /* I = 28 */
(PID.TID 0000.0001)                 2.048868197919576E+05,      /* I = 29 */
(PID.TID 0000.0001)                 1.840412227747703E+05,      /* I = 30 */
(PID.TID 0000.0001)                 1.572908084538706E+05,      /* I = 31 */
(PID.TID 0000.0001)                 1.202082051331828E+05       /* I = 32 */
(PID.TID 0000.0001)     ;
(PID.TID 0000.0001) dyF =  /* dyF(1,:,1,:) ( units: m ) */
(PID.TID 0000.0001)                 1.202082051331828E+05,      /* J =  1 */
(PID.TID 0000.0001)                 1.563594089971120E+05,      /* J =  2 */
(PID.TID 0000.0001)                 1.835530058121492E+05,      /* J =  3 */
(PID.TID 0000.0001)                 2.045883481718707E+05,      /* J =  4 */
(PID.TID 0000.0001)                 2.218350349844185E+05,      /* J =  5 */
(PID.TID 0000.0001)                 2.364352994647058E+05,      /* J =  6 */
(PID.TID 0000.0001)                 2.490022710862746E+05,      /* J =  7 */
(PID.TID 0000.0001)                 2.598919724358304E+05,      /* J =  8 */
(PID.TID 0000.0001)                 2.693210245495156E+05,      /* J =  9 */
(PID.TID 0000.0001)                 2.774243179696503E+05,      /* J = 10 */
(PID.TID 0000.0001)                 2.842862532064524E+05,      /* J = 11 */
(PID.TID 0000.0001)                 2.899590699694043E+05,      /* J = 12 */
(PID.TID 0000.0001)                 2.944742915095688E+05,      /* J = 13 */
(PID.TID 0000.0001)                 2.978501920522794E+05,      /* J = 14 */
(PID.TID 0000.0001)                 3.000967749619962E+05,      /* J = 15 */
(PID.TID 0000.0001)     2 @  3.012190981969055E+05,             /* J = 16: 17 */
(PID.TID 0000.0001)                 3.000967749619962E+05,      /* J = 18 */
(PID.TID 0000.0001)                 2.978501920522794E+05,      /* J = 19 */
(PID.TID 0000.0001)                 2.944742915095688E+05,      /* J = 20 */
(PID.TID 0000.0001)                 2.899590699694043E+05,      /* J = 21 */
(PID.TID 0000.0001)                 2.842862532064524E+05,      /* J = 22 */
(PID.TID 0000.0001)                 2.774243179696503E+05,      /* J = 23 */
(PID.TID 0000.0001)                 2.693210245495156E+05,      /* J = 24 */
(PID.TID 0000.0001)                 2.598919724358304E+05,      /* J = 25 */
(PID.TID 0000.0001)                 2.490022710862746E+05,      /* J = 26 */
(PID.TID 0000.0001)                 2.364352994647058E+05,      /* J = 27 */
(PID.TID 0000.0001)                 2.218350349844185E+05,      /* J = 28 */
(PID.TID 0000.0001)                 2.045883481718707E+05,      /* J = 29 */
(PID.TID 0000.0001)                 1.835530058121492E+05,      /* J = 30 */
(PID.TID 0000.0001)                 1.563594089971120E+05,      /* J = 31 */
(PID.TID 0000.0001)                 1.202082051331828E+05       /* J = 32 */
(PID.TID 0000.0001)     ;
(PID.TID 0000.0001) dxG =  /* dxG(:,1,:,1) ( units: m ) */
(PID.TID 0000.0001)                 1.009837800879055E+05,      /* I =  1 */
(PID.TID 0000.0001)                 1.534505834330338E+05,      /* I =  2 */
(PID.TID 0000.0001)                 1.823321598773926E+05,      /* I =  3 */
(PID.TID 0000.0001)                 2.038999045536999E+05,      /* I =  4 */
(PID.TID 0000.0001)                 2.213884732245467E+05,      /* I =  5 */
(PID.TID 0000.0001)                 2.361211699596122E+05,      /* I =  6 */
(PID.TID 0000.0001)                 2.487693460283865E+05,      /* I =  7 */
(PID.TID 0000.0001)                 2.597126963772147E+05,      /* I =  8 */
(PID.TID 0000.0001)                 2.691790288994575E+05,      /* I =  9 */
(PID.TID 0000.0001)                 2.773091043277394E+05,      /* I = 10 */
(PID.TID 0000.0001)                 2.841906470085516E+05,      /* I = 11 */
(PID.TID 0000.0001)                 2.898778860929753E+05,      /* I = 12 */
(PID.TID 0000.0001)                 2.944035815526416E+05,      /* I = 13 */
(PID.TID 0000.0001)                 2.977867909042096E+05,      /* I = 14 */
(PID.TID 0000.0001)                 3.000380090330854E+05,      /* I = 15 */
(PID.TID 0000.0001)     2 @  3.011625828699101E+05,             /* I = 16: 17 */
(PID.TID 0000.0001)                 3.000380090330854E+05,      /* I = 18 */
(PID.TID 0000.0001)                 2.977867909042096E+05,      /* I = 19 */
(PID.TID 0000.0001)                 2.944035815526416E+05,      /* I = 20 */
(PID.TID 0000.0001)                 2.898778860929753E+05,      /* I = 21 */
(PID.TID 0000.0001)                 2.841906470085516E+05,      /* I = 22 */
(PID.TID 0000.0001)                 2.773091043277394E+05,      /* I = 23 */
(PID.TID 0000.0001)                 2.691790288994575E+05,      /* I = 24 */
(PID.TID 0000.0001)                 2.597126963772147E+05,      /* I = 25 */
(PID.TID 0000.0001)                 2.487693460283865E+05,      /* I = 26 */
(PID.TID 0000.0001)                 2.361211699596122E+05,      /* I = 27 */
(PID.TID 0000.0001)                 2.213884732245467E+05,      /* I = 28 */
(PID.TID 0000.0001)                 2.038999045536999E+05,      /* I = 29 */
(PID.TID 0000.0001)                 1.823321598773926E+05,      /* I = 30 */
(PID.TID 0000.0001)                 1.534505834330338E+05,      /* I = 31 */
(PID.TID 0000.0001)                 1.009837800879055E+05       /* I = 32 */
(PID.TID 0000.0001)     ;
(PID.TID 0000.0001) dxG =  /* dxG(1,:,1,:) ( units: m ) */
(PID.TID 0000.0001)                 1.009837800879055E+05,      /* J =  1 */
(PID.TID 0000.0001)                 1.403701524205398E+05,      /* J =  2 */
(PID.TID 0000.0001)                 1.716197227386011E+05,      /* J =  3 */
(PID.TID 0000.0001)                 1.950254041626018E+05,      /* J =  4 */
(PID.TID 0000.0001)                 2.138410773065497E+05,      /* J =  5 */
(PID.TID 0000.0001)                 2.295958105911512E+05,      /* J =  6 */
(PID.TID 0000.0001)                 2.430829951739083E+05,      /* J =  7 */
(PID.TID 0000.0001)                 2.547526806712889E+05,      /* J =  8 */
(PID.TID 0000.0001)                 2.648750305193301E+05,      /* J =  9 */
(PID.TID 0000.0001)                 2.736173771018112E+05,      /* J = 10 */
(PID.TID 0000.0001)                 2.810845823202647E+05,      /* J = 11 */
(PID.TID 0000.0001)                 2.873420591008078E+05,      /* J = 12 */
(PID.TID 0000.0001)                 2.924298293668651E+05,      /* J = 13 */
(PID.TID 0000.0001)                 2.963715635865306E+05,      /* J = 14 */
(PID.TID 0000.0001)                 2.991805843171258E+05,      /* J = 15 */
(PID.TID 0000.0001)                 3.008638765647886E+05,      /* J = 16 */
(PID.TID 0000.0001)                 3.014246674484008E+05,      /* J = 17 */
(PID.TID 0000.0001)                 3.008638765647886E+05,      /* J = 18 */
(PID.TID 0000.0001)                 2.991805843171258E+05,      /* J = 19 */
(PID.TID 0000.0001)                 2.963715635865306E+05,      /* J = 20 */
(PID.TID 0000.0001)                 2.924298293668651E+05,      /* J = 21 */
(PID.TID 0000.0001)                 2.873420591008078E+05,      /* J = 22 */
(PID.TID 0000.0001)                 2.810845823202647E+05,      /* J = 23 */
(PID.TID 0000.0001)                 2.736173771018112E+05,      /* J = 24 */
(PID.TID 0000.0001)                 2.648750305193301E+05,      /* J = 25 */
(PID.TID 0000.0001)                 2.547526806712889E+05,      /* J = 26 */
(PID.TID 0000.0001)                 2.430829951739083E+05,      /* J = 27 */
(PID.TID 0000.0001)                 2.295958105911512E+05,      /* J = 28 */
(PID.TID 0000.0001)                 2.138410773065497E+05,      /* J = 29 */
(PID.TID 0000.0001)                 1.950254041626018E+05,      /* J = 30 */
(PID.TID 0000.0001)                 1.716197227386011E+05,      /* J = 31 */
(PID.TID 0000.0001)                 1.403701524205398E+05       /* J = 32 */
(PID.TID 0000.0001)     ;
(PID.TID 0000.0001) dyG =  /* dyG(:,1,:,1) ( units: m ) */
(PID.TID 0000.0001)                 1.009837800879055E+05,      /* I =  1 */
(PID.TID 0000.0001)                 1.403701524205398E+05,      /* I =  2 */
(PID.TID 0000.0001)                 1.716197227386011E+05,      /* I =  3 */
(PID.TID 0000.0001)                 1.950254041626018E+05,      /* I =  4 */
(PID.TID 0000.0001)                 2.138410773065497E+05,      /* I =  5 */
(PID.TID 0000.0001)                 2.295958105911512E+05,      /* I =  6 */
(PID.TID 0000.0001)                 2.430829951739083E+05,      /* I =  7 */
(PID.TID 0000.0001)                 2.547526806712889E+05,      /* I =  8 */
(PID.TID 0000.0001)                 2.648750305193301E+05,      /* I =  9 */
(PID.TID 0000.0001)                 2.736173771018112E+05,      /* I = 10 */
(PID.TID 0000.0001)                 2.810845823202647E+05,      /* I = 11 */
(PID.TID 0000.0001)                 2.873420591008078E+05,      /* I = 12 */
(PID.TID 0000.0001)                 2.924298293668651E+05,      /* I = 13 */
(PID.TID 0000.0001)                 2.963715635865306E+05,      /* I = 14 */
(PID.TID 0000.0001)                 2.991805843171258E+05,      /* I = 15 */
(PID.TID 0000.0001)                 3.008638765647886E+05,      /* I = 16 */
(PID.TID 0000.0001)                 3.014246674484008E+05,      /* I = 17 */
(PID.TID 0000.0001)                 3.008638765647886E+05,      /* I = 18 */
(PID.TID 0000.0001)                 2.991805843171258E+05,      /* I = 19 */
(PID.TID 0000.0001)                 2.963715635865306E+05,      /* I = 20 */
(PID.TID 0000.0001)                 2.924298293668651E+05,      /* I = 21 */
(PID.TID 0000.0001)                 2.873420591008078E+05,      /* I = 22 */
(PID.TID 0000.0001)                 2.810845823202647E+05,      /* I = 23 */
(PID.TID 0000.0001)                 2.736173771018112E+05,      /* I = 24 */
(PID.TID 0000.0001)                 2.648750305193301E+05,      /* I = 25 */
(PID.TID 0000.0001)                 2.547526806712889E+05,      /* I = 26 */
(PID.TID 0000.0001)                 2.430829951739083E+05,      /* I = 27 */
(PID.TID 0000.0001)                 2.295958105911512E+05,      /* I = 28 */
(PID.TID 0000.0001)                 2.138410773065497E+05,      /* I = 29 */
(PID.TID 0000.0001)                 1.950254041626018E+05,      /* I = 30 */
(PID.TID 0000.0001)                 1.716197227386011E+05,      /* I = 31 */
(PID.TID 0000.0001)                 1.403701524205398E+05       /* I = 32 */
(PID.TID 0000.0001)     ;
(PID.TID 0000.0001) dyG =  /* dyG(1,:,1,:) ( units: m ) */
(PID.TID 0000.0001)                 1.009837800879055E+05,      /* J =  1 */
(PID.TID 0000.0001)                 1.534505834330338E+05,      /* J =  2 */
(PID.TID 0000.0001)                 1.823321598773926E+05,      /* J =  3 */
(PID.TID 0000.0001)                 2.038999045536999E+05,      /* J =  4 */
(PID.TID 0000.0001)                 2.213884732245467E+05,      /* J =  5 */
(PID.TID 0000.0001)                 2.361211699596122E+05,      /* J =  6 */
(PID.TID 0000.0001)                 2.487693460283865E+05,      /* J =  7 */
(PID.TID 0000.0001)                 2.597126963772147E+05,      /* J =  8 */
(PID.TID 0000.0001)                 2.691790288994575E+05,      /* J =  9 */
(PID.TID 0000.0001)                 2.773091043277394E+05,      /* J = 10 */
(PID.TID 0000.0001)                 2.841906470085516E+05,      /* J = 11 */
(PID.TID 0000.0001)                 2.898778860929753E+05,      /* J = 12 */
(PID.TID 0000.0001)                 2.944035815526416E+05,      /* J = 13 */
(PID.TID 0000.0001)                 2.977867909042096E+05,      /* J = 14 */
(PID.TID 0000.0001)                 3.000380090330854E+05,      /* J = 15 */
(PID.TID 0000.0001)     2 @  3.011625828699101E+05,             /* J = 16: 17 */
(PID.TID 0000.0001)                 3.000380090330854E+05,      /* J = 18 */
(PID.TID 0000.0001)                 2.977867909042096E+05,      /* J = 19 */
(PID.TID 0000.0001)                 2.944035815526416E+05,      /* J = 20 */
(PID.TID 0000.0001)                 2.898778860929753E+05,      /* J = 21 */
(PID.TID 0000.0001)                 2.841906470085516E+05,      /* J = 22 */
(PID.TID 0000.0001)                 2.773091043277394E+05,      /* J = 23 */
(PID.TID 0000.0001)                 2.691790288994575E+05,      /* J = 24 */
(PID.TID 0000.0001)                 2.597126963772147E+05,      /* J = 25 */
(PID.TID 0000.0001)                 2.487693460283865E+05,      /* J = 26 */
(PID.TID 0000.0001)                 2.361211699596122E+05,      /* J = 27 */
(PID.TID 0000.0001)                 2.213884732245467E+05,      /* J = 28 */
(PID.TID 0000.0001)                 2.038999045536999E+05,      /* J = 29 */
(PID.TID 0000.0001)                 1.823321598773926E+05,      /* J = 30 */
(PID.TID 0000.0001)                 1.534505834330338E+05,      /* J = 31 */
(PID.TID 0000.0001)                 1.009837800879055E+05       /* J = 32 */
(PID.TID 0000.0001)     ;
(PID.TID 0000.0001) dxC =  /* dxC(:,1,:,1) ( units: m ) */
(PID.TID 0000.0001)                 1.114203141013064E+05,      /* I =  1 */
(PID.TID 0000.0001)                 1.391343389937106E+05,      /* I =  2 */
(PID.TID 0000.0001)                 1.709574999026266E+05,      /* I =  3 */
(PID.TID 0000.0001)                 1.946503699269892E+05,      /* I =  4 */
(PID.TID 0000.0001)                 2.135964483342134E+05,      /* I =  5 */
(PID.TID 0000.0001)                 2.294195678257306E+05,      /* I =  6 */
(PID.TID 0000.0001)                 2.429464709770498E+05,      /* I =  7 */
(PID.TID 0000.0001)                 2.546408290696998E+05,      /* I =  8 */
(PID.TID 0000.0001)                 2.647791839299727E+05,      /* I =  9 */
(PID.TID 0000.0001)                 2.735321911346108E+05,      /* I = 10 */
(PID.TID 0000.0001)                 2.810065951609633E+05,      /* I = 11 */
(PID.TID 0000.0001)                 2.872689479506990E+05,      /* I = 12 */
(PID.TID 0000.0001)                 2.923599955312932E+05,      /* I = 13 */
(PID.TID 0000.0001)                 2.963038832565530E+05,      /* I = 14 */
(PID.TID 0000.0001)                 2.991142470004740E+05,      /* I = 15 */
(PID.TID 0000.0001)                 3.007982711627968E+05,      /* I = 16 */
(PID.TID 0000.0001)                 3.013593857228136E+05,      /* I = 17 */
(PID.TID 0000.0001)                 3.007982711627968E+05,      /* I = 18 */
(PID.TID 0000.0001)                 2.991142470004740E+05,      /* I = 19 */
(PID.TID 0000.0001)                 2.963038832565530E+05,      /* I = 20 */
(PID.TID 0000.0001)                 2.923599955312932E+05,      /* I = 21 */
(PID.TID 0000.0001)                 2.872689479506990E+05,      /* I = 22 */
(PID.TID 0000.0001)                 2.810065951609633E+05,      /* I = 23 */
(PID.TID 0000.0001)                 2.735321911346108E+05,      /* I = 24 */
(PID.TID 0000.0001)                 2.647791839299727E+05,      /* I = 25 */
(PID.TID 0000.0001)                 2.546408290696998E+05,      /* I = 26 */
(PID.TID 0000.0001)                 2.429464709770498E+05,      /* I = 27 */
(PID.TID 0000.0001)                 2.294195678257306E+05,      /* I = 28 */
(PID.TID 0000.0001)                 2.135964483342134E+05,      /* I = 29 */
(PID.TID 0000.0001)                 1.946503699269892E+05,      /* I = 30 */
(PID.TID 0000.0001)                 1.709574999026266E+05,      /* I = 31 */
(PID.TID 0000.0001)                 1.391343389937106E+05       /* I = 32 */
(PID.TID 0000.0001)     ;
(PID.TID 0000.0001) dxC =  /* dxC(1,:,1,:) ( units: m ) */
(PID.TID 0000.0001)                 1.114203141013064E+05,      /* J =  1 */
(PID.TID 0000.0001)                 1.549545757850771E+05,      /* J =  2 */
(PID.TID 0000.0001)                 1.829777599966776E+05,      /* J =  3 */
(PID.TID 0000.0001)                 2.042717761866506E+05,      /* J =  4 */
(PID.TID 0000.0001)                 2.216367828252819E+05,      /* J =  5 */
(PID.TID 0000.0001)                 2.363029564123586E+05,      /* J =  6 */
(PID.TID 0000.0001)                 2.489113743322025E+05,      /* J =  7 */
(PID.TID 0000.0001)                 2.598293319150326E+05,      /* J =  8 */
(PID.TID 0000.0001)                 2.692787333338535E+05,      /* J =  9 */
(PID.TID 0000.0001)                 2.773972106720365E+05,      /* J = 10 */
(PID.TID 0000.0001)                 2.842706922224557E+05,      /* J = 11 */
(PID.TID 0000.0001)                 2.899523122489403E+05,      /* J = 12 */
(PID.TID 0000.0001)                 2.944741346384699E+05,      /* J = 13 */
(PID.TID 0000.0001)                 2.978547649292580E+05,      /* J = 14 */
(PID.TID 0000.0001)                 3.001044073506459E+05,      /* J = 15 */
(PID.TID 0000.0001)     2 @  3.012281885409289E+05,             /* J = 16: 17 */
(PID.TID 0000.0001)                 3.001044073506459E+05,      /* J = 18 */
(PID.TID 0000.0001)                 2.978547649292580E+05,      /* J = 19 */
(PID.TID 0000.0001)                 2.944741346384699E+05,      /* J = 20 */
(PID.TID 0000.0001)                 2.899523122489403E+05,      /* J = 21 */
(PID.TID 0000.0001)                 2.842706922224557E+05,      /* J = 22 */
(PID.TID 0000.0001)                 2.773972106720365E+05,      /* J = 23 */
(PID.TID 0000.0001)                 2.692787333338535E+05,      /* J = 24 */
(PID.TID 0000.0001)                 2.598293319150326E+05,      /* J = 25 */
(PID.TID 0000.0001)                 2.489113743322025E+05,      /* J = 26 */
(PID.TID 0000.0001)                 2.363029564123586E+05,      /* J = 27 */
(PID.TID 0000.0001)                 2.216367828252819E+05,      /* J = 28 */
(PID.TID 0000.0001)                 2.042717761866506E+05,      /* J = 29 */
(PID.TID 0000.0001)                 1.829777599966776E+05,      /* J = 30 */
(PID.TID 0000.0001)                 1.549545757850771E+05,      /* J = 31 */
(PID.TID 0000.0001)                 1.114203141013064E+05       /* J = 32 */
(PID.TID 0000.0001)     ;
(PID.TID 0000.0001) dyC =  /* dyC(:,1,:,1) ( units: m ) */
(PID.TID 0000.0001)                 1.114203141013064E+05,      /* I =  1 */
(PID.TID 0000.0001)                 1.549545757850771E+05,      /* I =  2 */
(PID.TID 0000.0001)                 1.829777599966776E+05,      /* I =  3 */
(PID.TID 0000.0001)                 2.042717761866506E+05,      /* I =  4 */
(PID.TID 0000.0001)                 2.216367828252819E+05,      /* I =  5 */
(PID.TID 0000.0001)                 2.363029564123586E+05,      /* I =  6 */
(PID.TID 0000.0001)                 2.489113743322025E+05,      /* I =  7 */
(PID.TID 0000.0001)                 2.598293319150326E+05,      /* I =  8 */
(PID.TID 0000.0001)                 2.692787333338535E+05,      /* I =  9 */
(PID.TID 0000.0001)                 2.773972106720365E+05,      /* I = 10 */
(PID.TID 0000.0001)                 2.842706922224557E+05,      /* I = 11 */
(PID.TID 0000.0001)                 2.899523122489403E+05,      /* I = 12 */
(PID.TID 0000.0001)                 2.944741346384699E+05,      /* I = 13 */
(PID.TID 0000.0001)                 2.978547649292580E+05,      /* I = 14 */
(PID.TID 0000.0001)                 3.001044073506459E+05,      /* I = 15 */
(PID.TID 0000.0001)     2 @  3.012281885409289E+05,             /* I = 16: 17 */
(PID.TID 0000.0001)                 3.001044073506459E+05,      /* I = 18 */
(PID.TID 0000.0001)                 2.978547649292580E+05,      /* I = 19 */
(PID.TID 0000.0001)                 2.944741346384699E+05,      /* I = 20 */
(PID.TID 0000.0001)                 2.899523122489403E+05,      /* I = 21 */
(PID.TID 0000.0001)                 2.842706922224557E+05,      /* I = 22 */
(PID.TID 0000.0001)                 2.773972106720365E+05,      /* I = 23 */
(PID.TID 0000.0001)                 2.692787333338535E+05,      /* I = 24 */
(PID.TID 0000.0001)                 2.598293319150326E+05,      /* I = 25 */
(PID.TID 0000.0001)                 2.489113743322025E+05,      /* I = 26 */
(PID.TID 0000.0001)                 2.363029564123586E+05,      /* I = 27 */
(PID.TID 0000.0001)                 2.216367828252819E+05,      /* I = 28 */
(PID.TID 0000.0001)                 2.042717761866506E+05,      /* I = 29 */
(PID.TID 0000.0001)                 1.829777599966776E+05,      /* I = 30 */
(PID.TID 0000.0001)                 1.549545757850771E+05,      /* I = 31 */
(PID.TID 0000.0001)                 1.114203141013064E+05       /* I = 32 */
(PID.TID 0000.0001)     ;
(PID.TID 0000.0001) dyC =  /* dyC(1,:,1,:) ( units: m ) */
(PID.TID 0000.0001)                 1.114203141013064E+05,      /* J =  1 */
(PID.TID 0000.0001)                 1.391343389937106E+05,      /* J =  2 */
(PID.TID 0000.0001)                 1.709574999026266E+05,      /* J =  3 */
(PID.TID 0000.0001)                 1.946503699269892E+05,      /* J =  4 */
(PID.TID 0000.0001)                 2.135964483342134E+05,      /* J =  5 */
(PID.TID 0000.0001)                 2.294195678257306E+05,      /* J =  6 */
(PID.TID 0000.0001)                 2.429464709770498E+05,      /* J =  7 */
(PID.TID 0000.0001)                 2.546408290696998E+05,      /* J =  8 */
(PID.TID 0000.0001)                 2.647791839299727E+05,      /* J =  9 */
(PID.TID 0000.0001)                 2.735321911346108E+05,      /* J = 10 */
(PID.TID 0000.0001)                 2.810065951609633E+05,      /* J = 11 */
(PID.TID 0000.0001)                 2.872689479506990E+05,      /* J = 12 */
(PID.TID 0000.0001)                 2.923599955312932E+05,      /* J = 13 */
(PID.TID 0000.0001)                 2.963038832565530E+05,      /* J = 14 */
(PID.TID 0000.0001)                 2.991142470004740E+05,      /* J = 15 */
(PID.TID 0000.0001)                 3.007982711627968E+05,      /* J = 16 */
(PID.TID 0000.0001)                 3.013593857228136E+05,      /* J = 17 */
(PID.TID 0000.0001)                 3.007982711627968E+05,      /* J = 18 */
(PID.TID 0000.0001)                 2.991142470004740E+05,      /* J = 19 */
(PID.TID 0000.0001)                 2.963038832565530E+05,      /* J = 20 */
(PID.TID 0000.0001)                 2.923599955312932E+05,      /* J = 21 */
(PID.TID 0000.0001)                 2.872689479506990E+05,      /* J = 22 */
(PID.TID 0000.0001)                 2.810065951609633E+05,      /* J = 23 */
(PID.TID 0000.0001)                 2.735321911346108E+05,      /* J = 24 */
(PID.TID 0000.0001)                 2.647791839299727E+05,      /* J = 25 */
(PID.TID 0000.0001)                 2.546408290696998E+05,      /* J = 26 */
(PID.TID 0000.0001)                 2.429464709770498E+05,      /* J = 27 */
(PID.TID 0000.0001)                 2.294195678257306E+05,      /* J = 28 */
(PID.TID 0000.0001)                 2.135964483342134E+05,      /* J = 29 */
(PID.TID 0000.0001)                 1.946503699269892E+05,      /* J = 30 */
(PID.TID 0000.0001)                 1.709574999026266E+05,      /* J = 31 */
(PID.TID 0000.0001)                 1.391343389937106E+05       /* J = 32 */
(PID.TID 0000.0001)     ;
(PID.TID 0000.0001) dxV =  /* dxV(:,1,:,1) ( units: m ) */
(PID.TID 0000.0001)                 8.015229982413632E+04,      /* I =  1 */
(PID.TID 0000.0001)                 1.333130744933864E+05,      /* I =  2 */
(PID.TID 0000.0001)                 1.691744868129062E+05,      /* I =  3 */
(PID.TID 0000.0001)                 1.937548202849060E+05,      /* I =  4 */
(PID.TID 0000.0001)                 2.130490056267208E+05,      /* I =  5 */
(PID.TID 0000.0001)                 2.290479919481738E+05,      /* I =  6 */
(PID.TID 0000.0001)                 2.426774358027003E+05,      /* I =  7 */
(PID.TID 0000.0001)                 2.544372984215561E+05,      /* I =  8 */
(PID.TID 0000.0001)                 2.646201463834826E+05,      /* I =  9 */
(PID.TID 0000.0001)                 2.734046499619031E+05,      /* I = 10 */
(PID.TID 0000.0001)                 2.809019351693761E+05,      /* I = 11 */
(PID.TID 0000.0001)                 2.871811105274442E+05,      /* I = 12 */
(PID.TID 0000.0001)                 2.922844849381675E+05,      /* I = 13 */
(PID.TID 0000.0001)                 2.962371870847826E+05,      /* I = 14 */
(PID.TID 0000.0001)                 2.990534755671296E+05,      /* I = 15 */
(PID.TID 0000.0001)                 3.007409169495504E+05,      /* I = 16 */
(PID.TID 0000.0001)                 3.013031486919771E+05,      /* I = 17 */
(PID.TID 0000.0001)                 3.007409169495504E+05,      /* I = 18 */
(PID.TID 0000.0001)                 2.990534755671296E+05,      /* I = 19 */
(PID.TID 0000.0001)                 2.962371870847826E+05,      /* I = 20 */
(PID.TID 0000.0001)                 2.922844849381675E+05,      /* I = 21 */
(PID.TID 0000.0001)                 2.871811105274442E+05,      /* I = 22 */
(PID.TID 0000.0001)                 2.809019351693761E+05,      /* I = 23 */
(PID.TID 0000.0001)                 2.734046499619031E+05,      /* I = 24 */
(PID.TID 0000.0001)                 2.646201463834826E+05,      /* I = 25 */
(PID.TID 0000.0001)                 2.544372984215561E+05,      /* I = 26 */
(PID.TID 0000.0001)                 2.426774358027003E+05,      /* I = 27 */
(PID.TID 0000.0001)                 2.290479919481738E+05,      /* I = 28 */
(PID.TID 0000.0001)                 2.130490056267208E+05,      /* I = 29 */
(PID.TID 0000.0001)                 1.937548202849060E+05,      /* I = 30 */
(PID.TID 0000.0001)                 1.691744868129062E+05,      /* I = 31 */
(PID.TID 0000.0001)                 1.333130744933864E+05       /* I = 32 */
(PID.TID 0000.0001)     ;
(PID.TID 0000.0001) dxV =  /* dxV(1,:,1,:) ( units: m ) */
(PID.TID 0000.0001)                 8.015229982413632E+04,      /* J =  1 */
(PID.TID 0000.0001)                 1.362652340208229E+05,      /* J =  2 */
(PID.TID 0000.0001)                 1.701080315742101E+05,      /* J =  3 */
(PID.TID 0000.0001)                 1.942331448101592E+05,      /* J =  4 */
(PID.TID 0000.0001)                 2.133486626971531E+05,      /* J =  5 */
(PID.TID 0000.0001)                 2.292584591272880E+05,      /* J =  6 */
(PID.TID 0000.0001)                 2.428369969078989E+05,      /* J =  7 */
(PID.TID 0000.0001)                 2.545652950875683E+05,      /* J =  8 */
(PID.TID 0000.0001)                 2.647274964828301E+05,      /* J =  9 */
(PID.TID 0000.0001)                 2.734980225206389E+05,      /* J = 10 */
(PID.TID 0000.0001)                 2.809856491525217E+05,      /* J = 11 */
(PID.TID 0000.0001)                 2.872580915202295E+05,      /* J = 12 */
(PID.TID 0000.0001)                 2.923567890694162E+05,      /* J = 13 */
(PID.TID 0000.0001)                 2.963063101754721E+05,      /* J = 14 */
(PID.TID 0000.0001)                 2.991205495886625E+05,      /* J = 15 */
(PID.TID 0000.0001)                 3.008068453676764E+05,      /* J = 16 */
(PID.TID 0000.0001)                 3.013686170436881E+05,      /* J = 17 */
(PID.TID 0000.0001)                 3.008068453676764E+05,      /* J = 18 */
(PID.TID 0000.0001)                 2.991205495886625E+05,      /* J = 19 */
(PID.TID 0000.0001)                 2.963063101754721E+05,      /* J = 20 */
(PID.TID 0000.0001)                 2.923567890694162E+05,      /* J = 21 */
(PID.TID 0000.0001)                 2.872580915202295E+05,      /* J = 22 */
(PID.TID 0000.0001)                 2.809856491525217E+05,      /* J = 23 */
(PID.TID 0000.0001)                 2.734980225206389E+05,      /* J = 24 */
(PID.TID 0000.0001)                 2.647274964828301E+05,      /* J = 25 */
(PID.TID 0000.0001)                 2.545652950875683E+05,      /* J = 26 */
(PID.TID 0000.0001)                 2.428369969078989E+05,      /* J = 27 */
(PID.TID 0000.0001)                 2.292584591272880E+05,      /* J = 28 */
(PID.TID 0000.0001)                 2.133486626971531E+05,      /* J = 29 */
(PID.TID 0000.0001)                 1.942331448101592E+05,      /* J = 30 */
(PID.TID 0000.0001)                 1.701080315742101E+05,      /* J = 31 */
(PID.TID 0000.0001)                 1.362652340208229E+05       /* J = 32 */
(PID.TID 0000.0001)     ;
(PID.TID 0000.0001) dyU =  /* dyU(:,1,:,1) ( units: m ) */
(PID.TID 0000.0001)                 8.015229982413632E+04,      /* I =  1 */
(PID.TID 0000.0001)                 1.362652340208229E+05,      /* I =  2 */
(PID.TID 0000.0001)                 1.701080315742101E+05,      /* I =  3 */
(PID.TID 0000.0001)                 1.942331448101592E+05,      /* I =  4 */
(PID.TID 0000.0001)                 2.133486626971531E+05,      /* I =  5 */
(PID.TID 0000.0001)                 2.292584591272880E+05,      /* I =  6 */
(PID.TID 0000.0001)                 2.428369969078989E+05,      /* I =  7 */
(PID.TID 0000.0001)                 2.545652950875683E+05,      /* I =  8 */
(PID.TID 0000.0001)                 2.647274964828301E+05,      /* I =  9 */
(PID.TID 0000.0001)                 2.734980225206389E+05,      /* I = 10 */
(PID.TID 0000.0001)                 2.809856491525217E+05,      /* I = 11 */
(PID.TID 0000.0001)                 2.872580915202295E+05,      /* I = 12 */
(PID.TID 0000.0001)                 2.923567890694162E+05,      /* I = 13 */
(PID.TID 0000.0001)                 2.963063101754721E+05,      /* I = 14 */
(PID.TID 0000.0001)                 2.991205495886625E+05,      /* I = 15 */
(PID.TID 0000.0001)                 3.008068453676764E+05,      /* I = 16 */
(PID.TID 0000.0001)                 3.013686170436881E+05,      /* I = 17 */
(PID.TID 0000.0001)                 3.008068453676764E+05,      /* I = 18 */
(PID.TID 0000.0001)                 2.991205495886625E+05,      /* I = 19 */
(PID.TID 0000.0001)                 2.963063101754721E+05,      /* I = 20 */
(PID.TID 0000.0001)                 2.923567890694162E+05,      /* I = 21 */
(PID.TID 0000.0001)                 2.872580915202295E+05,      /* I = 22 */
(PID.TID 0000.0001)                 2.809856491525217E+05,      /* I = 23 */
(PID.TID 0000.0001)                 2.734980225206389E+05,      /* I = 24 */
(PID.TID 0000.0001)                 2.647274964828301E+05,      /* I = 25 */
(PID.TID 0000.0001)                 2.545652950875683E+05,      /* I = 26 */
(PID.TID 0000.0001)                 2.428369969078989E+05,      /* I = 27 */
(PID.TID 0000.0001)                 2.292584591272880E+05,      /* I = 28 */
(PID.TID 0000.0001)                 2.133486626971531E+05,      /* I = 29 */
(PID.TID 0000.0001)                 1.942331448101592E+05,      /* I = 30 */
(PID.TID 0000.0001)                 1.701080315742101E+05,      /* I = 31 */
(PID.TID 0000.0001)                 1.362652340208229E+05       /* I = 32 */
(PID.TID 0000.0001)     ;
(PID.TID 0000.0001) dyU =  /* dyU(1,:,1,:) ( units: m ) */
(PID.TID 0000.0001)                 8.015229982413632E+04,      /* J =  1 */
(PID.TID 0000.0001)                 1.333130744933864E+05,      /* J =  2 */
(PID.TID 0000.0001)                 1.691744868129062E+05,      /* J =  3 */
(PID.TID 0000.0001)                 1.937548202849060E+05,      /* J =  4 */
(PID.TID 0000.0001)                 2.130490056267208E+05,      /* J =  5 */
(PID.TID 0000.0001)                 2.290479919481738E+05,      /* J =  6 */
(PID.TID 0000.0001)                 2.426774358027003E+05,      /* J =  7 */
(PID.TID 0000.0001)                 2.544372984215561E+05,      /* J =  8 */
(PID.TID 0000.0001)                 2.646201463834826E+05,      /* J =  9 */
(PID.TID 0000.0001)                 2.734046499619031E+05,      /* J = 10 */
(PID.TID 0000.0001)                 2.809019351693761E+05,      /* J = 11 */
(PID.TID 0000.0001)                 2.871811105274442E+05,      /* J = 12 */
(PID.TID 0000.0001)                 2.922844849381675E+05,      /* J = 13 */
(PID.TID 0000.0001)                 2.962371870847826E+05,      /* J = 14 */
(PID.TID 0000.0001)                 2.990534755671296E+05,      /* J = 15 */
(PID.TID 0000.0001)                 3.007409169495504E+05,      /* J = 16 */
(PID.TID 0000.0001)                 3.013031486919771E+05,      /* J = 17 */
(PID.TID 0000.0001)                 3.007409169495504E+05,      /* J = 18 */
(PID.TID 0000.0001)                 2.990534755671296E+05,      /* J = 19 */
(PID.TID 0000.0001)                 2.962371870847826E+05,      /* J = 20 */
(PID.TID 0000.0001)                 2.922844849381675E+05,      /* J = 21 */
(PID.TID 0000.0001)                 2.871811105274442E+05,      /* J = 22 */
(PID.TID 0000.0001)                 2.809019351693761E+05,      /* J = 23 */
(PID.TID 0000.0001)                 2.734046499619031E+05,      /* J = 24 */
(PID.TID 0000.0001)                 2.646201463834826E+05,      /* J = 25 */
(PID.TID 0000.0001)                 2.544372984215561E+05,      /* J = 26 */
(PID.TID 0000.0001)                 2.426774358027003E+05,      /* J = 27 */
(PID.TID 0000.0001)                 2.290479919481738E+05,      /* J = 28 */
(PID.TID 0000.0001)                 2.130490056267208E+05,      /* J = 29 */
(PID.TID 0000.0001)                 1.937548202849060E+05,      /* J = 30 */
(PID.TID 0000.0001)                 1.691744868129062E+05,      /* J = 31 */
(PID.TID 0000.0001)                 1.333130744933864E+05       /* J = 32 */
(PID.TID 0000.0001)     ;
(PID.TID 0000.0001) rA  =  /* rA (:,1,:,1) ( units: m^2 ) */
(PID.TID 0000.0001)                 1.401900702255611E+10,      /* I =  1 */
(PID.TID 0000.0001)                 2.459906945574446E+10,      /* I =  2 */
(PID.TID 0000.0001)                 3.378518544307869E+10,      /* I =  3 */
(PID.TID 0000.0001)                 4.192037169898667E+10,      /* I =  4 */
(PID.TID 0000.0001)                 4.925938996118163E+10,      /* I =  5 */
(PID.TID 0000.0001)                 5.594154126607553E+10,      /* I =  6 */
(PID.TID 0000.0001)                 6.203683527772523E+10,      /* I =  7 */
(PID.TID 0000.0001)                 6.757541173817516E+10,      /* I =  8 */
(PID.TID 0000.0001)                 7.256353271748119E+10,      /* I =  9 */
(PID.TID 0000.0001)                 7.699293007098555E+10,      /* I = 10 */
(PID.TID 0000.0001)                 8.084683449728902E+10,      /* I = 11 */
(PID.TID 0000.0001)                 8.410423102796223E+10,      /* I = 12 */
(PID.TID 0000.0001)                 8.674306976737517E+10,      /* I = 13 */
(PID.TID 0000.0001)                 8.874277443041928E+10,      /* I = 14 */
(PID.TID 0000.0001)                 9.008620045350865E+10,      /* I = 15 */
(PID.TID 0000.0001)                 9.076111290418457E+10,      /* I = 16 */
(PID.TID 0000.0001)                 9.076111290422060E+10,      /* I = 17 */
(PID.TID 0000.0001)                 9.008620045354469E+10,      /* I = 18 */
(PID.TID 0000.0001)                 8.874277443041928E+10,      /* I = 19 */
(PID.TID 0000.0001)                 8.674306976741121E+10,      /* I = 20 */
(PID.TID 0000.0001)                 8.410423102799828E+10,      /* I = 21 */
(PID.TID 0000.0001)                 8.084683449728902E+10,      /* I = 22 */
(PID.TID 0000.0001)                 7.699293007098555E+10,      /* I = 23 */
(PID.TID 0000.0001)                 7.256353271748119E+10,      /* I = 24 */
(PID.TID 0000.0001)                 6.757541173817516E+10,      /* I = 25 */
(PID.TID 0000.0001)                 6.203683527772523E+10,      /* I = 26 */
(PID.TID 0000.0001)                 5.594154126611156E+10,      /* I = 27 */
(PID.TID 0000.0001)                 4.925938996118163E+10,      /* I = 28 */
(PID.TID 0000.0001)                 4.192037169898667E+10,      /* I = 29 */
(PID.TID 0000.0001)                 3.378518544304265E+10,      /* I = 30 */
(PID.TID 0000.0001)                 2.459906945574446E+10,      /* I = 31 */
(PID.TID 0000.0001)                 1.401900702259215E+10       /* I = 32 */
(PID.TID 0000.0001)     ;
(PID.TID 0000.0001) rA  =  /* rA (1,:,1,:) ( units: m^2 ) */
(PID.TID 0000.0001)                 1.401900702255611E+10,      /* J =  1 */
(PID.TID 0000.0001)                 2.459906945574446E+10,      /* J =  2 */
(PID.TID 0000.0001)                 3.378518544307869E+10,      /* J =  3 */
(PID.TID 0000.0001)                 4.192037169898667E+10,      /* J =  4 */
(PID.TID 0000.0001)                 4.925938996118163E+10,      /* J =  5 */
(PID.TID 0000.0001)                 5.594154126607553E+10,      /* J =  6 */
(PID.TID 0000.0001)                 6.203683527776127E+10,      /* J =  7 */
(PID.TID 0000.0001)                 6.757541173817516E+10,      /* J =  8 */
(PID.TID 0000.0001)                 7.256353271748119E+10,      /* J =  9 */
(PID.TID 0000.0001)                 7.699293007098555E+10,      /* J = 10 */
(PID.TID 0000.0001)                 8.084683449728902E+10,      /* J = 11 */
(PID.TID 0000.0001)                 8.410423102799828E+10,      /* J = 12 */
(PID.TID 0000.0001)                 8.674306976737517E+10,      /* J = 13 */
(PID.TID 0000.0001)                 8.874277443041928E+10,      /* J = 14 */
(PID.TID 0000.0001)                 9.008620045350865E+10,      /* J = 15 */
(PID.TID 0000.0001)                 9.076111290418457E+10,      /* J = 16 */
(PID.TID 0000.0001)                 9.076111290422060E+10,      /* J = 17 */
(PID.TID 0000.0001)                 9.008620045354469E+10,      /* J = 18 */
(PID.TID 0000.0001)                 8.874277443041928E+10,      /* J = 19 */
(PID.TID 0000.0001)                 8.674306976737517E+10,      /* J = 20 */
(PID.TID 0000.0001)                 8.410423102799828E+10,      /* J = 21 */
(PID.TID 0000.0001)                 8.084683449728902E+10,      /* J = 22 */
(PID.TID 0000.0001)                 7.699293007098555E+10,      /* J = 23 */
(PID.TID 0000.0001)                 7.256353271748119E+10,      /* J = 24 */
(PID.TID 0000.0001)                 6.757541173817516E+10,      /* J = 25 */
(PID.TID 0000.0001)                 6.203683527772523E+10,      /* J = 26 */
(PID.TID 0000.0001)                 5.594154126607553E+10,      /* J = 27 */
(PID.TID 0000.0001)                 4.925938996118163E+10,      /* J = 28 */
(PID.TID 0000.0001)                 4.192037169898667E+10,      /* J = 29 */
(PID.TID 0000.0001)                 3.378518544307869E+10,      /* J = 30 */
(PID.TID 0000.0001)                 2.459906945574446E+10,      /* J = 31 */
(PID.TID 0000.0001)                 1.401900702259215E+10       /* J = 32 */
(PID.TID 0000.0001)     ;
(PID.TID 0000.0001) rAw =  /* rAw(:,1,:,1) ( units: m^2 ) */
(PID.TID 0000.0001)                 1.216690346714270E+10,      /* I =  1 */
(PID.TID 0000.0001)                 1.974052138506315E+10,      /* I =  2 */
(PID.TID 0000.0001)                 2.943712825252015E+10,      /* I =  3 */
(PID.TID 0000.0001)                 3.801790263324359E+10,      /* I =  4 */
(PID.TID 0000.0001)                 4.571243814189866E+10,      /* I =  5 */
(PID.TID 0000.0001)                 5.269930713599979E+10,      /* I =  6 */
(PID.TID 0000.0001)                 5.907428494299063E+10,      /* I =  7 */
(PID.TID 0000.0001)                 6.488320895111514E+10,      /* I =  8 */
(PID.TID 0000.0001)                 7.014205907741882E+10,      /* I =  9 */
(PID.TID 0000.0001)                 7.484854821847499E+10,      /* I = 10 */
(PID.TID 0000.0001)                 7.898934631431560E+10,      /* I = 11 */
(PID.TID 0000.0001)                 8.254500894894537E+10,      /* I = 12 */
(PID.TID 0000.0001)                 8.549360686473492E+10,      /* I = 13 */
(PID.TID 0000.0001)                 8.781353403175085E+10,      /* I = 14 */
(PID.TID 0000.0001)                 8.948571540392021E+10,      /* I = 15 */
(PID.TID 0000.0001)                 9.049530583086168E+10,      /* I = 16 */
(PID.TID 0000.0001)                 9.083293515008307E+10,      /* I = 17 */
(PID.TID 0000.0001)                 9.049530583087070E+10,      /* I = 18 */
(PID.TID 0000.0001)                 8.948571540391121E+10,      /* I = 19 */
(PID.TID 0000.0001)                 8.781353403174185E+10,      /* I = 20 */
(PID.TID 0000.0001)                 8.549360686467184E+10,      /* I = 21 */
(PID.TID 0000.0001)                 8.254500894890933E+10,      /* I = 22 */
(PID.TID 0000.0001)                 7.898934631434262E+10,      /* I = 23 */
(PID.TID 0000.0001)                 7.484854821844795E+10,      /* I = 24 */
(PID.TID 0000.0001)                 7.014205907742783E+10,      /* I = 25 */
(PID.TID 0000.0001)                 6.488320895111514E+10,      /* I = 26 */
(PID.TID 0000.0001)                 5.907428494299063E+10,      /* I = 27 */
(PID.TID 0000.0001)                 5.269930713599078E+10,      /* I = 28 */
(PID.TID 0000.0001)                 4.571243814190767E+10,      /* I = 29 */
(PID.TID 0000.0001)                 3.801790263325260E+10,      /* I = 30 */
(PID.TID 0000.0001)                 2.943712825251114E+10,      /* I = 31 */
(PID.TID 0000.0001)                 1.974052138509018E+10       /* I = 32 */
(PID.TID 0000.0001)     ;
(PID.TID 0000.0001) rAw =  /* rAw(1,:,1,:) ( units: m^2 ) */
(PID.TID 0000.0001)                 1.216690346714270E+10,      /* J =  1 */
(PID.TID 0000.0001)                 2.390126200743558E+10,      /* J =  2 */
(PID.TID 0000.0001)                 3.341968103208270E+10,      /* J =  3 */
(PID.TID 0000.0001)                 4.168532893152940E+10,      /* J =  4 */
(PID.TID 0000.0001)                 4.909074590409593E+10,      /* J =  5 */
(PID.TID 0000.0001)                 5.581203765722643E+10,      /* J =  6 */
(PID.TID 0000.0001)                 6.193257577506788E+10,      /* J =  7 */
(PID.TID 0000.0001)                 6.748840226738273E+10,      /* J =  8 */
(PID.TID 0000.0001)                 7.248875782324815E+10,      /* J =  9 */
(PID.TID 0000.0001)                 7.692702995909871E+10,      /* J = 10 */
(PID.TID 0000.0001)                 8.078743937057304E+10,      /* J = 11 */
(PID.TID 0000.0001)                 8.404959656062837E+10,      /* J = 12 */
(PID.TID 0000.0001)                 8.669186205742538E+10,      /* J = 13 */
(PID.TID 0000.0001)                 8.869393350723613E+10,      /* J = 14 */
(PID.TID 0000.0001)                 9.003884657168852E+10,      /* J = 15 */
(PID.TID 0000.0001)     2 @  9.071447638299399E+10,             /* J = 16: 17 */
(PID.TID 0000.0001)                 9.003884657168852E+10,      /* J = 18 */
(PID.TID 0000.0001)                 8.869393350723613E+10,      /* J = 19 */
(PID.TID 0000.0001)                 8.669186205742538E+10,      /* J = 20 */
(PID.TID 0000.0001)                 8.404959656062837E+10,      /* J = 21 */
(PID.TID 0000.0001)                 8.078743937057304E+10,      /* J = 22 */
(PID.TID 0000.0001)                 7.692702995909871E+10,      /* J = 23 */
(PID.TID 0000.0001)                 7.248875782324815E+10,      /* J = 24 */
(PID.TID 0000.0001)                 6.748840226738273E+10,      /* J = 25 */
(PID.TID 0000.0001)                 6.193257577506788E+10,      /* J = 26 */
(PID.TID 0000.0001)                 5.581203765722643E+10,      /* J = 27 */
(PID.TID 0000.0001)                 4.909074590409593E+10,      /* J = 28 */
(PID.TID 0000.0001)                 4.168532893152940E+10,      /* J = 29 */
(PID.TID 0000.0001)                 3.341968103208270E+10,      /* J = 30 */
(PID.TID 0000.0001)                 2.390126200743558E+10,      /* J = 31 */
(PID.TID 0000.0001)                 1.216690346714270E+10       /* J = 32 */
(PID.TID 0000.0001)     ;
(PID.TID 0000.0001) rAs =  /* rAs(:,1,:,1) ( units: m^2 ) */
(PID.TID 0000.0001)                 1.216690346714270E+10,      /* I =  1 */
(PID.TID 0000.0001)                 2.390126200743558E+10,      /* I =  2 */
(PID.TID 0000.0001)                 3.341968103208270E+10,      /* I =  3 */
(PID.TID 0000.0001)                 4.168532893152940E+10,      /* I =  4 */
(PID.TID 0000.0001)                 4.909074590409593E+10,      /* I =  5 */
(PID.TID 0000.0001)                 5.581203765722643E+10,      /* I =  6 */
(PID.TID 0000.0001)                 6.193257577506788E+10,      /* I =  7 */
(PID.TID 0000.0001)                 6.748840226738273E+10,      /* I =  8 */
(PID.TID 0000.0001)                 7.248875782324815E+10,      /* I =  9 */
(PID.TID 0000.0001)                 7.692702995909871E+10,      /* I = 10 */
(PID.TID 0000.0001)                 8.078743937057304E+10,      /* I = 11 */
(PID.TID 0000.0001)                 8.404959656062837E+10,      /* I = 12 */
(PID.TID 0000.0001)                 8.669186205742538E+10,      /* I = 13 */
(PID.TID 0000.0001)                 8.869393350723613E+10,      /* I = 14 */
(PID.TID 0000.0001)                 9.003884657168852E+10,      /* I = 15 */
(PID.TID 0000.0001)     2 @  9.071447638299399E+10,             /* I = 16: 17 */
(PID.TID 0000.0001)                 9.003884657168852E+10,      /* I = 18 */
(PID.TID 0000.0001)                 8.869393350723613E+10,      /* I = 19 */
(PID.TID 0000.0001)                 8.669186205742538E+10,      /* I = 20 */
(PID.TID 0000.0001)                 8.404959656062837E+10,      /* I = 21 */
(PID.TID 0000.0001)                 8.078743937057304E+10,      /* I = 22 */
(PID.TID 0000.0001)                 7.692702995909871E+10,      /* I = 23 */
(PID.TID 0000.0001)                 7.248875782324815E+10,      /* I = 24 */
(PID.TID 0000.0001)                 6.748840226738273E+10,      /* I = 25 */
(PID.TID 0000.0001)                 6.193257577506788E+10,      /* I = 26 */
(PID.TID 0000.0001)                 5.581203765722643E+10,      /* I = 27 */
(PID.TID 0000.0001)                 4.909074590409593E+10,      /* I = 28 */
(PID.TID 0000.0001)                 4.168532893152940E+10,      /* I = 29 */
(PID.TID 0000.0001)                 3.341968103208270E+10,      /* I = 30 */
(PID.TID 0000.0001)                 2.390126200743558E+10,      /* I = 31 */
(PID.TID 0000.0001)                 1.216690346714270E+10       /* I = 32 */
(PID.TID 0000.0001)     ;
(PID.TID 0000.0001) rAs =  /* rAs(1,:,1,:) ( units: m^2 ) */
(PID.TID 0000.0001)                 1.216690346714270E+10,      /* J =  1 */
(PID.TID 0000.0001)                 1.974052138506315E+10,      /* J =  2 */
(PID.TID 0000.0001)                 2.943712825252015E+10,      /* J =  3 */
(PID.TID 0000.0001)                 3.801790263324359E+10,      /* J =  4 */
(PID.TID 0000.0001)                 4.571243814189866E+10,      /* J =  5 */
(PID.TID 0000.0001)                 5.269930713599979E+10,      /* J =  6 */
(PID.TID 0000.0001)                 5.907428494299063E+10,      /* J =  7 */
(PID.TID 0000.0001)                 6.488320895111514E+10,      /* J =  8 */
(PID.TID 0000.0001)                 7.014205907741882E+10,      /* J =  9 */
(PID.TID 0000.0001)                 7.484854821847499E+10,      /* J = 10 */
(PID.TID 0000.0001)                 7.898934631431560E+10,      /* J = 11 */
(PID.TID 0000.0001)                 8.254500894894537E+10,      /* J = 12 */
(PID.TID 0000.0001)                 8.549360686473492E+10,      /* J = 13 */
(PID.TID 0000.0001)                 8.781353403175085E+10,      /* J = 14 */
(PID.TID 0000.0001)                 8.948571540392021E+10,      /* J = 15 */
(PID.TID 0000.0001)                 9.049530583086168E+10,      /* J = 16 */
(PID.TID 0000.0001)                 9.083293515008307E+10,      /* J = 17 */
(PID.TID 0000.0001)                 9.049530583087070E+10,      /* J = 18 */
(PID.TID 0000.0001)                 8.948571540391121E+10,      /* J = 19 */
(PID.TID 0000.0001)                 8.781353403174185E+10,      /* J = 20 */
(PID.TID 0000.0001)                 8.549360686467184E+10,      /* J = 21 */
(PID.TID 0000.0001)                 8.254500894890933E+10,      /* J = 22 */
(PID.TID 0000.0001)                 7.898934631434262E+10,      /* J = 23 */
(PID.TID 0000.0001)                 7.484854821844795E+10,      /* J = 24 */
(PID.TID 0000.0001)                 7.014205907742783E+10,      /* J = 25 */
(PID.TID 0000.0001)                 6.488320895111514E+10,      /* J = 26 */
(PID.TID 0000.0001)                 5.907428494299063E+10,      /* J = 27 */
(PID.TID 0000.0001)                 5.269930713599078E+10,      /* J = 28 */
(PID.TID 0000.0001)                 4.571243814190767E+10,      /* J = 29 */
(PID.TID 0000.0001)                 3.801790263325260E+10,      /* J = 30 */
(PID.TID 0000.0001)                 2.943712825251114E+10,      /* J = 31 */
(PID.TID 0000.0001)                 1.974052138509018E+10       /* J = 32 */
(PID.TID 0000.0001)     ;
(PID.TID 0000.0001) globalArea = /* Integrated horizontal Area (m^2) */
(PID.TID 0000.0001)                 3.638867375081598E+14
(PID.TID 0000.0001)     ;
(PID.TID 0000.0001) hasWetCSCorners = /* Domain contains CS corners (True/False) */
(PID.TID 0000.0001)                   T
(PID.TID 0000.0001)     ;
(PID.TID 0000.0001) // =======================================================
(PID.TID 0000.0001) // End of Model config. summary
(PID.TID 0000.0001) // =======================================================
(PID.TID 0000.0001) 
(PID.TID 0000.0001) == Packages configuration : Check & print summary ==
(PID.TID 0000.0001) 
(PID.TID 0000.0001) GMREDI_CHECK: #define GMREDI
(PID.TID 0000.0001) GM_AdvForm =     /* if FALSE => use SkewFlux Form */
(PID.TID 0000.0001)                   F
(PID.TID 0000.0001)     ;
(PID.TID 0000.0001) GM_InMomAsStress = /* if TRUE => apply as Eddy Stress */
(PID.TID 0000.0001)                   F
(PID.TID 0000.0001)     ;
(PID.TID 0000.0001) GM_AdvSeparate = /* Calc Bolus & Euler Adv. separately */
(PID.TID 0000.0001)                   F
(PID.TID 0000.0001)     ;
(PID.TID 0000.0001) GM_ExtraDiag =   /* Tensor Extra Diag (line 1&2) non 0 */
(PID.TID 0000.0001)                   F
(PID.TID 0000.0001)     ;
(PID.TID 0000.0001) GM_isopycK =    /* Background Isopyc. Diffusivity [m^2/s] */
(PID.TID 0000.0001)                 8.000000000000000E+02
(PID.TID 0000.0001)     ;
(PID.TID 0000.0001) GM_skewflx*K =  /* Background GM_SkewFlx Diffusivity [m^2/s] */
(PID.TID 0000.0001)                 8.000000000000000E+02
(PID.TID 0000.0001)     ;
(PID.TID 0000.0001) GM_advec*K =    /* Backg. GM-Advec(=Bolus) Diffusivity [m^2/s]*/
(PID.TID 0000.0001)                 0.000000000000000E+00
(PID.TID 0000.0001)     ;
(PID.TID 0000.0001) GM_Kmin_horiz = /* Minimum Horizontal Diffusivity [m^2/s] */
(PID.TID 0000.0001)                 5.000000000000000E+01
(PID.TID 0000.0001)     ;
(PID.TID 0000.0001) GM_Visbeck_alpha = /* Visbeck alpha coeff. [-] */
(PID.TID 0000.0001)                 0.000000000000000E+00
(PID.TID 0000.0001)     ;
(PID.TID 0000.0001) GM_Small_Number =  /* epsilon used in slope calc */
(PID.TID 0000.0001)                 9.999999999999999E-21
(PID.TID 0000.0001)     ;
(PID.TID 0000.0001) GM_slopeSqCutoff = /* Slope^2 cut-off value */
(PID.TID 0000.0001)                 1.000000000000000E+48
(PID.TID 0000.0001)     ;
(PID.TID 0000.0001) GM_taper_scheme =  /* Type of Tapering/Clipping scheme */
(PID.TID 0000.0001)               'gkw91                                   '
(PID.TID 0000.0001)     ;
(PID.TID 0000.0001) GM_maxSlope =  /* Maximum Slope (Tapering/Clipping) */
(PID.TID 0000.0001)                 1.000000000000000E-02
(PID.TID 0000.0001)     ;
(PID.TID 0000.0001) GM_facTrL2dz = /* Minimum Trans.Layer Thick. (factor of dz) */
(PID.TID 0000.0001)                 1.000000000000000E+00
(PID.TID 0000.0001)     ;
(PID.TID 0000.0001) GM_facTrL2ML = /* Max.Trans.Layer Thick. (factor of MxL Depth)*/
(PID.TID 0000.0001)                 5.000000000000000E+00
(PID.TID 0000.0001)     ;
(PID.TID 0000.0001) GM_maxTransLay = /* Maximum Transition Layer Thickness [m] */
(PID.TID 0000.0001)                 5.000000000000000E+02
(PID.TID 0000.0001)     ;
(PID.TID 0000.0001) GM_UseBVP = /* if TRUE => use bvp a la Ferrari et al. (2010) */
(PID.TID 0000.0001)                   F
(PID.TID 0000.0001)     ;
(PID.TID 0000.0001) GM_BVP_ModeNumber = /* Vertical mode number for BVP wave speed */
(PID.TID 0000.0001)                       1
(PID.TID 0000.0001)     ;
(PID.TID 0000.0001) GM_BVP_cMin = /* Minimum wave speed for BVP [m/s] */
(PID.TID 0000.0001)                 1.000000000000000E-01
(PID.TID 0000.0001)     ;
(PID.TID 0000.0001) GM_useSubMeso = /* if TRUE => use Sub-Meso param. (B.Fox-Kemper) */
(PID.TID 0000.0001)                   F
(PID.TID 0000.0001)     ;
(PID.TID 0000.0001) subMeso_Ceff = /* efficiency coeff. of Mixed-Layer Eddies [-] */
(PID.TID 0000.0001)                 7.000000000000001E-02
(PID.TID 0000.0001)     ;
(PID.TID 0000.0001) subMeso_invTau = /* inverse of Sub-Meso mixing time-scale [/s] */
(PID.TID 0000.0001)                 2.000000000000000E-06
(PID.TID 0000.0001)     ;
(PID.TID 0000.0001) subMeso_LfMin = /* minimum length-scale "Lf" [m] */
(PID.TID 0000.0001)                 1.000000000000000E+03
(PID.TID 0000.0001)     ;
(PID.TID 0000.0001) subMeso_Lmax = /* maximum grid-scale length [m] */
(PID.TID 0000.0001)                 1.100000000000000E+05
(PID.TID 0000.0001)     ;
(PID.TID 0000.0001) GAD_CHECK: #define ALLOW_GENERIC_ADVDIFF
(PID.TID 0000.0001) // =======================================================
(PID.TID 0000.0001) // Check Model config. (CONFIG_CHECK):
(PID.TID 0000.0001) // CONFIG_CHECK : Normal End
(PID.TID 0000.0001) // =======================================================
(PID.TID 0000.0001) 
(PID.TID 0000.0001)  MDS_READ_META: opening file: pickup.0000072000.meta
(PID.TID 0000.0001)  nRecords = 123 ; filePrec =  64 ; fileIter =     72000
(PID.TID 0000.0001)     nDims =   2 , dims:
(PID.TID 0000.0001)    1: 192   1 192
(PID.TID 0000.0001)    2:  32   1  32
(PID.TID 0000.0001)     nFlds =  11 , nFl3D =   8 , fields:
(PID.TID 0000.0001)  >Uvel    < >GuNm1   < >Vvel    < >GvNm1   < >Theta   < >GtNm1   < >Salt    < >GsNm1   < >EtaN    < >dEtaHdt < >EtaH    <
(PID.TID 0000.0001) missingVal=  1.00000000000000E+00 ; nTimRec =   0 , timeList:
(PID.TID 0000.0001) READ_MFLDS_3D_RL: read field: "Uvel    ", #   1 in fldList, rec=   1
(PID.TID 0000.0001)  MDS_READ_FIELD: opening global file: pickup.0000072000
(PID.TID 0000.0001) READ_MFLDS_3D_RL: read field: "Vvel    ", #   3 in fldList, rec=   3
(PID.TID 0000.0001)  MDS_READ_FIELD: opening global file: pickup.0000072000
(PID.TID 0000.0001) READ_MFLDS_3D_RL: read field: "Theta   ", #   5 in fldList, rec=   5
(PID.TID 0000.0001)  MDS_READ_FIELD: opening global file: pickup.0000072000
(PID.TID 0000.0001) READ_MFLDS_3D_RL: read field: "Salt    ", #   7 in fldList, rec=   7
(PID.TID 0000.0001)  MDS_READ_FIELD: opening global file: pickup.0000072000
(PID.TID 0000.0001) READ_MFLDS_3D_RL: read field: "GuNm1   ", #   2 in fldList, rec=   2
(PID.TID 0000.0001)  MDS_READ_FIELD: opening global file: pickup.0000072000
(PID.TID 0000.0001) READ_MFLDS_3D_RL: read field: "GvNm1   ", #   4 in fldList, rec=   4
(PID.TID 0000.0001)  MDS_READ_FIELD: opening global file: pickup.0000072000
(PID.TID 0000.0001) READ_MFLDS_3D_RL: read field: "GtNm1   ", #   6 in fldList, rec=   6
(PID.TID 0000.0001)  MDS_READ_FIELD: opening global file: pickup.0000072000
(PID.TID 0000.0001) READ_MFLDS_3D_RL: read field: "GsNm1   ", #   8 in fldList, rec=   8
(PID.TID 0000.0001)  MDS_READ_FIELD: opening global file: pickup.0000072000
(PID.TID 0000.0001) READ_MFLDS_3D_RL: read field: "EtaN    ", #   9 in fldList, rec= 121
(PID.TID 0000.0001)  MDS_READ_FIELD: opening global file: pickup.0000072000
(PID.TID 0000.0001) READ_MFLDS_3D_RL: read field: "dEtaHdt ", #  10 in fldList, rec= 122
(PID.TID 0000.0001)  MDS_READ_FIELD: opening global file: pickup.0000072000
(PID.TID 0000.0001) READ_MFLDS_3D_RL: read field: "EtaH    ", #  11 in fldList, rec= 123
(PID.TID 0000.0001)  MDS_READ_FIELD: opening global file: pickup.0000072000
(PID.TID 0000.0001) READ_MFLDS_CHECK: - normal end ; reset MFLDS file-name: pickup.0000072000
(PID.TID 0000.0001) // =======================================================
(PID.TID 0000.0001) // Model current state
(PID.TID 0000.0001) // =======================================================
(PID.TID 0000.0001) 
(PID.TID 0000.0001) // =======================================================
(PID.TID 0000.0001) // Begin MONITOR dynamic field statistics
(PID.TID 0000.0001) // =======================================================
(PID.TID 0000.0001) %MON time_tsnumber                =                 72000
(PID.TID 0000.0001) %MON time_secondsf                =   1.8000000000000E+06
(PID.TID 0000.0001) %MON dynstat_eta_max              =   9.2249308874653E-01
(PID.TID 0000.0001) %MON dynstat_eta_min              =  -1.6181619580030E+00
(PID.TID 0000.0001) %MON dynstat_eta_mean             =   1.4427566214562E-14
(PID.TID 0000.0001) %MON dynstat_eta_sd               =   5.9907976973986E-01
(PID.TID 0000.0001) %MON dynstat_eta_del2             =   7.8581345364806E-04
(PID.TID 0000.0001) %MON dynstat_uvel_max             =   1.8639442347386E-01
(PID.TID 0000.0001) %MON dynstat_uvel_min             =  -2.8803502100767E-01
(PID.TID 0000.0001) %MON dynstat_uvel_mean            =  -4.8914430325890E-04
(PID.TID 0000.0001) %MON dynstat_uvel_sd              =   1.2021379389426E-02
(PID.TID 0000.0001) %MON dynstat_uvel_del2            =   5.1214215649781E-05
(PID.TID 0000.0001) %MON dynstat_vvel_max             =   1.7346247050018E-01
(PID.TID 0000.0001) %MON dynstat_vvel_min             =  -2.2519444280963E-01
(PID.TID 0000.0001) %MON dynstat_vvel_mean            =  -4.0398186384005E-04
(PID.TID 0000.0001) %MON dynstat_vvel_sd              =   1.2638380334010E-02
(PID.TID 0000.0001) %MON dynstat_vvel_del2            =   5.0639130168720E-05
(PID.TID 0000.0001) %MON dynstat_wvel_max             =   1.0315548206230E-04
(PID.TID 0000.0001) %MON dynstat_wvel_min             =  -2.0412092606640E-04
(PID.TID 0000.0001) %MON dynstat_wvel_mean            =   1.3594270097552E-10
(PID.TID 0000.0001) %MON dynstat_wvel_sd              =   3.8382293649569E-06
(PID.TID 0000.0001) %MON dynstat_wvel_del2            =   2.6457320450043E-08
(PID.TID 0000.0001) %MON dynstat_theta_max            =   3.0925958904704E+01
(PID.TID 0000.0001) %MON dynstat_theta_min            =  -3.0175293673864E+00
(PID.TID 0000.0001) %MON dynstat_theta_mean           =   3.9091304559860E+00
(PID.TID 0000.0001) %MON dynstat_theta_sd             =   4.5711443147581E+00
(PID.TID 0000.0001) %MON dynstat_theta_del2           =   2.6590891135791E-03
(PID.TID 0000.0001) %MON dynstat_salt_max             =   4.1386265990462E+01
(PID.TID 0000.0001) %MON dynstat_salt_min             =   1.8383410676806E+01
(PID.TID 0000.0001) %MON dynstat_salt_mean            =   3.4772068623474E+01
(PID.TID 0000.0001) %MON dynstat_salt_sd              =   5.3145226117181E-01
(PID.TID 0000.0001) %MON dynstat_salt_del2            =   8.0693627005698E-04
(PID.TID 0000.0001) %MON dynstat_sst_max              =   3.0925958904704E+01
(PID.TID 0000.0001) %MON dynstat_sst_min              =  -1.9648692042086E+00
(PID.TID 0000.0001) %MON dynstat_sst_mean             =   1.8113137824165E+01
(PID.TID 0000.0001) %MON dynstat_sst_sd               =   9.7982972159706E+00
(PID.TID 0000.0001) %MON dynstat_sst_del2             =   1.5454157826167E-02
(PID.TID 0000.0001) %MON dynstat_sss_max              =   4.1386265990462E+01
(PID.TID 0000.0001) %MON dynstat_sss_min              =   1.8383410676806E+01
(PID.TID 0000.0001) %MON dynstat_sss_mean             =   3.4632078412677E+01
(PID.TID 0000.0001) %MON dynstat_sss_sd               =   1.4684189495322E+00
(PID.TID 0000.0001) %MON dynstat_sss_del2             =   8.0812048509615E-03
(PID.TID 0000.0001) %MON forcing_qnet_max             =   0.0000000000000E+00
(PID.TID 0000.0001) %MON forcing_qnet_min             =   0.0000000000000E+00
(PID.TID 0000.0001) %MON forcing_qnet_mean            =   0.0000000000000E+00
(PID.TID 0000.0001) %MON forcing_qnet_sd              =   0.0000000000000E+00
(PID.TID 0000.0001) %MON forcing_qnet_del2            =   0.0000000000000E+00
(PID.TID 0000.0001) %MON forcing_qsw_max              =   0.0000000000000E+00
(PID.TID 0000.0001) %MON forcing_qsw_min              =   0.0000000000000E+00
(PID.TID 0000.0001) %MON forcing_qsw_mean             =   0.0000000000000E+00
(PID.TID 0000.0001) %MON forcing_qsw_sd               =   0.0000000000000E+00
(PID.TID 0000.0001) %MON forcing_qsw_del2             =   0.0000000000000E+00
(PID.TID 0000.0001) %MON forcing_empmr_max            =   0.0000000000000E+00
(PID.TID 0000.0001) %MON forcing_empmr_min            =   0.0000000000000E+00
(PID.TID 0000.0001) %MON forcing_empmr_mean           =   0.0000000000000E+00
(PID.TID 0000.0001) %MON forcing_empmr_sd             =   0.0000000000000E+00
(PID.TID 0000.0001) %MON forcing_empmr_del2           =   0.0000000000000E+00
(PID.TID 0000.0001) %MON forcing_fu_max               =   0.0000000000000E+00
(PID.TID 0000.0001) %MON forcing_fu_min               =   0.0000000000000E+00
(PID.TID 0000.0001) %MON forcing_fu_mean              =   0.0000000000000E+00
(PID.TID 0000.0001) %MON forcing_fu_sd                =   0.0000000000000E+00
(PID.TID 0000.0001) %MON forcing_fu_del2              =   0.0000000000000E+00
(PID.TID 0000.0001) %MON forcing_fv_max               =   0.0000000000000E+00
(PID.TID 0000.0001) %MON forcing_fv_min               =   0.0000000000000E+00
(PID.TID 0000.0001) %MON forcing_fv_mean              =   0.0000000000000E+00
(PID.TID 0000.0001) %MON forcing_fv_sd                =   0.0000000000000E+00
(PID.TID 0000.0001) %MON forcing_fv_del2              =   0.0000000000000E+00
(PID.TID 0000.0001) %MON trAdv_CFL_u_max              =   0.0000000000000E+00
(PID.TID 0000.0001) %MON trAdv_CFL_v_max              =   0.0000000000000E+00
(PID.TID 0000.0001) %MON trAdv_CFL_w_max              =   0.0000000000000E+00
(PID.TID 0000.0001) %MON advcfl_uvel_max              =   2.3637788079801E-05
(PID.TID 0000.0001) %MON advcfl_vvel_max              =   2.1877849280842E-05
(PID.TID 0000.0001) %MON advcfl_wvel_max              =   1.9256691138340E-05
(PID.TID 0000.0001) %MON advcfl_W_hf_max              =   2.1270532409095E-05
(PID.TID 0000.0001) %MON pe_b_mean                    =   4.7811655460464E-04
(PID.TID 0000.0001) %MON ke_max                       =   4.0700637549387E-02
(PID.TID 0000.0001) %MON ke_mean                      =   1.4067882101803E-04
(PID.TID 0000.0001) %MON ke_vol                       =   1.3398024453628E+18
(PID.TID 0000.0001) %MON vort_r_min                   =  -1.1843904755479E-06
(PID.TID 0000.0001) %MON vort_r_max                   =   1.2148454936551E-06
(PID.TID 0000.0001) %MON vort_a_mean                  =  -2.0549865324846E-05
(PID.TID 0000.0001) %MON vort_a_sd                    =   7.5259517155846E-05
(PID.TID 0000.0001) %MON vort_p_mean                  =  -2.4783469227166E-05
(PID.TID 0000.0001) %MON vort_p_sd                    =   1.2812074522595E-04
(PID.TID 0000.0001) %MON surfExpan_theta_mean         =  -1.5615842676048E-05
(PID.TID 0000.0001) %MON surfExpan_salt_mean          =  -6.4223059566133E-06
(PID.TID 0000.0001) // =======================================================
(PID.TID 0000.0001) // End MONITOR dynamic field statistics
(PID.TID 0000.0001) // =======================================================
(PID.TID 0000.0001) SOLVE_FOR_PRESSURE: putPmEinXvector =    F
(PID.TID 0000.0001) SOLVE_FOR_PRESSURE: zeroPsNH=    F , zeroMeanPnh=    F
(PID.TID 0000.0001) SOLVE_FOR_PRESSURE: oldFreeSurfTerm =    F
 cg2d: Sum(rhs),rhsMax =  -3.76642980938419E+00  7.02998057021286E+04
(PID.TID 0000.0001)      cg2d_init_res =   1.79986905787750E+00
(PID.TID 0000.0001)      cg2d_iters(min,last) =      -1       2
(PID.TID 0000.0001)      cg2d_last_res =   4.05348198186861E-11
(PID.TID 0000.0001) // =======================================================
(PID.TID 0000.0001) // Begin MONITOR dynamic field statistics
(PID.TID 0000.0001) // =======================================================
(PID.TID 0000.0001) %MON time_tsnumber                =                 72001
(PID.TID 0000.0001) %MON time_secondsf                =   1.8000250000000E+06
(PID.TID 0000.0001) %MON dynstat_eta_max              =   2.5739675384836E+00
(PID.TID 0000.0001) %MON dynstat_eta_min              =  -1.6181625103441E+00
(PID.TID 0000.0001) %MON dynstat_eta_mean             =   2.3739970491321E-03
(PID.TID 0000.0001) %MON dynstat_eta_sd               =   6.0352878146391E-01
(PID.TID 0000.0001) %MON dynstat_eta_del2             =   2.6463342228154E-03
(PID.TID 0000.0001) %MON dynstat_uvel_max             =   1.8636755389011E-01
(PID.TID 0000.0001) %MON dynstat_uvel_min             =  -2.8800439964190E-01
(PID.TID 0000.0001) %MON dynstat_uvel_mean            =  -4.8901697929892E-04
(PID.TID 0000.0001) %MON dynstat_uvel_sd              =   1.2021068620888E-02
(PID.TID 0000.0001) %MON dynstat_uvel_del2            =   5.1210345228308E-05
(PID.TID 0000.0001) %MON dynstat_vvel_max             =   1.7346867041646E-01
(PID.TID 0000.0001) %MON dynstat_vvel_min             =  -2.2516581000461E-01
(PID.TID 0000.0001) %MON dynstat_vvel_mean            =  -4.0390079882413E-04
(PID.TID 0000.0001) %MON dynstat_vvel_sd              =   1.2637821823603E-02
(PID.TID 0000.0001) %MON dynstat_vvel_del2            =   5.0621025571060E-05
(PID.TID 0000.0001) %MON dynstat_wvel_max             =   1.3656622660909E-02
(PID.TID 0000.0001) %MON dynstat_wvel_min             =  -1.0757052656533E-01
(PID.TID 0000.0001) %MON dynstat_wvel_mean            =  -1.0392016498282E-06
(PID.TID 0000.0001) %MON dynstat_wvel_sd              =   3.4987343317035E-04
(PID.TID 0000.0001) %MON dynstat_wvel_del2            =   8.8441586316466E-06
(PID.TID 0000.0001) %MON dynstat_theta_max            =   3.0925952832132E+01
(PID.TID 0000.0001) %MON dynstat_theta_min            =  -3.0175336864664E+00
(PID.TID 0000.0001) %MON dynstat_theta_mean           =   3.9090628678087E+00
(PID.TID 0000.0001) %MON dynstat_theta_sd             =   4.5709474688085E+00
(PID.TID 0000.0001) %MON dynstat_theta_del2           =   2.6572120840562E-03
(PID.TID 0000.0001) %MON dynstat_salt_max             =   4.1389157826726E+01
(PID.TID 0000.0001) %MON dynstat_salt_min             =   1.8513344674645E+01
(PID.TID 0000.0001) %MON dynstat_salt_mean            =   3.4772113884003E+01
(PID.TID 0000.0001) %MON dynstat_salt_sd              =   5.3128137290934E-01
(PID.TID 0000.0001) %MON dynstat_salt_del2            =   8.0558749049820E-04
(PID.TID 0000.0001) %MON dynstat_sst_max              =   3.0925952832132E+01
(PID.TID 0000.0001) %MON dynstat_sst_min              =  -1.8999989727722E+00
(PID.TID 0000.0001) %MON dynstat_sst_mean             =   1.8108196771873E+01
(PID.TID 0000.0001) %MON dynstat_sst_sd               =   9.7987566379469E+00
(PID.TID 0000.0001) %MON dynstat_sst_del2             =   1.5406941517025E-02
(PID.TID 0000.0001) %MON dynstat_sss_max              =   4.1389157826726E+01
(PID.TID 0000.0001) %MON dynstat_sss_min              =   1.8513344674645E+01
(PID.TID 0000.0001) %MON dynstat_sss_mean             =   3.4635414975431E+01
(PID.TID 0000.0001) %MON dynstat_sss_sd               =   1.4641568785693E+00
(PID.TID 0000.0001) %MON dynstat_sss_del2             =   8.0604740147273E-03
(PID.TID 0000.0001) %MON forcing_qnet_max             =   4.2574105000000E+06
(PID.TID 0000.0001) %MON forcing_qnet_min             =  -9.4909306250000E+05
(PID.TID 0000.0001) %MON forcing_qnet_mean            =   4.3136326575813E+04
(PID.TID 0000.0001) %MON forcing_qnet_sd              =   1.5166046175342E+05
(PID.TID 0000.0001) %MON forcing_qnet_del2            =   3.9102793363200E+03
(PID.TID 0000.0001) %MON forcing_qsw_max              =   0.0000000000000E+00
(PID.TID 0000.0001) %MON forcing_qsw_min              =   0.0000000000000E+00
(PID.TID 0000.0001) %MON forcing_qsw_mean             =   0.0000000000000E+00
(PID.TID 0000.0001) %MON forcing_qsw_sd               =   0.0000000000000E+00
(PID.TID 0000.0001) %MON forcing_qsw_del2             =   0.0000000000000E+00
(PID.TID 0000.0001) %MON forcing_empmr_max            =   1.4134604454041E+01
(PID.TID 0000.0001) %MON forcing_empmr_min            =  -1.1133549499512E+02
(PID.TID 0000.0001) %MON forcing_empmr_mean           =  -9.8283477833478E-02
(PID.TID 0000.0001) %MON forcing_empmr_sd             =   3.1870402148324E+00
(PID.TID 0000.0001) %MON forcing_empmr_del2           =   1.0534503461710E-01
(PID.TID 0000.0001) %MON forcing_fu_max               =   5.1186009419184E-01
(PID.TID 0000.0001) %MON forcing_fu_min               =  -4.4117910165761E-01
(PID.TID 0000.0001) %MON forcing_fu_mean              =  -3.8651212768904E-03
(PID.TID 0000.0001) %MON forcing_fu_sd                =   6.8499635080254E-02
(PID.TID 0000.0001) %MON forcing_fu_del2              =   6.7731597154273E-04
(PID.TID 0000.0001) %MON forcing_fv_max               =   2.7291049847005E-01
(PID.TID 0000.0001) %MON forcing_fv_min               =  -4.5601609633007E-01
(PID.TID 0000.0001) %MON forcing_fv_mean              =  -1.4145467047841E-02
(PID.TID 0000.0001) %MON forcing_fv_sd                =   6.3939205734009E-02
(PID.TID 0000.0001) %MON forcing_fv_del2              =   5.4504829810837E-04
(PID.TID 0000.0001) %MON trAdv_CFL_u_max              =   2.3503149144382E-05
(PID.TID 0000.0001) %MON trAdv_CFL_v_max              =   2.3279334777382E-05
(PID.TID 0000.0001) %MON trAdv_CFL_w_max              =   3.4401924916963E-02
(PID.TID 0000.0001) %MON advcfl_uvel_max              =   2.3635275116786E-05
(PID.TID 0000.0001) %MON advcfl_vvel_max              =   2.1878631241537E-05
(PID.TID 0000.0001) %MON advcfl_wvel_max              =   1.0757052656533E-01
(PID.TID 0000.0001) %MON advcfl_W_hf_max              =   3.5876175047601E-02
(PID.TID 0000.0001) %MON pe_b_mean                    =   4.8525181018318E-04
(PID.TID 0000.0001) %MON ke_max                       =   4.0689442432869E-02
(PID.TID 0000.0001) %MON ke_mean                      =   1.4066875188487E-04
(PID.TID 0000.0001) %MON ke_vol                       =   1.3398024453628E+18
(PID.TID 0000.0001) %MON vort_r_min                   =  -1.1845038906239E-06
(PID.TID 0000.0001) %MON vort_r_max                   =   1.2151345394071E-06
(PID.TID 0000.0001) %MON vort_a_mean                  =  -2.0549865324846E-05
(PID.TID 0000.0001) %MON vort_a_sd                    =   7.5259517138340E-05
(PID.TID 0000.0001) %MON vort_p_mean                  =  -2.4783469220072E-05
(PID.TID 0000.0001) %MON vort_p_sd                    =   1.2812074241371E-04
(PID.TID 0000.0001) %MON surfExpan_theta_mean         =   4.6396534498968E-05
(PID.TID 0000.0001) %MON surfExpan_salt_mean          =   4.4888936492239E-06
(PID.TID 0000.0001) // =======================================================
(PID.TID 0000.0001) // End MONITOR dynamic field statistics
(PID.TID 0000.0001) // =======================================================
 cg2d: Sum(rhs),rhsMax =  -3.79482675542963E+00  1.19198709214266E+05
(PID.TID 0000.0001)      cg2d_init_res =   7.49275369446122E-01
(PID.TID 0000.0001)      cg2d_iters(min,last) =      -1       2
(PID.TID 0000.0001)      cg2d_last_res =   1.69034635947971E-11
(PID.TID 0000.0001) // =======================================================
(PID.TID 0000.0001) // Begin MONITOR dynamic field statistics
(PID.TID 0000.0001) // =======================================================
(PID.TID 0000.0001) %MON time_tsnumber                =                 72002
(PID.TID 0000.0001) %MON time_secondsf                =   1.8000500000000E+06
(PID.TID 0000.0001) %MON dynstat_eta_max              =   4.4242998644820E+00
(PID.TID 0000.0001) %MON dynstat_eta_min              =  -1.6181630102144E+00
(PID.TID 0000.0001) %MON dynstat_eta_mean             =   4.0556426181298E-03
(PID.TID 0000.0001) %MON dynstat_eta_sd               =   6.1250455979342E-01
(PID.TID 0000.0001) %MON dynstat_eta_del2             =   4.3954551566190E-03
(PID.TID 0000.0001) %MON dynstat_uvel_max             =   1.8635415465769E-01
(PID.TID 0000.0001) %MON dynstat_uvel_min             =  -2.8798330863219E-01
(PID.TID 0000.0001) %MON dynstat_uvel_mean            =  -4.8882905222000E-04
(PID.TID 0000.0001) %MON dynstat_uvel_sd              =   1.2021064801695E-02
(PID.TID 0000.0001) %MON dynstat_uvel_del2            =   5.1208915222964E-05
(PID.TID 0000.0001) %MON dynstat_vvel_max             =   1.7347505088905E-01
(PID.TID 0000.0001) %MON dynstat_vvel_min             =  -2.2514788601838E-01
(PID.TID 0000.0001) %MON dynstat_vvel_mean            =  -4.0377247278392E-04
(PID.TID 0000.0001) %MON dynstat_vvel_sd              =   1.2637561825482E-02
(PID.TID 0000.0001) %MON dynstat_vvel_del2            =   5.0600195731546E-05
(PID.TID 0000.0001) %MON dynstat_wvel_max             =   9.6399675820761E-03
(PID.TID 0000.0001) %MON dynstat_wvel_min             =  -7.5932149841014E-02
(PID.TID 0000.0001) %MON dynstat_wvel_mean            =  -7.5202115998336E-07
(PID.TID 0000.0001) %MON dynstat_wvel_sd              =   2.4701232816309E-04
(PID.TID 0000.0001) %MON dynstat_wvel_del2            =   6.2434614293103E-06
(PID.TID 0000.0001) %MON dynstat_theta_max            =   3.0925946749708E+01
(PID.TID 0000.0001) %MON dynstat_theta_min            =  -3.0175379644868E+00
(PID.TID 0000.0001) %MON dynstat_theta_mean           =   3.9090119745560E+00
(PID.TID 0000.0001) %MON dynstat_theta_sd             =   4.5708109264604E+00
(PID.TID 0000.0001) %MON dynstat_theta_del2           =   2.6565604332896E-03
(PID.TID 0000.0001) %MON dynstat_salt_max             =   4.1388445002384E+01
(PID.TID 0000.0001) %MON dynstat_salt_min             =   1.8518383678496E+01
(PID.TID 0000.0001) %MON dynstat_salt_mean            =   3.4772143219590E+01
(PID.TID 0000.0001) %MON dynstat_salt_sd              =   5.3116785021931E-01
(PID.TID 0000.0001) %MON dynstat_salt_del2            =   8.0463133084077E-04
(PID.TID 0000.0001) %MON dynstat_sst_max              =   3.0925946749708E+01
(PID.TID 0000.0001) %MON dynstat_sst_min              =  -1.8999979190043E+00
(PID.TID 0000.0001) %MON dynstat_sst_mean             =   1.8104640954428E+01
(PID.TID 0000.0001) %MON dynstat_sst_sd               =   9.7994463187694E+00
(PID.TID 0000.0001) %MON dynstat_sst_del2             =   1.5391116115204E-02
(PID.TID 0000.0001) %MON dynstat_sss_max              =   4.1388445002384E+01
(PID.TID 0000.0001) %MON dynstat_sss_min              =   1.8585350860115E+01
(PID.TID 0000.0001) %MON dynstat_sss_mean             =   3.4637720588159E+01
(PID.TID 0000.0001) %MON dynstat_sss_sd               =   1.4612725821618E+00
(PID.TID 0000.0001) %MON dynstat_sss_del2             =   8.0455733322442E-03
(PID.TID 0000.0001) %MON forcing_qnet_max             =   2.8368892500000E+06
(PID.TID 0000.0001) %MON forcing_qnet_min             =  -6.5915731250000E+05
(PID.TID 0000.0001) %MON forcing_qnet_mean            =   2.9719103512292E+04
(PID.TID 0000.0001) %MON forcing_qnet_sd              =   1.0410818762388E+05
(PID.TID 0000.0001) %MON forcing_qnet_del2            =   2.6506240153682E+03
(PID.TID 0000.0001) %MON forcing_qsw_max              =   0.0000000000000E+00
(PID.TID 0000.0001) %MON forcing_qsw_min              =   0.0000000000000E+00
(PID.TID 0000.0001) %MON forcing_qsw_mean             =   0.0000000000000E+00
(PID.TID 0000.0001) %MON forcing_qsw_sd               =   0.0000000000000E+00
(PID.TID 0000.0001) %MON forcing_qsw_del2             =   0.0000000000000E+00
(PID.TID 0000.0001) %MON forcing_empmr_max            =   9.9773664474487E+00
(PID.TID 0000.0001) %MON forcing_empmr_min            =  -7.8589775085449E+01
(PID.TID 0000.0001) %MON forcing_empmr_mean           =  -6.9620126556500E-02
(PID.TID 0000.0001) %MON forcing_empmr_sd             =   2.2497197638344E+00
(PID.TID 0000.0001) %MON forcing_empmr_del2           =   7.4364858367381E-02
(PID.TID 0000.0001) %MON forcing_fu_max               =   5.1186009419184E-01
(PID.TID 0000.0001) %MON forcing_fu_min               =  -4.4117910165761E-01
(PID.TID 0000.0001) %MON forcing_fu_mean              =  -3.8651212768904E-03
(PID.TID 0000.0001) %MON forcing_fu_sd                =   6.8499635080254E-02
(PID.TID 0000.0001) %MON forcing_fu_del2              =   6.7731597154273E-04
(PID.TID 0000.0001) %MON forcing_fv_max               =   2.7291049847005E-01
(PID.TID 0000.0001) %MON forcing_fv_min               =  -4.5601609633007E-01
(PID.TID 0000.0001) %MON forcing_fv_mean              =  -1.4145467047841E-02
(PID.TID 0000.0001) %MON forcing_fv_sd                =   6.3939205734009E-02
(PID.TID 0000.0001) %MON forcing_fv_del2              =   5.4504829810837E-04
(PID.TID 0000.0001) %MON trAdv_CFL_u_max              =   2.3501427972255E-05
(PID.TID 0000.0001) %MON trAdv_CFL_v_max              =   2.3280193973147E-05
(PID.TID 0000.0001) %MON trAdv_CFL_w_max              =   2.4199277874358E-02
(PID.TID 0000.0001) %MON advcfl_uvel_max              =   2.3633544268863E-05
(PID.TID 0000.0001) %MON advcfl_vvel_max              =   2.1879435974787E-05
(PID.TID 0000.0001) %MON advcfl_wvel_max              =   7.5932149841014E-02
(PID.TID 0000.0001) %MON advcfl_W_hf_max              =   2.4447901543962E-02
(PID.TID 0000.0001) %MON pe_b_mean                    =   4.9980648351377E-04
(PID.TID 0000.0001) %MON ke_max                       =   4.0681695054043E-02
(PID.TID 0000.0001) %MON ke_mean                      =   1.4066549758178E-04
(PID.TID 0000.0001) %MON ke_vol                       =   1.3398033092288E+18
(PID.TID 0000.0001) %MON vort_r_min                   =  -1.1845990954925E-06
(PID.TID 0000.0001) %MON vort_r_max                   =   1.2153189088007E-06
(PID.TID 0000.0001) %MON vort_a_mean                  =  -2.0549865324846E-05
(PID.TID 0000.0001) %MON vort_a_sd                    =   7.5259517146460E-05
(PID.TID 0000.0001) %MON vort_p_mean                  =  -2.4783458753742E-05
(PID.TID 0000.0001) %MON vort_p_sd                    =   1.2812044926631E-04
(PID.TID 0000.0001) %MON surfExpan_theta_mean         =   3.4541594387898E-05
(PID.TID 0000.0001) %MON surfExpan_salt_mean          =   3.1570784923904E-06
(PID.TID 0000.0001) // =======================================================
(PID.TID 0000.0001) // End MONITOR dynamic field statistics
(PID.TID 0000.0001) // =======================================================
 cg2d: Sum(rhs),rhsMax =  -3.80831310437985E+00  1.53713337948008E+05
(PID.TID 0000.0001)      cg2d_init_res =   4.10110533417029E-01
(PID.TID 0000.0001)      cg2d_iters(min,last) =      -1       2
(PID.TID 0000.0001)      cg2d_last_res =   9.26353406466250E-12
(PID.TID 0000.0001) // =======================================================
(PID.TID 0000.0001) // Begin MONITOR dynamic field statistics
(PID.TID 0000.0001) // =======================================================
(PID.TID 0000.0001) %MON time_tsnumber                =                 72003
(PID.TID 0000.0001) %MON time_secondsf                =   1.8000750000000E+06
(PID.TID 0000.0001) %MON dynstat_eta_max              =   5.7641136750265E+00
(PID.TID 0000.0001) %MON dynstat_eta_min              =  -1.6319356453510E+00
(PID.TID 0000.0001) %MON dynstat_eta_mean             =   5.2485624907757E-03
(PID.TID 0000.0001) %MON dynstat_eta_sd               =   6.2162948816497E-01
(PID.TID 0000.0001) %MON dynstat_eta_del2             =   5.6483084863997E-03
(PID.TID 0000.0001) %MON dynstat_uvel_max             =   1.8634068435382E-01
(PID.TID 0000.0001) %MON dynstat_uvel_min             =  -2.8796221796921E-01
(PID.TID 0000.0001) %MON dynstat_uvel_mean            =  -4.8858117756869E-04
(PID.TID 0000.0001) %MON dynstat_uvel_sd              =   1.2021123364674E-02
(PID.TID 0000.0001) %MON dynstat_uvel_del2            =   5.1212514933689E-05
(PID.TID 0000.0001) %MON dynstat_vvel_max             =   1.7348134931247E-01
(PID.TID 0000.0001) %MON dynstat_vvel_min             =  -2.2513001666243E-01
(PID.TID 0000.0001) %MON dynstat_vvel_mean            =  -4.0360362256330E-04
(PID.TID 0000.0001) %MON dynstat_vvel_sd              =   1.2637374795646E-02
(PID.TID 0000.0001) %MON dynstat_vvel_del2            =   5.0584752968934E-05
(PID.TID 0000.0001) %MON dynstat_wvel_max             =   6.8046850858679E-03
(PID.TID 0000.0001) %MON dynstat_wvel_min             =  -5.3599168712966E-02
(PID.TID 0000.0001) %MON dynstat_wvel_mean            =  -5.4967294527079E-07
(PID.TID 0000.0001) %MON dynstat_wvel_sd              =   1.7442168539035E-04
(PID.TID 0000.0001) %MON dynstat_wvel_del2            =   4.4078006411478E-06
(PID.TID 0000.0001) %MON dynstat_theta_max            =   3.0925940667870E+01
(PID.TID 0000.0001) %MON dynstat_theta_min            =  -3.0175422335274E+00
(PID.TID 0000.0001) %MON dynstat_theta_mean           =   3.9089768854466E+00
(PID.TID 0000.0001) %MON dynstat_theta_sd             =   4.5707169427682E+00
(PID.TID 0000.0001) %MON dynstat_theta_del2           =   2.6562519432795E-03
(PID.TID 0000.0001) %MON dynstat_salt_max             =   4.1386558967333E+01
(PID.TID 0000.0001) %MON dynstat_salt_min             =   1.8518383761239E+01
(PID.TID 0000.0001) %MON dynstat_salt_mean            =   3.4772163507650E+01
(PID.TID 0000.0001) %MON dynstat_salt_sd              =   5.3109032825658E-01
(PID.TID 0000.0001) %MON dynstat_salt_del2            =   8.0393726958017E-04
(PID.TID 0000.0001) %MON dynstat_sst_max              =   3.0925940667870E+01
(PID.TID 0000.0001) %MON dynstat_sst_min              =  -1.8999968631962E+00
(PID.TID 0000.0001) %MON dynstat_sst_mean             =   1.8102231688521E+01
(PID.TID 0000.0001) %MON dynstat_sst_sd               =   9.7999030571079E+00
(PID.TID 0000.0001) %MON dynstat_sst_del2             =   1.5383649038034E-02
(PID.TID 0000.0001) %MON dynstat_sss_max              =   4.1386558967333E+01
(PID.TID 0000.0001) %MON dynstat_sss_min              =   1.8635752906658E+01
(PID.TID 0000.0001) %MON dynstat_sss_mean             =   3.4639319084031E+01
(PID.TID 0000.0001) %MON dynstat_sss_sd               =   1.4593027848320E+00
(PID.TID 0000.0001) %MON dynstat_sss_del2             =   8.0346968514348E-03
(PID.TID 0000.0001) %MON forcing_qnet_max             =   1.9215087500000E+06
(PID.TID 0000.0001) %MON forcing_qnet_min             =  -4.5780659375000E+05
(PID.TID 0000.0001) %MON forcing_qnet_mean            =   2.0430700026389E+04
(PID.TID 0000.0001) %MON forcing_qnet_sd              =   7.1919161665312E+04
(PID.TID 0000.0001) %MON forcing_qnet_del2            =   1.8144331769442E+03
(PID.TID 0000.0001) %MON forcing_qsw_max              =   0.0000000000000E+00
(PID.TID 0000.0001) %MON forcing_qsw_min              =   0.0000000000000E+00
(PID.TID 0000.0001) %MON forcing_qsw_mean             =   0.0000000000000E+00
(PID.TID 0000.0001) %MON forcing_qsw_sd               =   0.0000000000000E+00
(PID.TID 0000.0001) %MON forcing_qsw_del2             =   0.0000000000000E+00
(PID.TID 0000.0001) %MON forcing_empmr_max            =   7.0428490638733E+00
(PID.TID 0000.0001) %MON forcing_empmr_min            =  -5.5475139617920E+01
(PID.TID 0000.0001) %MON forcing_empmr_mean           =  -4.9386882727557E-02
(PID.TID 0000.0001) %MON forcing_empmr_sd             =   1.5881025452215E+00
(PID.TID 0000.0001) %MON forcing_empmr_del2           =   5.2497439500140E-02
(PID.TID 0000.0001) %MON forcing_fu_max               =   5.1186009419184E-01
(PID.TID 0000.0001) %MON forcing_fu_min               =  -4.4117910165761E-01
(PID.TID 0000.0001) %MON forcing_fu_mean              =  -3.8651212768904E-03
(PID.TID 0000.0001) %MON forcing_fu_sd                =   6.8499635080254E-02
(PID.TID 0000.0001) %MON forcing_fu_del2              =   6.7731597154273E-04
(PID.TID 0000.0001) %MON forcing_fv_max               =   2.7291049847005E-01
(PID.TID 0000.0001) %MON forcing_fv_min               =  -4.5601609633007E-01
(PID.TID 0000.0001) %MON forcing_fv_mean              =  -1.4145467047841E-02
(PID.TID 0000.0001) %MON forcing_fv_sd                =   6.3939205734009E-02
(PID.TID 0000.0001) %MON forcing_fv_del2              =   5.4504829810837E-04
(PID.TID 0000.0001) %MON trAdv_CFL_u_max              =   2.3499706828262E-05
(PID.TID 0000.0001) %MON trAdv_CFL_v_max              =   2.3281041290693E-05
(PID.TID 0000.0001) %MON trAdv_CFL_w_max              =   1.7040034384552E-02
(PID.TID 0000.0001) %MON advcfl_uvel_max              =   2.3631813449395E-05
(PID.TID 0000.0001) %MON advcfl_vvel_max              =   2.1880230359635E-05
(PID.TID 0000.0001) %MON advcfl_wvel_max              =   5.3599168712966E-02
(PID.TID 0000.0001) %MON advcfl_W_hf_max              =   1.7040034384552E-02
(PID.TID 0000.0001) %MON pe_b_mean                    =   5.1482327044119E-04
(PID.TID 0000.0001) %MON ke_max                       =   4.0673948965889E-02
(PID.TID 0000.0001) %MON ke_mean                      =   1.4066375471638E-04
(PID.TID 0000.0001) %MON ke_vol                       =   1.3398039211573E+18
(PID.TID 0000.0001) %MON vort_r_min                   =  -1.1846947302875E-06
(PID.TID 0000.0001) %MON vort_r_max                   =   1.2155036578126E-06
(PID.TID 0000.0001) %MON vort_a_mean                  =  -2.0549865324846E-05
(PID.TID 0000.0001) %MON vort_a_sd                    =   7.5259517164387E-05
(PID.TID 0000.0001) %MON vort_p_mean                  =  -2.4783451331819E-05
(PID.TID 0000.0001) %MON vort_p_sd                    =   1.2812024480161E-04
(PID.TID 0000.0001) %MON surfExpan_theta_mean         =   2.4335072880892E-05
(PID.TID 0000.0001) %MON surfExpan_salt_mean          =   2.3397167200950E-06
(PID.TID 0000.0001) // =======================================================
(PID.TID 0000.0001) // End MONITOR dynamic field statistics
(PID.TID 0000.0001) // =======================================================
 cg2d: Sum(rhs),rhsMax =  -3.81842589693976E+00  1.78073576084777E+05
(PID.TID 0000.0001)      cg2d_init_res =   2.49853324495050E-01
(PID.TID 0000.0001)      cg2d_iters(min,last) =      -1       2
(PID.TID 0000.0001)      cg2d_last_res =   5.64932464086957E-12
(PID.TID 0000.0001) // =======================================================
(PID.TID 0000.0001) // Begin MONITOR dynamic field statistics
(PID.TID 0000.0001) // =======================================================
(PID.TID 0000.0001) %MON time_tsnumber                =                 72004
(PID.TID 0000.0001) %MON time_secondsf                =   1.8001000000000E+06
(PID.TID 0000.0001) %MON dynstat_eta_max              =   6.7097272491517E+00
(PID.TID 0000.0001) %MON dynstat_eta_min              =  -1.6738689243012E+00
(PID.TID 0000.0001) %MON dynstat_eta_mean             =   6.0964921483269E-03
(PID.TID 0000.0001) %MON dynstat_eta_sd               =   6.2939990621438E-01
(PID.TID 0000.0001) %MON dynstat_eta_del2             =   6.5360867598237E-03
(PID.TID 0000.0001) %MON dynstat_uvel_max             =   1.8632710958699E-01
(PID.TID 0000.0001) %MON dynstat_uvel_min             =  -2.8794112783300E-01
(PID.TID 0000.0001) %MON dynstat_uvel_mean            =  -4.8829194950829E-04
(PID.TID 0000.0001) %MON dynstat_uvel_sd              =   1.2021284836680E-02
(PID.TID 0000.0001) %MON dynstat_uvel_del2            =   5.1224045714669E-05
(PID.TID 0000.0001) %MON dynstat_vvel_max             =   1.7348761891803E-01
(PID.TID 0000.0001) %MON dynstat_vvel_min             =  -2.2511216695750E-01
(PID.TID 0000.0001) %MON dynstat_vvel_mean            =  -4.0340716364708E-04
(PID.TID 0000.0001) %MON dynstat_vvel_sd              =   1.2637306211027E-02
(PID.TID 0000.0001) %MON dynstat_vvel_del2            =   5.0583757812503E-05
(PID.TID 0000.0001) %MON dynstat_wvel_max             =   4.8033046261700E-03
(PID.TID 0000.0001) %MON dynstat_wvel_min             =  -3.7834709278051E-02
(PID.TID 0000.0001) %MON dynstat_wvel_mean            =  -4.0721242502693E-07
(PID.TID 0000.0001) %MON dynstat_wvel_sd              =   1.2320564723595E-04
(PID.TID 0000.0001) %MON dynstat_wvel_del2            =   3.1122354650064E-06
(PID.TID 0000.0001) %MON dynstat_theta_max            =   3.0925934586616E+01
(PID.TID 0000.0001) %MON dynstat_theta_min            =  -3.0175464884566E+00
(PID.TID 0000.0001) %MON dynstat_theta_mean           =   3.9089527854897E+00
(PID.TID 0000.0001) %MON dynstat_theta_sd             =   4.5706523474741E+00
(PID.TID 0000.0001) %MON dynstat_theta_del2           =   2.6560629193436E-03
(PID.TID 0000.0001) %MON dynstat_salt_max             =   4.1384542848918E+01
(PID.TID 0000.0001) %MON dynstat_salt_min             =   1.8518383855140E+01
(PID.TID 0000.0001) %MON dynstat_salt_mean            =   3.4772177526507E+01
(PID.TID 0000.0001) %MON dynstat_salt_sd              =   5.3103707870534E-01
(PID.TID 0000.0001) %MON dynstat_salt_del2            =   8.0342927963887E-04
(PID.TID 0000.0001) %MON dynstat_sst_max              =   3.0925934586616E+01
(PID.TID 0000.0001) %MON dynstat_sst_min              =  -1.8999958058862E+00
(PID.TID 0000.0001) %MON dynstat_sst_mean             =   1.8100619230063E+01
(PID.TID 0000.0001) %MON dynstat_sst_sd               =   9.8002011677915E+00
(PID.TID 0000.0001) %MON dynstat_sst_del2             =   1.5379545078237E-02
(PID.TID 0000.0001) %MON dynstat_sss_max              =   4.1384542848918E+01
(PID.TID 0000.0001) %MON dynstat_sss_min              =   1.8671033792472E+01
(PID.TID 0000.0001) %MON dynstat_sss_mean             =   3.4640430770621E+01
(PID.TID 0000.0001) %MON dynstat_sss_sd               =   1.4579541719876E+00
(PID.TID 0000.0001) %MON dynstat_sss_del2             =   8.0267850459965E-03
(PID.TID 0000.0001) %MON forcing_qnet_max             =   1.3155852500000E+06
(PID.TID 0000.0001) %MON forcing_qnet_min             =  -3.1795087500000E+05
(PID.TID 0000.0001) %MON forcing_qnet_mean            =   1.4004737475207E+04
(PID.TID 0000.0001) %MON forcing_qnet_sd              =   4.9915947272486E+04
(PID.TID 0000.0001) %MON forcing_qnet_del2            =   1.2498653293189E+03
(PID.TID 0000.0001) %MON forcing_qsw_max              =   0.0000000000000E+00
(PID.TID 0000.0001) %MON forcing_qsw_min              =   0.0000000000000E+00
(PID.TID 0000.0001) %MON forcing_qsw_mean             =   0.0000000000000E+00
(PID.TID 0000.0001) %MON forcing_qsw_sd               =   0.0000000000000E+00
(PID.TID 0000.0001) %MON forcing_qsw_del2             =   0.0000000000000E+00
(PID.TID 0000.0001) %MON forcing_empmr_max            =   4.9714202880859E+00
(PID.TID 0000.0001) %MON forcing_empmr_min            =  -3.9158924102783E+01
(PID.TID 0000.0001) %MON forcing_empmr_mean           =  -3.5104287822605E-02
(PID.TID 0000.0001) %MON forcing_empmr_sd             =   1.1211084309626E+00
(PID.TID 0000.0001) %MON forcing_empmr_del2           =   3.7062971668780E-02
(PID.TID 0000.0001) %MON forcing_fu_max               =   5.1186009419184E-01
(PID.TID 0000.0001) %MON forcing_fu_min               =  -4.4117910165761E-01
(PID.TID 0000.0001) %MON forcing_fu_mean              =  -3.8651212768904E-03
(PID.TID 0000.0001) %MON forcing_fu_sd                =   6.8499635080254E-02
(PID.TID 0000.0001) %MON forcing_fu_del2              =   6.7731597154273E-04
(PID.TID 0000.0001) %MON forcing_fv_max               =   2.7291049847005E-01
(PID.TID 0000.0001) %MON forcing_fv_min               =  -4.5601609633007E-01
(PID.TID 0000.0001) %MON forcing_fv_mean              =  -1.4145467047841E-02
(PID.TID 0000.0001) %MON forcing_fv_sd                =   6.3939205734009E-02
(PID.TID 0000.0001) %MON forcing_fv_del2              =   5.4504829810837E-04
(PID.TID 0000.0001) %MON trAdv_CFL_u_max              =   2.3497985727096E-05
(PID.TID 0000.0001) %MON trAdv_CFL_v_max              =   2.3281884131639E-05
(PID.TID 0000.0001) %MON trAdv_CFL_w_max              =   1.2007535438676E-02
(PID.TID 0000.0001) %MON advcfl_uvel_max              =   2.3630082673156E-05
(PID.TID 0000.0001) %MON advcfl_vvel_max              =   2.1881021109848E-05
(PID.TID 0000.0001) %MON advcfl_wvel_max              =   3.7834709278051E-02
(PID.TID 0000.0001) %MON advcfl_W_hf_max              =   1.2007535438676E-02
(PID.TID 0000.0001) %MON pe_b_mean                    =   5.2778609741901E-04
(PID.TID 0000.0001) %MON ke_max                       =   4.0666204273122E-02
(PID.TID 0000.0001) %MON ke_mean                      =   1.4066451450625E-04
(PID.TID 0000.0001) %MON ke_vol                       =   1.3398043552450E+18
(PID.TID 0000.0001) %MON vort_r_min                   =  -1.1847907761592E-06
(PID.TID 0000.0001) %MON vort_r_max                   =   1.2156888996037E-06
(PID.TID 0000.0001) %MON vort_a_mean                  =  -2.0549865324846E-05
(PID.TID 0000.0001) %MON vort_a_sd                    =   7.5259517189082E-05
(PID.TID 0000.0001) %MON vort_p_mean                  =  -2.4783446058786E-05
(PID.TID 0000.0001) %MON vort_p_sd                    =   1.2812010135260E-04
(PID.TID 0000.0001) %MON surfExpan_theta_mean         =   1.6311772948792E-05
(PID.TID 0000.0001) %MON surfExpan_salt_mean          =   1.8003204146244E-06
(PID.TID 0000.0001) // =======================================================
(PID.TID 0000.0001) // End MONITOR dynamic field statistics
(PID.TID 0000.0001) // =======================================================
(PID.TID 0000.0001) %CHECKPOINT     72004 ckptA
 cg2d: Sum(rhs),rhsMax =  -3.82746510258168E+00  1.95265217081194E+05
(PID.TID 0000.0001)      cg2d_init_res =   1.60803235338001E-01
(PID.TID 0000.0001)      cg2d_iters(min,last) =      -1       2
(PID.TID 0000.0001)      cg2d_last_res =   3.63982899884037E-12
(PID.TID 0000.0001) // =======================================================
(PID.TID 0000.0001) // Begin MONITOR dynamic field statistics
(PID.TID 0000.0001) // =======================================================
(PID.TID 0000.0001) %MON time_tsnumber                =                 72005
(PID.TID 0000.0001) %MON time_secondsf                =   1.8001250000000E+06
(PID.TID 0000.0001) %MON dynstat_eta_max              =   7.3770462761154E+00
(PID.TID 0000.0001) %MON dynstat_eta_min              =  -1.7033936779851E+00
(PID.TID 0000.0001) %MON dynstat_eta_mean             =   6.7008870868008E-03
(PID.TID 0000.0001) %MON dynstat_eta_sd               =   6.3552189352283E-01
(PID.TID 0000.0001) %MON dynstat_eta_del2             =   7.1635190823295E-03
(PID.TID 0000.0001) %MON dynstat_uvel_max             =   1.8631343049534E-01
(PID.TID 0000.0001) %MON dynstat_uvel_min             =  -2.8792003827607E-01
(PID.TID 0000.0001) %MON dynstat_uvel_mean            =  -4.8797344888323E-04
(PID.TID 0000.0001) %MON dynstat_uvel_sd              =   1.2021580004985E-02
(PID.TID 0000.0001) %MON dynstat_uvel_del2            =   5.1245623493343E-05
(PID.TID 0000.0001) %MON dynstat_vvel_max             =   1.7349387735358E-01
(PID.TID 0000.0001) %MON dynstat_vvel_min             =  -2.2509433096201E-01
(PID.TID 0000.0001) %MON dynstat_vvel_mean            =  -4.0319163569482E-04
(PID.TID 0000.0001) %MON dynstat_vvel_sd              =   1.2637387556503E-02
(PID.TID 0000.0001) %MON dynstat_vvel_del2            =   5.0603479046261E-05
(PID.TID 0000.0001) %MON dynstat_wvel_max             =   3.3905720365220E-03
(PID.TID 0000.0001) %MON dynstat_wvel_min             =  -2.6706848513101E-02
(PID.TID 0000.0001) %MON dynstat_wvel_mean            =  -3.0691205951856E-07
(PID.TID 0000.0001) %MON dynstat_wvel_sd              =   8.7087648709756E-05
(PID.TID 0000.0001) %MON dynstat_wvel_del2            =   2.1980080003428E-06
(PID.TID 0000.0001) %MON dynstat_theta_max            =   3.0925928505944E+01
(PID.TID 0000.0001) %MON dynstat_theta_min            =  -3.0175507197063E+00
(PID.TID 0000.0001) %MON dynstat_theta_mean           =   3.9089363210494E+00
(PID.TID 0000.0001) %MON dynstat_theta_sd             =   4.5706080992979E+00
(PID.TID 0000.0001) %MON dynstat_theta_del2           =   2.6559289314792E-03
(PID.TID 0000.0001) %MON dynstat_salt_max             =   4.1382784878477E+01
(PID.TID 0000.0001) %MON dynstat_salt_min             =   1.8518383960634E+01
(PID.TID 0000.0001) %MON dynstat_salt_mean            =   3.4772187194963E+01
(PID.TID 0000.0001) %MON dynstat_salt_sd              =   5.3100038446619E-01
(PID.TID 0000.0001) %MON dynstat_salt_del2            =   8.0305588598693E-04
(PID.TID 0000.0001) %MON dynstat_sst_max              =   3.0925928505944E+01
(PID.TID 0000.0001) %MON dynstat_sst_min              =  -1.8999947474489E+00
(PID.TID 0000.0001) %MON dynstat_sst_mean             =   1.8099535264128E+01
(PID.TID 0000.0001) %MON dynstat_sst_sd               =   9.8003915364025E+00
(PID.TID 0000.0001) %MON dynstat_sst_del2             =   1.5376791066195E-02
(PID.TID 0000.0001) %MON dynstat_sss_max              =   4.1382784878477E+01
(PID.TID 0000.0001) %MON dynstat_sss_min              =   1.8695730567234E+01
(PID.TID 0000.0001) %MON dynstat_sss_mean             =   3.4641198027976E+01
(PID.TID 0000.0001) %MON dynstat_sss_sd               =   1.4570256343280E+00
(PID.TID 0000.0001) %MON dynstat_sss_del2             =   8.0210013678300E-03
(PID.TID 0000.0001) %MON forcing_qnet_max             =   9.0726343750000E+05
(PID.TID 0000.0001) %MON forcing_qnet_min             =  -2.2083067187500E+05
(PID.TID 0000.0001) %MON forcing_qnet_mean            =   9.5561233900614E+03
(PID.TID 0000.0001) %MON forcing_qnet_sd              =   3.4791216810111E+04
(PID.TID 0000.0001) %MON forcing_qnet_del2            =   8.6501260199343E+02
(PID.TID 0000.0001) %MON forcing_qsw_max              =   0.0000000000000E+00
(PID.TID 0000.0001) %MON forcing_qsw_min              =   0.0000000000000E+00
(PID.TID 0000.0001) %MON forcing_qsw_mean             =   0.0000000000000E+00
(PID.TID 0000.0001) %MON forcing_qsw_sd               =   0.0000000000000E+00
(PID.TID 0000.0001) %MON forcing_qsw_del2             =   0.0000000000000E+00
(PID.TID 0000.0001) %MON forcing_empmr_max            =   3.5092420578003E+00
(PID.TID 0000.0001) %MON forcing_empmr_min            =  -2.7641588211060E+01
(PID.TID 0000.0001) %MON forcing_empmr_mean           =  -2.5021950452811E-02
(PID.TID 0000.0001) %MON forcing_empmr_sd             =   7.9150710367082E-01
(PID.TID 0000.0001) %MON forcing_empmr_del2           =   2.6169942660630E-02
(PID.TID 0000.0001) %MON forcing_fu_max               =   5.1186009419184E-01
(PID.TID 0000.0001) %MON forcing_fu_min               =  -4.4117910165761E-01
(PID.TID 0000.0001) %MON forcing_fu_mean              =  -3.8651212768904E-03
(PID.TID 0000.0001) %MON forcing_fu_sd                =   6.8499635080254E-02
(PID.TID 0000.0001) %MON forcing_fu_del2              =   6.7731597154273E-04
(PID.TID 0000.0001) %MON forcing_fv_max               =   2.7291049847005E-01
(PID.TID 0000.0001) %MON forcing_fv_min               =  -4.5601609633007E-01
(PID.TID 0000.0001) %MON forcing_fv_mean              =  -1.4145467047841E-02
(PID.TID 0000.0001) %MON forcing_fv_sd                =   6.3939205734009E-02
(PID.TID 0000.0001) %MON forcing_fv_del2              =   5.4504829810837E-04
(PID.TID 0000.0001) %MON trAdv_CFL_u_max              =   2.3496264673041E-05
(PID.TID 0000.0001) %MON trAdv_CFL_v_max              =   2.3282725042580E-05
(PID.TID 0000.0001) %MON trAdv_CFL_w_max              =   8.4656313105961E-03
(PID.TID 0000.0001) %MON advcfl_uvel_max              =   2.3628351944457E-05
(PID.TID 0000.0001) %MON advcfl_vvel_max              =   2.1881810451251E-05
(PID.TID 0000.0001) %MON advcfl_wvel_max              =   2.6706848513101E-02
(PID.TID 0000.0001) %MON advcfl_W_hf_max              =   8.4656313105961E-03
(PID.TID 0000.0001) %MON pe_b_mean                    =   5.3811248230781E-04
(PID.TID 0000.0001) %MON ke_max                       =   4.0658460981205E-02
(PID.TID 0000.0001) %MON ke_mean                      =   1.4066849285374E-04
(PID.TID 0000.0001) %MON ke_vol                       =   1.3398046637954E+18
(PID.TID 0000.0001) %MON vort_r_min                   =  -1.1848872313436E-06
(PID.TID 0000.0001) %MON vort_r_max                   =   1.2158746353313E-06
(PID.TID 0000.0001) %MON vort_a_mean                  =  -2.0549865324846E-05
(PID.TID 0000.0001) %MON vort_a_sd                    =   7.5259517218705E-05
(PID.TID 0000.0001) %MON vort_p_mean                  =  -2.4783442302512E-05
(PID.TID 0000.0001) %MON vort_p_sd                    =   1.2812000022462E-04
(PID.TID 0000.0001) %MON surfExpan_theta_mean         =   1.0290591111487E-05
(PID.TID 0000.0001) %MON surfExpan_salt_mean          =   1.4334193598217E-06
(PID.TID 0000.0001) // =======================================================
(PID.TID 0000.0001) // End MONITOR dynamic field statistics
(PID.TID 0000.0001) // =======================================================
 cg2d: Sum(rhs),rhsMax =  -3.83617158299442E+00  2.07395896239291E+05
(PID.TID 0000.0001)      cg2d_init_res =   1.06834672970132E-01
(PID.TID 0000.0001)      cg2d_iters(min,last) =      -1       2
(PID.TID 0000.0001)      cg2d_last_res =   2.42253685469270E-12
(PID.TID 0000.0001) // =======================================================
(PID.TID 0000.0001) // Begin MONITOR dynamic field statistics
(PID.TID 0000.0001) // =======================================================
(PID.TID 0000.0001) %MON time_tsnumber                =                 72006
(PID.TID 0000.0001) %MON time_secondsf                =   1.8001500000000E+06
(PID.TID 0000.0001) %MON dynstat_eta_max              =   7.8478869074926E+00
(PID.TID 0000.0001) %MON dynstat_eta_min              =  -1.7241445812179E+00
(PID.TID 0000.0001) %MON dynstat_eta_mean             =   7.1333634848561E-03
(PID.TID 0000.0001) %MON dynstat_eta_sd               =   6.4015031757153E-01
(PID.TID 0000.0001) %MON dynstat_eta_del2             =   7.6063844971553E-03
(PID.TID 0000.0001) %MON dynstat_uvel_max             =   1.8629964720349E-01
(PID.TID 0000.0001) %MON dynstat_uvel_min             =  -2.8789894935316E-01
(PID.TID 0000.0001) %MON dynstat_uvel_mean            =  -4.8763424845220E-04
(PID.TID 0000.0001) %MON dynstat_uvel_sd              =   1.2022029821335E-02
(PID.TID 0000.0001) %MON dynstat_uvel_del2            =   5.1278680061184E-05
(PID.TID 0000.0001) %MON dynstat_vvel_max             =   1.7350013617843E-01
(PID.TID 0000.0001) %MON dynstat_vvel_min             =  -2.2507650442035E-01
(PID.TID 0000.0001) %MON dynstat_vvel_mean            =  -4.0296307166307E-04
(PID.TID 0000.0001) %MON dynstat_vvel_sd              =   1.2637640278026E-02
(PID.TID 0000.0001) %MON dynstat_vvel_del2            =   5.0648196588869E-05
(PID.TID 0000.0001) %MON dynstat_wvel_max             =   2.3933399126725E-03
(PID.TID 0000.0001) %MON dynstat_wvel_min             =  -1.8851892959668E-02
(PID.TID 0000.0001) %MON dynstat_wvel_mean            =  -2.3641032815363E-07
(PID.TID 0000.0001) %MON dynstat_wvel_sd              =   6.1641315873923E-05
(PID.TID 0000.0001) %MON dynstat_wvel_del2            =   1.5530939961088E-06
(PID.TID 0000.0001) %MON dynstat_theta_max            =   3.0925922425855E+01
(PID.TID 0000.0001) %MON dynstat_theta_min            =  -3.0175549309099E+00
(PID.TID 0000.0001) %MON dynstat_theta_mean           =   3.9089251623751E+00
(PID.TID 0000.0001) %MON dynstat_theta_sd             =   4.5705776750193E+00
(PID.TID 0000.0001) %MON dynstat_theta_del2           =   2.6558561566543E-03
(PID.TID 0000.0001) %MON dynstat_salt_max             =   4.1381382803752E+01
(PID.TID 0000.0001) %MON dynstat_salt_min             =   1.8518384078769E+01
(PID.TID 0000.0001) %MON dynstat_salt_mean            =   3.4772193843558E+01
(PID.TID 0000.0001) %MON dynstat_salt_sd              =   5.3097488988641E-01
(PID.TID 0000.0001) %MON dynstat_salt_del2            =   8.0278219512137E-04
(PID.TID 0000.0001) %MON dynstat_sst_max              =   3.0925922425855E+01
(PID.TID 0000.0001) %MON dynstat_sst_min              =  -1.8999936881452E+00
(PID.TID 0000.0001) %MON dynstat_sst_mean             =   1.8098753658815E+01
(PID.TID 0000.0001) %MON dynstat_sst_sd               =   9.8005295530244E+00
(PID.TID 0000.0001) %MON dynstat_sst_del2             =   1.5374534138144E-02
(PID.TID 0000.0001) %MON dynstat_sss_max              =   4.1381382803752E+01
(PID.TID 0000.0001) %MON dynstat_sss_min              =   1.8713018630203E+01
(PID.TID 0000.0001) %MON dynstat_sss_mean             =   3.4641709669200E+01
(PID.TID 0000.0001) %MON dynstat_sss_sd               =   1.4565054939319E+00
(PID.TID 0000.0001) %MON dynstat_sss_del2             =   8.0165108282339E-03
(PID.TID 0000.0001) %MON forcing_qnet_max             =   6.2878112500000E+05
(PID.TID 0000.0001) %MON forcing_qnet_min             =  -1.5337725000000E+05
(PID.TID 0000.0001) %MON forcing_qnet_mean            =   6.4733458842094E+03
(PID.TID 0000.0001) %MON forcing_qnet_sd              =   2.4363271970134E+04
(PID.TID 0000.0001) %MON forcing_qnet_del2            =   6.0132006994270E+02
(PID.TID 0000.0001) %MON forcing_qsw_max              =   0.0000000000000E+00
(PID.TID 0000.0001) %MON forcing_qsw_min              =   0.0000000000000E+00
(PID.TID 0000.0001) %MON forcing_qsw_mean             =   0.0000000000000E+00
(PID.TID 0000.0001) %MON forcing_qsw_sd               =   0.0000000000000E+00
(PID.TID 0000.0001) %MON forcing_qsw_del2             =   0.0000000000000E+00
(PID.TID 0000.0001) %MON forcing_empmr_max            =   2.4771068096161E+00
(PID.TID 0000.0001) %MON forcing_empmr_min            =  -1.9511709213257E+01
(PID.TID 0000.0001) %MON forcing_empmr_mean           =  -1.7904522879500E-02
(PID.TID 0000.0001) %MON forcing_empmr_sd             =   5.5890603414396E-01
(PID.TID 0000.0001) %MON forcing_empmr_del2           =   1.8483411915180E-02
(PID.TID 0000.0001) %MON forcing_fu_max               =   5.1186009419184E-01
(PID.TID 0000.0001) %MON forcing_fu_min               =  -4.4117910165761E-01
(PID.TID 0000.0001) %MON forcing_fu_mean              =  -3.8651212768904E-03
(PID.TID 0000.0001) %MON forcing_fu_sd                =   6.8499635080254E-02
(PID.TID 0000.0001) %MON forcing_fu_del2              =   6.7731597154273E-04
(PID.TID 0000.0001) %MON forcing_fv_max               =   2.7291049847005E-01
(PID.TID 0000.0001) %MON forcing_fv_min               =  -4.5601609633007E-01
(PID.TID 0000.0001) %MON forcing_fv_mean              =  -1.4145467047841E-02
(PID.TID 0000.0001) %MON forcing_fv_sd                =   6.3939205734009E-02
(PID.TID 0000.0001) %MON forcing_fv_del2              =   5.4504829810837E-04
(PID.TID 0000.0001) %MON trAdv_CFL_u_max              =   2.3494543670562E-05
(PID.TID 0000.0001) %MON trAdv_CFL_v_max              =   2.3283565702608E-05
(PID.TID 0000.0001) %MON trAdv_CFL_w_max              =   5.9706432758900E-03
(PID.TID 0000.0001) %MON advcfl_uvel_max              =   2.3626621267787E-05
(PID.TID 0000.0001) %MON advcfl_vvel_max              =   2.1882599841753E-05
(PID.TID 0000.0001) %MON advcfl_wvel_max              =   1.8851892959668E-02
(PID.TID 0000.0001) %MON advcfl_W_hf_max              =   5.9706432758900E-03
(PID.TID 0000.0001) %MON pe_b_mean                    =   5.4598603797562E-04
(PID.TID 0000.0001) %MON ke_max                       =   4.0650719096223E-02
(PID.TID 0000.0001) %MON ke_mean                      =   1.4067617751713E-04
(PID.TID 0000.0001) %MON ke_vol                       =   1.3398048837267E+18
(PID.TID 0000.0001) %MON vort_r_min                   =  -1.1849840931430E-06
(PID.TID 0000.0001) %MON vort_r_max                   =   1.2160608661115E-06
(PID.TID 0000.0001) %MON vort_a_mean                  =  -2.0549865324846E-05
(PID.TID 0000.0001) %MON vort_a_sd                    =   7.5259517251963E-05
(PID.TID 0000.0001) %MON vort_p_mean                  =  -2.4783439616825E-05
(PID.TID 0000.0001) %MON vort_p_sd                    =   1.2811992860678E-04
(PID.TID 0000.0001) %MON surfExpan_theta_mean         =   5.8855129876039E-06
(PID.TID 0000.0001) %MON surfExpan_salt_mean          =   1.1808854803207E-06
(PID.TID 0000.0001) // =======================================================
(PID.TID 0000.0001) // End MONITOR dynamic field statistics
(PID.TID 0000.0001) // =======================================================
 cg2d: Sum(rhs),rhsMax =  -3.84483805504910E+00  2.15953353208102E+05
(PID.TID 0000.0001)      cg2d_init_res =   7.23959783136007E-02
(PID.TID 0000.0001)      cg2d_iters(min,last) =      -1       1
(PID.TID 0000.0001)      cg2d_last_res =   7.20005748185059E-08
(PID.TID 0000.0001) // =======================================================
(PID.TID 0000.0001) // Begin MONITOR dynamic field statistics
(PID.TID 0000.0001) // =======================================================
(PID.TID 0000.0001) %MON time_tsnumber                =                 72007
(PID.TID 0000.0001) %MON time_secondsf                =   1.8001750000000E+06
(PID.TID 0000.0001) %MON dynstat_eta_max              =   8.1800017748466E+00
(PID.TID 0000.0001) %MON dynstat_eta_min              =  -1.7386870109693E+00
(PID.TID 0000.0001) %MON dynstat_eta_mean             =   7.4444767109359E-03
(PID.TID 0000.0001) %MON dynstat_eta_sd               =   6.4356567206151E-01
(PID.TID 0000.0001) %MON dynstat_eta_del2             =   7.9186393920184E-03
(PID.TID 0000.0001) %MON dynstat_uvel_max             =   1.8628575983539E-01
(PID.TID 0000.0001) %MON dynstat_uvel_min             =  -2.8787786111452E-01
(PID.TID 0000.0001) %MON dynstat_uvel_mean            =  -4.8728038242183E-04
(PID.TID 0000.0001) %MON dynstat_uvel_sd              =   1.2022647745800E-02
(PID.TID 0000.0001) %MON dynstat_uvel_del2            =   5.1324117211104E-05
(PID.TID 0000.0001) %MON dynstat_vvel_max             =   1.7350640293749E-01
(PID.TID 0000.0001) %MON dynstat_vvel_min             =  -2.2505868321226E-01
(PID.TID 0000.0001) %MON dynstat_vvel_mean            =  -4.0272571572925E-04
(PID.TID 0000.0001) %MON dynstat_vvel_sd              =   1.2638077926542E-02
(PID.TID 0000.0001) %MON dynstat_vvel_del2            =   5.0720654196846E-05
(PID.TID 0000.0001) %MON dynstat_wvel_max             =   1.6894188480101E-03
(PID.TID 0000.0001) %MON dynstat_wvel_min             =  -1.3307222191262E-02
(PID.TID 0000.0001) %MON dynstat_wvel_mean            =  -1.8699532629643E-07
(PID.TID 0000.0001) %MON dynstat_wvel_sd              =   4.3747808472680E-05
(PID.TID 0000.0001) %MON dynstat_wvel_del2            =   1.0984712136715E-06
(PID.TID 0000.0001) %MON dynstat_theta_max            =   3.0925916346346E+01
(PID.TID 0000.0001) %MON dynstat_theta_min            =  -3.0175591182405E+00
(PID.TID 0000.0001) %MON dynstat_theta_mean           =   3.9089176971697E+00
(PID.TID 0000.0001) %MON dynstat_theta_sd             =   4.5705571434121E+00
(PID.TID 0000.0001) %MON dynstat_theta_del2           =   2.6558285520337E-03
(PID.TID 0000.0001) %MON dynstat_salt_max             =   4.1380316952604E+01
(PID.TID 0000.0001) %MON dynstat_salt_min             =   1.8518384210401E+01
(PID.TID 0000.0001) %MON dynstat_salt_mean            =   3.4772198397746E+01
(PID.TID 0000.0001) %MON dynstat_salt_sd              =   5.3095722022257E-01
(PID.TID 0000.0001) %MON dynstat_salt_del2            =   8.0259425369467E-04
(PID.TID 0000.0001) %MON dynstat_sst_max              =   3.0925916346346E+01
(PID.TID 0000.0001) %MON dynstat_sst_min              =  -1.8999926281560E+00
(PID.TID 0000.0001) %MON dynstat_sst_mean             =   1.8098235470100E+01
(PID.TID 0000.0001) %MON dynstat_sst_sd               =   9.8006154292949E+00
(PID.TID 0000.0001) %MON dynstat_sst_del2             =   1.5373274849981E-02
(PID.TID 0000.0001) %MON dynstat_sss_max              =   4.1380316952604E+01
(PID.TID 0000.0001) %MON dynstat_sss_min              =   1.8725120691349E+01
(PID.TID 0000.0001) %MON dynstat_sss_mean             =   3.4642058098628E+01
(PID.TID 0000.0001) %MON dynstat_sss_sd               =   1.4561745148719E+00
(PID.TID 0000.0001) %MON dynstat_sss_del2             =   8.0133403512995E-03
(PID.TID 0000.0001) %MON forcing_qnet_max             =   4.3726209375000E+05
(PID.TID 0000.0001) %MON forcing_qnet_min             =  -1.0651732812500E+05
(PID.TID 0000.0001) %MON forcing_qnet_mean            =   4.3317681738989E+03
(PID.TID 0000.0001) %MON forcing_qnet_sd              =   1.7163098395255E+04
(PID.TID 0000.0001) %MON forcing_qnet_del2            =   4.2046016839136E+02
(PID.TID 0000.0001) %MON forcing_qsw_max              =   0.0000000000000E+00
(PID.TID 0000.0001) %MON forcing_qsw_min              =   0.0000000000000E+00
(PID.TID 0000.0001) %MON forcing_qsw_mean             =   0.0000000000000E+00
(PID.TID 0000.0001) %MON forcing_qsw_sd               =   0.0000000000000E+00
(PID.TID 0000.0001) %MON forcing_qsw_del2             =   0.0000000000000E+00
(PID.TID 0000.0001) %MON forcing_empmr_max            =   1.7485485076904E+00
(PID.TID 0000.0001) %MON forcing_empmr_min            =  -1.3772974967957E+01
(PID.TID 0000.0001) %MON forcing_empmr_mean           =  -1.2880087559698E-02
(PID.TID 0000.0001) %MON forcing_empmr_sd             =   3.9479950744500E-01
(PID.TID 0000.0001) %MON forcing_empmr_del2           =   1.3061367857747E-02
(PID.TID 0000.0001) %MON forcing_fu_max               =   5.1186009419184E-01
(PID.TID 0000.0001) %MON forcing_fu_min               =  -4.4117910165761E-01
(PID.TID 0000.0001) %MON forcing_fu_mean              =  -3.8651212768904E-03
(PID.TID 0000.0001) %MON forcing_fu_sd                =   6.8499635080254E-02
(PID.TID 0000.0001) %MON forcing_fu_del2              =   6.7731597154273E-04
(PID.TID 0000.0001) %MON forcing_fv_max               =   2.7291049847005E-01
(PID.TID 0000.0001) %MON forcing_fv_min               =  -4.5601609633007E-01
(PID.TID 0000.0001) %MON forcing_fv_mean              =  -1.4145467047841E-02
(PID.TID 0000.0001) %MON forcing_fv_sd                =   6.3939205734009E-02
(PID.TID 0000.0001) %MON forcing_fv_del2              =   5.4504829810837E-04
(PID.TID 0000.0001) %MON trAdv_CFL_u_max              =   2.3492822723761E-05
(PID.TID 0000.0001) %MON trAdv_CFL_v_max              =   2.3284407214778E-05
(PID.TID 0000.0001) %MON trAdv_CFL_w_max              =   4.2120571457939E-03
(PID.TID 0000.0001) %MON advcfl_uvel_max              =   2.3624890647275E-05
(PID.TID 0000.0001) %MON advcfl_vvel_max              =   2.1883390232953E-05
(PID.TID 0000.0001) %MON advcfl_wvel_max              =   1.3307222191262E-02
(PID.TID 0000.0001) %MON advcfl_W_hf_max              =   4.2120571457939E-03
(PID.TID 0000.0001) %MON pe_b_mean                    =   5.5183276242814E-04
(PID.TID 0000.0001) %MON ke_max                       =   4.0642978623876E-02
(PID.TID 0000.0001) %MON ke_mean                      =   1.4068787971601E-04
(PID.TID 0000.0001) %MON ke_vol                       =   1.3398050410991E+18
(PID.TID 0000.0001) %MON vort_r_min                   =  -1.1850813593349E-06
(PID.TID 0000.0001) %MON vort_r_max                   =   1.2162475930008E-06
(PID.TID 0000.0001) %MON vort_a_mean                  =  -2.0549865324846E-05
(PID.TID 0000.0001) %MON vort_a_sd                    =   7.5259517287944E-05
(PID.TID 0000.0001) %MON vort_p_mean                  =  -2.4783437686777E-05
(PID.TID 0000.0001) %MON vort_p_sd                    =   1.2811987764207E-04
(PID.TID 0000.0001) %MON surfExpan_theta_mean         =   2.7096795315921E-06
(PID.TID 0000.0001) %MON surfExpan_salt_mean          =   1.0066041555415E-06
(PID.TID 0000.0001) // =======================================================
(PID.TID 0000.0001) // End MONITOR dynamic field statistics
(PID.TID 0000.0001) // =======================================================
 cg2d: Sum(rhs),rhsMax =  -3.85358765256797E+00  2.21987763018728E+05
(PID.TID 0000.0001)      cg2d_init_res =   4.96976606911479E-02
(PID.TID 0000.0001)      cg2d_iters(min,last) =      -1       1
(PID.TID 0000.0001)      cg2d_last_res =   4.98294999763212E-08
(PID.TID 0000.0001) // =======================================================
(PID.TID 0000.0001) // Begin MONITOR dynamic field statistics
(PID.TID 0000.0001) // =======================================================
(PID.TID 0000.0001) %MON time_tsnumber                =                 72008
(PID.TID 0000.0001) %MON time_secondsf                =   1.8002000000000E+06
(PID.TID 0000.0001) %MON dynstat_eta_max              =   8.4141574136647E+00
(PID.TID 0000.0001) %MON dynstat_eta_min              =  -1.7488321300964E+00
(PID.TID 0000.0001) %MON dynstat_eta_mean             =   7.6699131856512E-03
(PID.TID 0000.0001) %MON dynstat_eta_sd               =   6.4604751293596E-01
(PID.TID 0000.0001) %MON dynstat_eta_del2             =   8.1385205010352E-03
(PID.TID 0000.0001) %MON dynstat_uvel_max             =   1.8627176850034E-01
(PID.TID 0000.0001) %MON dynstat_uvel_min             =  -2.8785677361263E-01
(PID.TID 0000.0001) %MON dynstat_uvel_mean            =  -4.8691607152597E-04
(PID.TID 0000.0001) %MON dynstat_uvel_sd              =   1.2023441928647E-02
(PID.TID 0000.0001) %MON dynstat_uvel_del2            =   5.1382454931377E-05
(PID.TID 0000.0001) %MON dynstat_vvel_max             =   1.7351268255804E-01
(PID.TID 0000.0001) %MON dynstat_vvel_min             =  -2.2504086573098E-01
(PID.TID 0000.0001) %MON dynstat_vvel_mean            =  -4.0248252766817E-04
(PID.TID 0000.0001) %MON dynstat_vvel_sd              =   1.2638708384326E-02
(PID.TID 0000.0001) %MON dynstat_vvel_del2            =   5.0822477822062E-05
(PID.TID 0000.0001) %MON dynstat_wvel_max             =   1.1925298810581E-03
(PID.TID 0000.0001) %MON dynstat_wvel_min             =  -9.3933363467599E-03
(PID.TID 0000.0001) %MON dynstat_wvel_mean            =  -1.5243750696881E-07
(PID.TID 0000.0001) %MON dynstat_wvel_sd              =   3.1212783218977E-05
(PID.TID 0000.0001) %MON dynstat_wvel_del2            =   7.7843248422966E-07
(PID.TID 0000.0001) %MON dynstat_theta_max            =   3.0925910267417E+01
(PID.TID 0000.0001) %MON dynstat_theta_min            =  -3.0175632686539E+00
(PID.TID 0000.0001) %MON dynstat_theta_mean           =   3.9089127929929E+00
(PID.TID 0000.0001) %MON dynstat_theta_sd             =   4.5705434734963E+00
(PID.TID 0000.0001) %MON dynstat_theta_del2           =   2.6558295814457E-03
(PID.TID 0000.0001) %MON dynstat_salt_max             =   4.1379529370927E+01
(PID.TID 0000.0001) %MON dynstat_salt_min             =   1.8518384355708E+01
(PID.TID 0000.0001) %MON dynstat_salt_mean            =   3.4772201496998E+01
(PID.TID 0000.0001) %MON dynstat_salt_sd              =   5.3094497377855E-01
(PID.TID 0000.0001) %MON dynstat_salt_del2            =   8.0246694998993E-04
(PID.TID 0000.0001) %MON dynstat_sst_max              =   3.0925910267417E+01
(PID.TID 0000.0001) %MON dynstat_sst_min              =  -1.8999915676059E+00
(PID.TID 0000.0001) %MON dynstat_sst_mean             =   1.8097898784812E+01
(PID.TID 0000.0001) %MON dynstat_sst_sd               =   9.8006652491709E+00
(PID.TID 0000.0001) %MON dynstat_sst_del2             =   1.5372607448300E-02
(PID.TID 0000.0001) %MON dynstat_sss_max              =   4.1379529370927E+01
(PID.TID 0000.0001) %MON dynstat_sss_min              =   1.8733592439881E+01
(PID.TID 0000.0001) %MON dynstat_sss_mean             =   3.4642293235841E+01
(PID.TID 0000.0001) %MON dynstat_sss_sd               =   1.4559709478125E+00
(PID.TID 0000.0001) %MON dynstat_sss_del2             =   8.0110980399982E-03
(PID.TID 0000.0001) %MON forcing_qnet_max             =   3.0480106250000E+05
(PID.TID 0000.0001) %MON forcing_qnet_min             =  -7.3994023437500E+04
(PID.TID 0000.0001) %MON forcing_qnet_mean            =   2.8495542833114E+03
(PID.TID 0000.0001) %MON forcing_qnet_sd              =   1.2214026499309E+04
(PID.TID 0000.0001) %MON forcing_qnet_del2            =   2.9679725449696E+02
(PID.TID 0000.0001) %MON forcing_qsw_max              =   0.0000000000000E+00
(PID.TID 0000.0001) %MON forcing_qsw_min              =   0.0000000000000E+00
(PID.TID 0000.0001) %MON forcing_qsw_mean             =   0.0000000000000E+00
(PID.TID 0000.0001) %MON forcing_qsw_sd               =   0.0000000000000E+00
(PID.TID 0000.0001) %MON forcing_qsw_del2             =   0.0000000000000E+00
(PID.TID 0000.0001) %MON forcing_empmr_max            =   1.2342684268951E+00
(PID.TID 0000.0001) %MON forcing_empmr_min            =  -9.7221031188965E+00
(PID.TID 0000.0001) %MON forcing_empmr_mean           =  -9.3330700531958E-03
(PID.TID 0000.0001) %MON forcing_empmr_sd             =   2.7907535742023E-01
(PID.TID 0000.0001) %MON forcing_empmr_del2           =   9.2392964537378E-03
(PID.TID 0000.0001) %MON forcing_fu_max               =   5.1186009419184E-01
(PID.TID 0000.0001) %MON forcing_fu_min               =  -4.4117910165761E-01
(PID.TID 0000.0001) %MON forcing_fu_mean              =  -3.8651212768904E-03
(PID.TID 0000.0001) %MON forcing_fu_sd                =   6.8499635080254E-02
(PID.TID 0000.0001) %MON forcing_fu_del2              =   6.7731597154273E-04
(PID.TID 0000.0001) %MON forcing_fv_max               =   2.7291049847005E-01
(PID.TID 0000.0001) %MON forcing_fv_min               =  -4.5601609633007E-01
(PID.TID 0000.0001) %MON forcing_fv_mean              =  -1.4145467047841E-02
(PID.TID 0000.0001) %MON forcing_fv_sd                =   6.3939205734009E-02
(PID.TID 0000.0001) %MON forcing_fv_del2              =   5.4504829810837E-04
(PID.TID 0000.0001) %MON trAdv_CFL_u_max              =   2.3491101836919E-05
(PID.TID 0000.0001) %MON trAdv_CFL_v_max              =   2.3285250303923E-05
(PID.TID 0000.0001) %MON trAdv_CFL_w_max              =   2.9719769871469E-03
(PID.TID 0000.0001) %MON advcfl_uvel_max              =   2.3623160087222E-05
(PID.TID 0000.0001) %MON advcfl_vvel_max              =   2.1884182246300E-05
(PID.TID 0000.0001) %MON advcfl_wvel_max              =   9.3933363467599E-03
(PID.TID 0000.0001) %MON advcfl_W_hf_max              =   2.9719769871469E-03
(PID.TID 0000.0001) %MON pe_b_mean                    =   5.5610105663031E-04
(PID.TID 0000.0001) %MON ke_max                       =   4.0635239570592E-02
(PID.TID 0000.0001) %MON ke_mean                      =   1.4070378475187E-04
(PID.TID 0000.0001) %MON ke_vol                       =   1.3398051543091E+18
(PID.TID 0000.0001) %MON vort_r_min                   =  -1.1851790274834E-06
(PID.TID 0000.0001) %MON vort_r_max                   =   1.2164348168308E-06
(PID.TID 0000.0001) %MON vort_a_mean                  =  -2.0549865324846E-05
(PID.TID 0000.0001) %MON vort_a_sd                    =   7.5259517326008E-05
(PID.TID 0000.0001) %MON vort_p_mean                  =  -2.4783436290029E-05
(PID.TID 0000.0001) %MON vort_p_sd                    =   1.2811984116909E-04
(PID.TID 0000.0001) %MON surfExpan_theta_mean         =   4.4203740989348E-07
(PID.TID 0000.0001) %MON surfExpan_salt_mean          =   8.8638753559947E-07
(PID.TID 0000.0001) // =======================================================
(PID.TID 0000.0001) // End MONITOR dynamic field statistics
(PID.TID 0000.0001) // =======================================================
 cg2d: Sum(rhs),rhsMax =  -3.86246671769241E+00  2.26240426323198E+05
(PID.TID 0000.0001)      cg2d_init_res =   3.44261783119030E-02
(PID.TID 0000.0001)      cg2d_iters(min,last) =      -1       1
(PID.TID 0000.0001)      cg2d_last_res =   3.52360258439480E-08
(PID.TID 0000.0001) // =======================================================
(PID.TID 0000.0001) // Begin MONITOR dynamic field statistics
(PID.TID 0000.0001) // =======================================================
(PID.TID 0000.0001) %MON time_tsnumber                =                 72009
(PID.TID 0000.0001) %MON time_secondsf                =   1.8002250000000E+06
(PID.TID 0000.0001) %MON dynstat_eta_max              =   8.5791302071594E+00
(PID.TID 0000.0001) %MON dynstat_eta_min              =  -1.7558582968270E+00
(PID.TID 0000.0001) %MON dynstat_eta_mean             =   7.8348580491171E-03
(PID.TID 0000.0001) %MON dynstat_eta_sd               =   6.4783241177173E-01
(PID.TID 0000.0001) %MON dynstat_eta_del2             =   8.2930742484782E-03
(PID.TID 0000.0001) %MON dynstat_uvel_max             =   1.8625767332296E-01
(PID.TID 0000.0001) %MON dynstat_uvel_min             =  -2.8783568689975E-01
(PID.TID 0000.0001) %MON dynstat_uvel_mean            =  -4.8654424925883E-04
(PID.TID 0000.0001) %MON dynstat_uvel_sd              =   1.2024416932896E-02
(PID.TID 0000.0001) %MON dynstat_uvel_del2            =   5.1453950753592E-05
(PID.TID 0000.0001) %MON dynstat_vvel_max             =   1.7351897832371E-01
(PID.TID 0000.0001) %MON dynstat_vvel_min             =  -2.2502304940619E-01
(PID.TID 0000.0001) %MON dynstat_vvel_mean            =  -4.0223556465467E-04
(PID.TID 0000.0001) %MON dynstat_vvel_sd              =   1.2639535694524E-02
(PID.TID 0000.0001) %MON dynstat_vvel_del2            =   5.0954509147349E-05
(PID.TID 0000.0001) %MON dynstat_wvel_max             =   8.4179000578065E-04
(PID.TID 0000.0001) %MON dynstat_wvel_min             =  -6.6305902269151E-03
(PID.TID 0000.0001) %MON dynstat_wvel_mean            =  -1.2830539082326E-07
(PID.TID 0000.0001) %MON dynstat_wvel_sd              =   2.2495888011385E-05
(PID.TID 0000.0001) %MON dynstat_wvel_del2            =   5.5375185607074E-07
(PID.TID 0000.0001) %MON dynstat_theta_max            =   3.0925904189067E+01
(PID.TID 0000.0001) %MON dynstat_theta_min            =  -3.0175673906786E+00
(PID.TID 0000.0001) %MON dynstat_theta_mean           =   3.9089096628412E+00
(PID.TID 0000.0001) %MON dynstat_theta_sd             =   4.5705345645518E+00
(PID.TID 0000.0001) %MON dynstat_theta_del2           =   2.6558468901133E-03
(PID.TID 0000.0001) %MON dynstat_salt_max             =   4.1378957804953E+01
(PID.TID 0000.0001) %MON dynstat_salt_min             =   1.8518384513657E+01
(PID.TID 0000.0001) %MON dynstat_salt_mean            =   3.4772203585407E+01
(PID.TID 0000.0001) %MON dynstat_salt_sd              =   5.3093649548464E-01
(PID.TID 0000.0001) %MON dynstat_salt_del2            =   8.0238192883115E-04
(PID.TID 0000.0001) %MON dynstat_sst_max              =   3.0925904189067E+01
(PID.TID 0000.0001) %MON dynstat_sst_min              =  -1.8999905065857E+00
(PID.TID 0000.0001) %MON dynstat_sst_mean             =   1.8097687368259E+01
(PID.TID 0000.0001) %MON dynstat_sst_sd               =   9.8006907750884E+00
(PID.TID 0000.0001) %MON dynstat_sst_del2             =   1.5372298803806E-02
(PID.TID 0000.0001) %MON dynstat_sss_max              =   4.1378957804953E+01
(PID.TID 0000.0001) %MON dynstat_sss_min              =   1.8739522969651E+01
(PID.TID 0000.0001) %MON dynstat_sss_mean             =   3.4642449971119E+01
(PID.TID 0000.0001) %MON dynstat_sss_sd               =   1.4558528309944E+00
(PID.TID 0000.0001) %MON dynstat_sss_del2             =   8.0095178448332E-03
(PID.TID 0000.0001) %MON forcing_qnet_max             =   2.1281912500000E+05
(PID.TID 0000.0001) %MON forcing_qnet_min             =  -5.1382617187500E+04
(PID.TID 0000.0001) %MON forcing_qnet_mean            =   1.8244966583411E+03
(PID.TID 0000.0001) %MON forcing_qnet_sd              =   8.8334032447332E+03
(PID.TID 0000.0001) %MON forcing_qnet_del2            =   2.1294812052126E+02
(PID.TID 0000.0001) %MON forcing_qsw_max              =   0.0000000000000E+00
(PID.TID 0000.0001) %MON forcing_qsw_min              =   0.0000000000000E+00
(PID.TID 0000.0001) %MON forcing_qsw_mean             =   0.0000000000000E+00
(PID.TID 0000.0001) %MON forcing_qsw_sd               =   0.0000000000000E+00
(PID.TID 0000.0001) %MON forcing_qsw_del2             =   0.0000000000000E+00
(PID.TID 0000.0001) %MON forcing_empmr_max            =   8.7125265598297E-01
(PID.TID 0000.0001) %MON forcing_empmr_min            =  -6.8626608848572E+00
(PID.TID 0000.0001) %MON forcing_empmr_mean           =  -6.8287173475105E-03
(PID.TID 0000.0001) %MON forcing_empmr_sd             =   1.9754982614271E-01
(PID.TID 0000.0001) %MON forcing_empmr_del2           =   6.5486993047214E-03
(PID.TID 0000.0001) %MON forcing_fu_max               =   5.1186009419184E-01
(PID.TID 0000.0001) %MON forcing_fu_min               =  -4.4117910165761E-01
(PID.TID 0000.0001) %MON forcing_fu_mean              =  -3.8651212768904E-03
(PID.TID 0000.0001) %MON forcing_fu_sd                =   6.8499635080254E-02
(PID.TID 0000.0001) %MON forcing_fu_del2              =   6.7731597154273E-04
(PID.TID 0000.0001) %MON forcing_fv_max               =   2.7291049847005E-01
(PID.TID 0000.0001) %MON forcing_fv_min               =  -4.5601609633007E-01
(PID.TID 0000.0001) %MON forcing_fv_mean              =  -1.4145467047841E-02
(PID.TID 0000.0001) %MON forcing_fv_sd                =   6.3939205734009E-02
(PID.TID 0000.0001) %MON forcing_fv_del2              =   5.4504829810837E-04
(PID.TID 0000.0001) %MON trAdv_CFL_u_max              =   2.3489381014303E-05
(PID.TID 0000.0001) %MON trAdv_CFL_v_max              =   2.3286095453009E-05
(PID.TID 0000.0001) %MON trAdv_CFL_w_max              =   2.0972652304560E-03
(PID.TID 0000.0001) %MON advcfl_uvel_max              =   2.3621429591922E-05
(PID.TID 0000.0001) %MON advcfl_vvel_max              =   2.1884976295941E-05
(PID.TID 0000.0001) %MON advcfl_wvel_max              =   6.6305902269151E-03
(PID.TID 0000.0001) %MON advcfl_W_hf_max              =   2.0972652304560E-03
(PID.TID 0000.0001) %MON pe_b_mean                    =   5.5918103034959E-04
(PID.TID 0000.0001) %MON ke_max                       =   4.0627501942202E-02
(PID.TID 0000.0001) %MON ke_mean                      =   1.4072399278725E-04
(PID.TID 0000.0001) %MON ke_vol                       =   1.3398052363424E+18
(PID.TID 0000.0001) %MON vort_r_min                   =  -1.1852770949619E-06
(PID.TID 0000.0001) %MON vort_r_max                   =   1.2166225385959E-06
(PID.TID 0000.0001) %MON vort_a_mean                  =  -2.0549865324846E-05
(PID.TID 0000.0001) %MON vort_a_sd                    =   7.5259517365701E-05
(PID.TID 0000.0001) %MON vort_p_mean                  =  -2.4783435269639E-05
(PID.TID 0000.0001) %MON vort_p_sd                    =   1.2811981488312E-04
(PID.TID 0000.0001) %MON surfExpan_theta_mean         =  -1.1659874134678E-06
(PID.TID 0000.0001) %MON surfExpan_salt_mean          =   8.0356959993981E-07
(PID.TID 0000.0001) // =======================================================
(PID.TID 0000.0001) // End MONITOR dynamic field statistics
(PID.TID 0000.0001) // =======================================================
 cg2d: Sum(rhs),rhsMax =  -3.87149098437204E+00  2.29234615169524E+05
(PID.TID 0000.0001)      cg2d_init_res =   2.40222353794488E-02
(PID.TID 0000.0001)      cg2d_iters(min,last) =      -1       1
(PID.TID 0000.0001)      cg2d_last_res =   2.57960198653514E-08
(PID.TID 0000.0001) // =======================================================
(PID.TID 0000.0001) // Begin MONITOR dynamic field statistics
(PID.TID 0000.0001) // =======================================================
(PID.TID 0000.0001) %MON time_tsnumber                =                 72010
(PID.TID 0000.0001) %MON time_secondsf                =   1.8002500000000E+06
(PID.TID 0000.0001) %MON dynstat_eta_max              =   8.6952330238364E+00
(PID.TID 0000.0001) %MON dynstat_eta_min              =  -1.7606679202810E+00
(PID.TID 0000.0001) %MON dynstat_eta_mean             =   7.9570964459652E-03
(PID.TID 0000.0001) %MON dynstat_eta_sd               =   6.4910640541179E-01
(PID.TID 0000.0001) %MON dynstat_eta_del2             =   8.4014153272803E-03
(PID.TID 0000.0001) %MON dynstat_uvel_max             =   1.8624347442500E-01
(PID.TID 0000.0001) %MON dynstat_uvel_min             =  -2.8781460102574E-01
(PID.TID 0000.0001) %MON dynstat_uvel_mean            =  -4.8616694020743E-04
(PID.TID 0000.0001) %MON dynstat_uvel_sd              =   1.2025574987091E-02
(PID.TID 0000.0001) %MON dynstat_uvel_del2            =   5.1538687728086E-05
(PID.TID 0000.0001) %MON dynstat_vvel_max             =   1.7352529226769E-01
(PID.TID 0000.0001) %MON dynstat_vvel_min             =  -2.2500523340732E-01
(PID.TID 0000.0001) %MON dynstat_vvel_mean            =  -4.0198624491742E-04
(PID.TID 0000.0001) %MON dynstat_vvel_sd              =   1.2640561416484E-02
(PID.TID 0000.0001) %MON dynstat_vvel_del2            =   5.1117052460138E-05
(PID.TID 0000.0001) %MON dynstat_wvel_max             =   5.9419956760130E-04
(PID.TID 0000.0001) %MON dynstat_wvel_min             =  -4.6804160887492E-03
(PID.TID 0000.0001) %MON dynstat_wvel_mean            =  -1.1168821572105E-07
(PID.TID 0000.0001) %MON dynstat_wvel_sd              =   1.6517449236742E-05
(PID.TID 0000.0001) %MON dynstat_wvel_del2            =   3.9686037852388E-07
(PID.TID 0000.0001) %MON dynstat_theta_max            =   3.0925898111295E+01
(PID.TID 0000.0001) %MON dynstat_theta_min            =  -3.0175714686817E+00
(PID.TID 0000.0001) %MON dynstat_theta_mean           =   3.9089077599726E+00
(PID.TID 0000.0001) %MON dynstat_theta_sd             =   4.5705289555764E+00
(PID.TID 0000.0001) %MON dynstat_theta_del2           =   2.6558725036537E-03
(PID.TID 0000.0001) %MON dynstat_salt_max             =   4.1378548013790E+01
(PID.TID 0000.0001) %MON dynstat_salt_min             =   1.8518384682968E+01
(PID.TID 0000.0001) %MON dynstat_salt_mean            =   3.4772204971382E+01
(PID.TID 0000.0001) %MON dynstat_salt_sd              =   5.3093063974819E-01
(PID.TID 0000.0001) %MON dynstat_salt_del2            =   8.0232621278487E-04
(PID.TID 0000.0001) %MON dynstat_sst_max              =   3.0925898111295E+01
(PID.TID 0000.0001) %MON dynstat_sst_min              =  -1.8999894451543E+00
(PID.TID 0000.0001) %MON dynstat_sst_mean             =   1.8097561908281E+01
(PID.TID 0000.0001) %MON dynstat_sst_sd               =   9.8006999960225E+00
(PID.TID 0000.0001) %MON dynstat_sst_del2             =   1.5372186604149E-02
(PID.TID 0000.0001) %MON dynstat_sss_max              =   4.1378548013790E+01
(PID.TID 0000.0001) %MON dynstat_sss_min              =   1.8743674565320E+01
(PID.TID 0000.0001) %MON dynstat_sss_mean             =   3.4642552401428E+01
(PID.TID 0000.0001) %MON dynstat_sss_sd               =   1.4557920512661E+00
(PID.TID 0000.0001) %MON dynstat_sss_del2             =   8.0084043387635E-03
(PID.TID 0000.0001) %MON forcing_qnet_max             =   1.4876903125000E+05
(PID.TID 0000.0001) %MON forcing_qnet_min             =  -4.0601253906250E+04
(PID.TID 0000.0001) %MON forcing_qnet_mean            =   1.1164528249404E+03
(PID.TID 0000.0001) %MON forcing_qnet_sd              =   6.5499425224920E+03
(PID.TID 0000.0001) %MON forcing_qnet_del2            =   1.5697885623712E+02
(PID.TID 0000.0001) %MON forcing_qsw_max              =   0.0000000000000E+00
(PID.TID 0000.0001) %MON forcing_qsw_min              =   0.0000000000000E+00
(PID.TID 0000.0001) %MON forcing_qsw_mean             =   0.0000000000000E+00
(PID.TID 0000.0001) %MON forcing_qsw_sd               =   0.0000000000000E+00
(PID.TID 0000.0001) %MON forcing_qsw_del2             =   0.0000000000000E+00
(PID.TID 0000.0001) %MON forcing_empmr_max            =   6.1499655246735E-01
(PID.TID 0000.0001) %MON forcing_empmr_min            =  -4.8442306518555E+00
(PID.TID 0000.0001) %MON forcing_empmr_mean           =  -5.0606696295162E-03
(PID.TID 0000.0001) %MON forcing_empmr_sd             =   1.4022848292475E-01
(PID.TID 0000.0001) %MON forcing_empmr_del2           =   4.6596453004653E-03
(PID.TID 0000.0001) %MON forcing_fu_max               =   5.1186009419184E-01
(PID.TID 0000.0001) %MON forcing_fu_min               =  -4.4117910165761E-01
(PID.TID 0000.0001) %MON forcing_fu_mean              =  -3.8651212768904E-03
(PID.TID 0000.0001) %MON forcing_fu_sd                =   6.8499635080254E-02
(PID.TID 0000.0001) %MON forcing_fu_del2              =   6.7731597154273E-04
(PID.TID 0000.0001) %MON forcing_fv_max               =   2.7291049847005E-01
(PID.TID 0000.0001) %MON forcing_fv_min               =  -4.5601609633007E-01
(PID.TID 0000.0001) %MON forcing_fv_mean              =  -1.4145467047841E-02
(PID.TID 0000.0001) %MON forcing_fv_sd                =   6.3939205734009E-02
(PID.TID 0000.0001) %MON forcing_fv_del2              =   5.4504829810837E-04
(PID.TID 0000.0001) %MON trAdv_CFL_u_max              =   2.3487660259981E-05
(PID.TID 0000.0001) %MON trAdv_CFL_v_max              =   2.3286942968442E-05
(PID.TID 0000.0001) %MON trAdv_CFL_w_max              =   1.4801351682903E-03
(PID.TID 0000.0001) %MON advcfl_uvel_max              =   2.3619699165463E-05
(PID.TID 0000.0001) %MON advcfl_vvel_max              =   2.1885772638310E-05
(PID.TID 0000.0001) %MON advcfl_wvel_max              =   4.6804160887492E-03
(PID.TID 0000.0001) %MON advcfl_W_hf_max              =   1.4801351682903E-03
(PID.TID 0000.0001) %MON pe_b_mean                    =   5.6138473025774E-04
(PID.TID 0000.0001) %MON ke_max                       =   4.0619765744797E-02
(PID.TID 0000.0001) %MON ke_mean                      =   1.4074854878156E-04
(PID.TID 0000.0001) %MON ke_vol                       =   1.3398052963637E+18
(PID.TID 0000.0001) %MON vort_r_min                   =  -1.1853755589546E-06
(PID.TID 0000.0001) %MON vort_r_max                   =   1.2168107592522E-06
(PID.TID 0000.0001) %MON vort_a_mean                  =  -2.0549865324846E-05
(PID.TID 0000.0001) %MON vort_a_sd                    =   7.5259517406710E-05
(PID.TID 0000.0001) %MON vort_p_mean                  =  -2.4783434514856E-05
(PID.TID 0000.0001) %MON vort_p_sd                    =   1.2811979576771E-04
(PID.TID 0000.0001) %MON surfExpan_theta_mean         =  -2.3059159126227E-06
(PID.TID 0000.0001) %MON surfExpan_salt_mean          =   7.4659129622526E-07
(PID.TID 0000.0001) // =======================================================
(PID.TID 0000.0001) // End MONITOR dynamic field statistics
(PID.TID 0000.0001) // =======================================================
 cg2d: Sum(rhs),rhsMax =  -3.88065542230437E+00  2.31339698127715E+05
(PID.TID 0000.0001)      cg2d_init_res =   1.68933150207322E-02
(PID.TID 0000.0001)      cg2d_iters(min,last) =      -1       1
(PID.TID 0000.0001)      cg2d_last_res =   2.00201256525366E-08
(PID.TID 0000.0001) // =======================================================
(PID.TID 0000.0001) // Begin MONITOR dynamic field statistics
(PID.TID 0000.0001) // =======================================================
(PID.TID 0000.0001) %MON time_tsnumber                =                 72011
(PID.TID 0000.0001) %MON time_secondsf                =   1.8002750000000E+06
(PID.TID 0000.0001) %MON dynstat_eta_max              =   8.7768044609600E+00
(PID.TID 0000.0001) %MON dynstat_eta_min              =  -1.7638981618627E+00
(PID.TID 0000.0001) %MON dynstat_eta_mean             =   8.0491758977068E-03
(PID.TID 0000.0001) %MON dynstat_eta_sd               =   6.5001012280620E-01
(PID.TID 0000.0001) %MON dynstat_eta_del2             =   8.4770465502385E-03
(PID.TID 0000.0001) %MON dynstat_uvel_max             =   1.8622917192499E-01
(PID.TID 0000.0001) %MON dynstat_uvel_min             =  -2.8779351604677E-01
(PID.TID 0000.0001) %MON dynstat_uvel_mean            =  -4.8578552934482E-04
(PID.TID 0000.0001) %MON dynstat_uvel_sd              =   1.2026916847954E-02
(PID.TID 0000.0001) %MON dynstat_uvel_del2            =   5.1636635829108E-05
(PID.TID 0000.0001) %MON dynstat_vvel_max             =   1.7353162549747E-01
(PID.TID 0000.0001) %MON dynstat_vvel_min             =  -2.2498741673163E-01
(PID.TID 0000.0001) %MON dynstat_vvel_mean            =  -4.0173553718364E-04
(PID.TID 0000.0001) %MON dynstat_vvel_sd              =   1.2641785565152E-02
(PID.TID 0000.0001) %MON dynstat_vvel_del2            =   5.1310049297704E-05
(PID.TID 0000.0001) %MON dynstat_wvel_max             =   4.1943811564054E-04
(PID.TID 0000.0001) %MON dynstat_wvel_min             =  -3.3038243003513E-03
(PID.TID 0000.0001) %MON dynstat_wvel_mean            =  -1.0020572285898E-07
(PID.TID 0000.0001) %MON dynstat_wvel_sd              =   1.2516633030911E-05
(PID.TID 0000.0001) %MON dynstat_wvel_del2            =   2.8842081246039E-07
(PID.TID 0000.0001) %MON dynstat_theta_max            =   3.0925892034099E+01
(PID.TID 0000.0001) %MON dynstat_theta_min            =  -3.0175755006910E+00
(PID.TID 0000.0001) %MON dynstat_theta_mean           =   3.9089067043778E+00
(PID.TID 0000.0001) %MON dynstat_theta_sd             =   4.5705254277763E+00
(PID.TID 0000.0001) %MON dynstat_theta_del2           =   2.6558599260263E-03
(PID.TID 0000.0001) %MON dynstat_salt_max             =   4.1378256139237E+01
(PID.TID 0000.0001) %MON dynstat_salt_min             =   1.8518384861716E+01
(PID.TID 0000.0001) %MON dynstat_salt_mean            =   3.4772205869122E+01
(PID.TID 0000.0001) %MON dynstat_salt_sd              =   5.3092652617353E-01
(PID.TID 0000.0001) %MON dynstat_salt_del2            =   8.0228613954787E-04
(PID.TID 0000.0001) %MON dynstat_sst_max              =   3.0925892034099E+01
(PID.TID 0000.0001) %MON dynstat_sst_min              =  -1.8999883833555E+00
(PID.TID 0000.0001) %MON dynstat_sst_mean             =   1.8097464973459E+01
(PID.TID 0000.0001) %MON dynstat_sst_sd               =   9.8007115842306E+00
(PID.TID 0000.0001) %MON dynstat_sst_del2             =   1.5371659849611E-02
(PID.TID 0000.0001) %MON dynstat_sss_max              =   4.1378256139237E+01
(PID.TID 0000.0001) %MON dynstat_sss_min              =   1.8746580809857E+01
(PID.TID 0000.0001) %MON dynstat_sss_mean             =   3.4642610552167E+01
(PID.TID 0000.0001) %MON dynstat_sss_sd               =   1.4558408167727E+00
(PID.TID 0000.0001) %MON dynstat_sss_del2             =   8.0075942875403E-03
(PID.TID 0000.0001) %MON forcing_qnet_max             =   1.0407560156250E+05
(PID.TID 0000.0001) %MON forcing_qnet_min             =  -3.9217402343750E+04
(PID.TID 0000.0001) %MON forcing_qnet_mean            =   6.2837431316375E+02
(PID.TID 0000.0001) %MON forcing_qnet_sd              =   5.0332253733507E+03
(PID.TID 0000.0001) %MON forcing_qnet_del2            =   1.2053067540599E+02
(PID.TID 0000.0001) %MON forcing_qsw_max              =   0.0000000000000E+00
(PID.TID 0000.0001) %MON forcing_qsw_min              =   0.0000000000000E+00
(PID.TID 0000.0001) %MON forcing_qsw_mean             =   0.0000000000000E+00
(PID.TID 0000.0001) %MON forcing_qsw_sd               =   0.0000000000000E+00
(PID.TID 0000.0001) %MON forcing_qsw_del2             =   0.0000000000000E+00
(PID.TID 0000.0001) %MON forcing_empmr_max            =   4.3411844968796E-01
(PID.TID 0000.0001) %MON forcing_empmr_min            =  -3.4194581508636E+00
(PID.TID 0000.0001) %MON forcing_empmr_mean           =  -3.8120893020996E-03
(PID.TID 0000.0001) %MON forcing_empmr_sd             =   1.0007875053880E-01
(PID.TID 0000.0001) %MON forcing_empmr_del2           =   3.3401635249408E-03
(PID.TID 0000.0001) %MON forcing_fu_max               =   5.1186009419184E-01
(PID.TID 0000.0001) %MON forcing_fu_min               =  -4.4117910165761E-01
(PID.TID 0000.0001) %MON forcing_fu_mean              =  -3.8651212768904E-03
(PID.TID 0000.0001) %MON forcing_fu_sd                =   6.8499635080254E-02
(PID.TID 0000.0001) %MON forcing_fu_del2              =   6.7731597154273E-04
(PID.TID 0000.0001) %MON forcing_fv_max               =   2.7291049847005E-01
(PID.TID 0000.0001) %MON forcing_fv_min               =  -4.5601609633007E-01
(PID.TID 0000.0001) %MON forcing_fv_mean              =  -1.4145467047841E-02
(PID.TID 0000.0001) %MON forcing_fv_sd                =   6.3939205734009E-02
(PID.TID 0000.0001) %MON forcing_fv_del2              =   5.4504829810837E-04
(PID.TID 0000.0001) %MON trAdv_CFL_u_max              =   2.3485939578538E-05
(PID.TID 0000.0001) %MON trAdv_CFL_v_max              =   2.3287793021480E-05
(PID.TID 0000.0001) %MON trAdv_CFL_w_max              =   1.0446750465416E-03
(PID.TID 0000.0001) %MON advcfl_uvel_max              =   2.3617968812457E-05
(PID.TID 0000.0001) %MON advcfl_vvel_max              =   2.1886571413090E-05
(PID.TID 0000.0001) %MON advcfl_wvel_max              =   3.3038243003513E-03
(PID.TID 0000.0001) %MON advcfl_W_hf_max              =   1.0446750465416E-03
(PID.TID 0000.0001) %MON pe_b_mean                    =   5.6295070219121E-04
(PID.TID 0000.0001) %MON ke_max                       =   4.0612030984668E-02
(PID.TID 0000.0001) %MON ke_mean                      =   1.4077746317766E-04
(PID.TID 0000.0001) %MON ke_vol                       =   1.3398053408446E+18
(PID.TID 0000.0001) %MON vort_r_min                   =  -1.1854744164652E-06
(PID.TID 0000.0001) %MON vort_r_max                   =   1.2169994797777E-06
(PID.TID 0000.0001) %MON vort_a_mean                  =  -2.0549865324846E-05
(PID.TID 0000.0001) %MON vort_a_sd                    =   7.5259517448813E-05
(PID.TID 0000.0001) %MON vort_p_mean                  =  -2.4783433947455E-05
(PID.TID 0000.0001) %MON vort_p_sd                    =   1.2811978170415E-04
(PID.TID 0000.0001) %MON surfExpan_theta_mean         =  -3.1099244899424E-06
(PID.TID 0000.0001) %MON surfExpan_salt_mean          =   7.0758109897572E-07
(PID.TID 0000.0001) // =======================================================
(PID.TID 0000.0001) // End MONITOR dynamic field statistics
(PID.TID 0000.0001) // =======================================================
 cg2d: Sum(rhs),rhsMax =  -3.88995011228874E+00  2.32816412684031E+05
(PID.TID 0000.0001)      cg2d_init_res =   1.20163588791481E-02
(PID.TID 0000.0001)      cg2d_iters(min,last) =      -1       1
(PID.TID 0000.0001)      cg2d_last_res =   1.68791230214948E-08
(PID.TID 0000.0001) // =======================================================
(PID.TID 0000.0001) // Begin MONITOR dynamic field statistics
(PID.TID 0000.0001) // =======================================================
(PID.TID 0000.0001) %MON time_tsnumber                =                 72012
(PID.TID 0000.0001) %MON time_secondsf                =   1.8003000000000E+06
(PID.TID 0000.0001) %MON dynstat_eta_max              =   8.8339658784093E+00
(PID.TID 0000.0001) %MON dynstat_eta_min              =  -1.7659986156154E+00
(PID.TID 0000.0001) %MON dynstat_eta_mean             =   8.1199582549642E-03
(PID.TID 0000.0001) %MON dynstat_eta_sd               =   6.5064740155695E-01
(PID.TID 0000.0001) %MON dynstat_eta_del2             =   8.5295045567075E-03
(PID.TID 0000.0001) %MON dynstat_uvel_max             =   1.8621476593777E-01
(PID.TID 0000.0001) %MON dynstat_uvel_min             =  -2.8777243201198E-01
(PID.TID 0000.0001) %MON dynstat_uvel_mean            =  -4.8540095138404E-04
(PID.TID 0000.0001) %MON dynstat_uvel_sd              =   1.2028442371108E-02
(PID.TID 0000.0001) %MON dynstat_uvel_del2            =   5.1747693207340E-05
(PID.TID 0000.0001) %MON dynstat_vvel_max             =   1.7353797909902E-01
(PID.TID 0000.0001) %MON dynstat_vvel_min             =  -2.2496959888354E-01
(PID.TID 0000.0001) %MON dynstat_vvel_mean            =  -4.0148410000922E-04
(PID.TID 0000.0001) %MON dynstat_vvel_sd              =   1.2643207234346E-02
(PID.TID 0000.0001) %MON dynstat_vvel_del2            =   5.1533198302917E-05
(PID.TID 0000.0001) %MON dynstat_wvel_max             =   2.9607374886960E-04
(PID.TID 0000.0001) %MON dynstat_wvel_min             =  -2.3321124090665E-03
(PID.TID 0000.0001) %MON dynstat_wvel_mean            =  -9.2458458823358E-08
(PID.TID 0000.0001) %MON dynstat_wvel_sd              =   9.9428500728780E-06
(PID.TID 0000.0001) %MON dynstat_wvel_del2            =   2.1485709168379E-07
(PID.TID 0000.0001) %MON dynstat_theta_max            =   3.0925885957479E+01
(PID.TID 0000.0001) %MON dynstat_theta_min            =  -3.0175794856403E+00
(PID.TID 0000.0001) %MON dynstat_theta_mean           =   3.9089062371927E+00
(PID.TID 0000.0001) %MON dynstat_theta_sd             =   4.5705235452377E+00
(PID.TID 0000.0001) %MON dynstat_theta_del2           =   2.6558710778817E-03
(PID.TID 0000.0001) %MON dynstat_salt_max             =   4.1378049362282E+01
(PID.TID 0000.0001) %MON dynstat_salt_min             =   1.8518385059350E+01
(PID.TID 0000.0001) %MON dynstat_salt_mean            =   3.4772206428454E+01
(PID.TID 0000.0001) %MON dynstat_salt_sd              =   5.3092367990533E-01
(PID.TID 0000.0001) %MON dynstat_salt_del2            =   8.0226296719642E-04
(PID.TID 0000.0001) %MON dynstat_sst_max              =   3.0925885957479E+01
(PID.TID 0000.0001) %MON dynstat_sst_min              =  -1.8999873212184E+00
(PID.TID 0000.0001) %MON dynstat_sst_mean             =   1.8097412834238E+01
(PID.TID 0000.0001) %MON dynstat_sst_sd               =   9.8007145734989E+00
(PID.TID 0000.0001) %MON dynstat_sst_del2             =   1.5371559999878E-02
(PID.TID 0000.0001) %MON dynstat_sss_max              =   4.1378049362282E+01
(PID.TID 0000.0001) %MON dynstat_sss_min              =   1.8748615334251E+01
(PID.TID 0000.0001) %MON dynstat_sss_mean             =   3.4642643754273E+01
(PID.TID 0000.0001) %MON dynstat_sss_sd               =   1.4559040620827E+00
(PID.TID 0000.0001) %MON dynstat_sss_del2             =   8.0070446052076E-03
(PID.TID 0000.0001) %MON forcing_qnet_max             =   7.2854023437500E+04
(PID.TID 0000.0001) %MON forcing_qnet_min             =  -3.7892023437500E+04
(PID.TID 0000.0001) %MON forcing_qnet_mean            =   2.8979934533340E+02
(PID.TID 0000.0001) %MON forcing_qnet_sd              =   4.0452915817622E+03
(PID.TID 0000.0001) %MON forcing_qnet_del2            =   9.7506278940409E+01
(PID.TID 0000.0001) %MON forcing_qsw_max              =   0.0000000000000E+00
(PID.TID 0000.0001) %MON forcing_qsw_min              =   0.0000000000000E+00
(PID.TID 0000.0001) %MON forcing_qsw_mean             =   0.0000000000000E+00
(PID.TID 0000.0001) %MON forcing_qsw_sd               =   0.0000000000000E+00
(PID.TID 0000.0001) %MON forcing_qsw_del2             =   0.0000000000000E+00
(PID.TID 0000.0001) %MON forcing_empmr_max            =   3.0643633008003E-01
(PID.TID 0000.0001) %MON forcing_empmr_min            =  -2.4137363433838E+00
(PID.TID 0000.0001) %MON forcing_empmr_mean           =  -2.9303895904522E-03
(PID.TID 0000.0001) %MON forcing_empmr_sd             =   7.2162126185955E-02
(PID.TID 0000.0001) %MON forcing_empmr_del2           =   2.4274850426765E-03
(PID.TID 0000.0001) %MON forcing_fu_max               =   5.1186009419184E-01
(PID.TID 0000.0001) %MON forcing_fu_min               =  -4.4117910165761E-01
(PID.TID 0000.0001) %MON forcing_fu_mean              =  -3.8651212768904E-03
(PID.TID 0000.0001) %MON forcing_fu_sd                =   6.8499635080254E-02
(PID.TID 0000.0001) %MON forcing_fu_del2              =   6.7731597154273E-04
(PID.TID 0000.0001) %MON forcing_fv_max               =   2.7291049847005E-01
(PID.TID 0000.0001) %MON forcing_fv_min               =  -4.5601609633007E-01
(PID.TID 0000.0001) %MON forcing_fv_mean              =  -1.4145467047841E-02
(PID.TID 0000.0001) %MON forcing_fv_sd                =   6.3939205734009E-02
(PID.TID 0000.0001) %MON forcing_fv_del2              =   5.4504829810837E-04
(PID.TID 0000.0001) %MON trAdv_CFL_u_max              =   2.3484218973985E-05
(PID.TID 0000.0001) %MON trAdv_CFL_v_max              =   2.3288645773656E-05
(PID.TID 0000.0001) %MON trAdv_CFL_w_max              =   7.3736546960274E-04
(PID.TID 0000.0001) %MON advcfl_uvel_max              =   2.3616238536935E-05
(PID.TID 0000.0001) %MON advcfl_vvel_max              =   2.1887372757246E-05
(PID.TID 0000.0001) %MON advcfl_wvel_max              =   2.3321124090665E-03
(PID.TID 0000.0001) %MON advcfl_W_hf_max              =   7.3736546960274E-04
(PID.TID 0000.0001) %MON pe_b_mean                    =   5.6405643356867E-04
(PID.TID 0000.0001) %MON ke_max                       =   4.0604297668313E-02
(PID.TID 0000.0001) %MON ke_mean                      =   1.4081072561385E-04
(PID.TID 0000.0001) %MON ke_vol                       =   1.3398053743511E+18
(PID.TID 0000.0001) %MON vort_r_min                   =  -1.1855736642946E-06
(PID.TID 0000.0001) %MON vort_r_max                   =   1.2171887011663E-06
(PID.TID 0000.0001) %MON vort_a_mean                  =  -2.0549865324846E-05
(PID.TID 0000.0001) %MON vort_a_sd                    =   7.5259517491861E-05
(PID.TID 0000.0001) %MON vort_p_mean                  =  -2.4783433512264E-05
(PID.TID 0000.0001) %MON vort_p_sd                    =   1.2811977120239E-04
(PID.TID 0000.0001) %MON surfExpan_theta_mean         =  -3.6782983420129E-06
(PID.TID 0000.0001) %MON surfExpan_salt_mean          =   6.8093753747874E-07
(PID.TID 0000.0001) // =======================================================
(PID.TID 0000.0001) // End MONITOR dynamic field statistics
(PID.TID 0000.0001) // =======================================================
 cg2d: Sum(rhs),rhsMax =  -3.89936209842459E+00  2.33848802520199E+05
(PID.TID 0000.0001)      cg2d_init_res =   8.71974178861727E-03
(PID.TID 0000.0001)      cg2d_iters(min,last) =      -1       1
(PID.TID 0000.0001)      cg2d_last_res =   1.55258893182045E-08
(PID.TID 0000.0001) // =======================================================
(PID.TID 0000.0001) // Begin MONITOR dynamic field statistics
(PID.TID 0000.0001) // =======================================================
(PID.TID 0000.0001) %MON time_tsnumber                =                 72013
(PID.TID 0000.0001) %MON time_secondsf                =   1.8003250000000E+06
(PID.TID 0000.0001) %MON dynstat_eta_max              =   8.8738617741818E+00
(PID.TID 0000.0001) %MON dynstat_eta_min              =  -1.7672866606597E+00
(PID.TID 0000.0001) %MON dynstat_eta_mean             =   8.1756988903409E-03
(PID.TID 0000.0001) %MON dynstat_eta_sd               =   6.5109379508315E-01
(PID.TID 0000.0001) %MON dynstat_eta_del2             =   8.5655230961056E-03
(PID.TID 0000.0001) %MON dynstat_uvel_max             =   1.8620025658404E-01
(PID.TID 0000.0001) %MON dynstat_uvel_min             =  -2.8775134897227E-01
(PID.TID 0000.0001) %MON dynstat_uvel_mean            =  -4.8501382882635E-04
(PID.TID 0000.0001) %MON dynstat_uvel_sd              =   1.2030150878021E-02
(PID.TID 0000.0001) %MON dynstat_uvel_del2            =   5.1871713023420E-05
(PID.TID 0000.0001) %MON dynstat_vvel_max             =   1.7354435400086E-01
(PID.TID 0000.0001) %MON dynstat_vvel_min             =  -2.2495177811536E-01
(PID.TID 0000.0001) %MON dynstat_vvel_mean            =  -4.0123236189335E-04
(PID.TID 0000.0001) %MON dynstat_vvel_sd              =   1.2644824993216E-02
(PID.TID 0000.0001) %MON dynstat_vvel_del2            =   5.1786035654560E-05
(PID.TID 0000.0001) %MON dynstat_wvel_max             =   2.0899345045504E-04
(PID.TID 0000.0001) %MON dynstat_wvel_min             =  -1.6461970149607E-03
(PID.TID 0000.0001) %MON dynstat_wvel_mean            =  -8.7391529154578E-08
(PID.TID 0000.0001) %MON dynstat_wvel_sd              =   8.3753351022948E-06
(PID.TID 0000.0001) %MON dynstat_wvel_del2            =   1.6648888574160E-07
(PID.TID 0000.0001) %MON dynstat_theta_max            =   3.0925879881432E+01
(PID.TID 0000.0001) %MON dynstat_theta_min            =  -3.0175834176569E+00
(PID.TID 0000.0001) %MON dynstat_theta_mean           =   3.9089061728856E+00
(PID.TID 0000.0001) %MON dynstat_theta_sd             =   4.5705228005846E+00
(PID.TID 0000.0001) %MON dynstat_theta_del2           =   2.6558968057070E-03
(PID.TID 0000.0001) %MON dynstat_salt_max             =   4.1377903254516E+01
(PID.TID 0000.0001) %MON dynstat_salt_min             =   1.8518385268785E+01
(PID.TID 0000.0001) %MON dynstat_salt_mean            =   3.4772206752259E+01
(PID.TID 0000.0001) %MON dynstat_salt_sd              =   5.3092172583453E-01
(PID.TID 0000.0001) %MON dynstat_salt_del2            =   8.0225130272780E-04
(PID.TID 0000.0001) %MON dynstat_sst_max              =   3.0925879881432E+01
(PID.TID 0000.0001) %MON dynstat_sst_min              =  -1.8999862587630E+00
(PID.TID 0000.0001) %MON dynstat_sst_mean             =   1.8097391686345E+01
(PID.TID 0000.0001) %MON dynstat_sst_sd               =   9.8007116087279E+00
(PID.TID 0000.0001) %MON dynstat_sst_del2             =   1.5371719244148E-02
(PID.TID 0000.0001) %MON dynstat_sss_max              =   4.1377903254516E+01
(PID.TID 0000.0001) %MON dynstat_sss_min              =   1.8750039571318E+01
(PID.TID 0000.0001) %MON dynstat_sss_mean             =   3.4642659881224E+01
(PID.TID 0000.0001) %MON dynstat_sss_sd               =   1.4559740702710E+00
(PID.TID 0000.0001) %MON dynstat_sss_del2             =   8.0066770414596E-03
(PID.TID 0000.0001) %MON forcing_qnet_max             =   5.2540453125000E+04
(PID.TID 0000.0001) %MON forcing_qnet_min             =  -3.6605621093750E+04
(PID.TID 0000.0001) %MON forcing_qnet_mean            =   5.8433005027600E+01
(PID.TID 0000.0001) %MON forcing_qnet_sd              =   3.4221168063518E+03
(PID.TID 0000.0001) %MON forcing_qnet_del2            =   8.3695451164006E+01
(PID.TID 0000.0001) %MON forcing_qsw_max              =   0.0000000000000E+00
(PID.TID 0000.0001) %MON forcing_qsw_min              =   0.0000000000000E+00
(PID.TID 0000.0001) %MON forcing_qsw_mean             =   0.0000000000000E+00
(PID.TID 0000.0001) %MON forcing_qsw_sd               =   0.0000000000000E+00
(PID.TID 0000.0001) %MON forcing_qsw_del2             =   0.0000000000000E+00
(PID.TID 0000.0001) %MON forcing_empmr_max            =   2.1630822122097E-01
(PID.TID 0000.0001) %MON forcing_empmr_min            =  -1.7038139104843E+00
(PID.TID 0000.0001) %MON forcing_empmr_mean           =  -2.3076623045902E-03
(PID.TID 0000.0001) %MON forcing_empmr_sd             =   5.3013124225763E-02
(PID.TID 0000.0001) %MON forcing_empmr_del2           =   1.8071849991358E-03
(PID.TID 0000.0001) %MON forcing_fu_max               =   5.1186009419184E-01
(PID.TID 0000.0001) %MON forcing_fu_min               =  -4.4117910165761E-01
(PID.TID 0000.0001) %MON forcing_fu_mean              =  -3.8651212768904E-03
(PID.TID 0000.0001) %MON forcing_fu_sd                =   6.8499635080254E-02
(PID.TID 0000.0001) %MON forcing_fu_del2              =   6.7731597154273E-04
(PID.TID 0000.0001) %MON forcing_fv_max               =   2.7291049847005E-01
(PID.TID 0000.0001) %MON forcing_fv_min               =  -4.5601609633007E-01
(PID.TID 0000.0001) %MON forcing_fv_mean              =  -1.4145467047841E-02
(PID.TID 0000.0001) %MON forcing_fv_sd                =   6.3939205734009E-02
(PID.TID 0000.0001) %MON forcing_fv_del2              =   5.4504829810837E-04
(PID.TID 0000.0001) %MON trAdv_CFL_u_max              =   2.3482498450477E-05
(PID.TID 0000.0001) %MON trAdv_CFL_v_max              =   2.3289501359648E-05
(PID.TID 0000.0001) %MON trAdv_CFL_w_max              =   5.6136787925467E-04
(PID.TID 0000.0001) %MON advcfl_uvel_max              =   2.3614508343076E-05
(PID.TID 0000.0001) %MON advcfl_vvel_max              =   2.1888176787889E-05
(PID.TID 0000.0001) %MON advcfl_wvel_max              =   1.6461970149607E-03
(PID.TID 0000.0001) %MON advcfl_W_hf_max              =   5.6136787925467E-04
(PID.TID 0000.0001) %MON pe_b_mean                    =   5.6483174880079E-04
(PID.TID 0000.0001) %MON ke_max                       =   4.0596565801783E-02
(PID.TID 0000.0001) %MON ke_mean                      =   1.4084831368932E-04
(PID.TID 0000.0001) %MON ke_vol                       =   1.3398054001079E+18
(PID.TID 0000.0001) %MON vort_r_min                   =  -1.1856732983817E-06
(PID.TID 0000.0001) %MON vort_r_max                   =   1.2173784243803E-06
(PID.TID 0000.0001) %MON vort_a_mean                  =  -2.0549865324846E-05
(PID.TID 0000.0001) %MON vort_a_sd                    =   7.5259517535751E-05
(PID.TID 0000.0001) %MON vort_p_mean                  =  -2.4783433170305E-05
(PID.TID 0000.0001) %MON vort_p_sd                    =   1.2811976321343E-04
(PID.TID 0000.0001) %MON surfExpan_theta_mean         =  -4.0828183717718E-06
(PID.TID 0000.0001) %MON surfExpan_salt_mean          =   6.6280421819576E-07
(PID.TID 0000.0001) // =======================================================
(PID.TID 0000.0001) // End MONITOR dynamic field statistics
(PID.TID 0000.0001) // =======================================================
 cg2d: Sum(rhs),rhsMax =  -3.90887626216178E+00  2.34566790756048E+05
(PID.TID 0000.0001)      cg2d_init_res =   6.55313956659718E-03
(PID.TID 0000.0001)      cg2d_iters(min,last) =      -1       1
(PID.TID 0000.0001)      cg2d_last_res =   1.52517184014852E-08
(PID.TID 0000.0001) // =======================================================
(PID.TID 0000.0001) // Begin MONITOR dynamic field statistics
(PID.TID 0000.0001) // =======================================================
(PID.TID 0000.0001) %MON time_tsnumber                =                 72014
(PID.TID 0000.0001) %MON time_secondsf                =   1.8003500000000E+06
(PID.TID 0000.0001) %MON dynstat_eta_max              =   8.9015353733266E+00
(PID.TID 0000.0001) %MON dynstat_eta_min              =  -1.7679867021965E+00
(PID.TID 0000.0001) %MON dynstat_eta_mean             =   8.2208101831480E-03
(PID.TID 0000.0001) %MON dynstat_eta_sd               =   6.5140375026044E-01
(PID.TID 0000.0001) %MON dynstat_eta_del2             =   8.5898573167401E-03
(PID.TID 0000.0001) %MON dynstat_uvel_max             =   1.8618564398373E-01
(PID.TID 0000.0001) %MON dynstat_uvel_min             =  -2.8773026697803E-01
(PID.TID 0000.0001) %MON dynstat_uvel_mean            =  -4.8462456469138E-04
(PID.TID 0000.0001) %MON dynstat_uvel_sd              =   1.2032041382607E-02
(PID.TID 0000.0001) %MON dynstat_uvel_del2            =   5.2008520441524E-05
(PID.TID 0000.0001) %MON dynstat_vvel_max             =   1.7355075071102E-01
(PID.TID 0000.0001) %MON dynstat_vvel_min             =  -2.2493395454787E-01
(PID.TID 0000.0001) %MON dynstat_vvel_mean            =  -4.0098059525387E-04
(PID.TID 0000.0001) %MON dynstat_vvel_sd              =   1.2646637128439E-02
(PID.TID 0000.0001) %MON dynstat_vvel_del2            =   5.2067988346257E-05
(PID.TID 0000.0001) %MON dynstat_wvel_max             =   1.4752479279099E-04
(PID.TID 0000.0001) %MON dynstat_wvel_min             =  -1.2037053776248E-03
(PID.TID 0000.0001) %MON dynstat_wvel_mean            =  -8.4105541941579E-08
(PID.TID 0000.0001) %MON dynstat_wvel_sd              =   7.4795147549575E-06
(PID.TID 0000.0001) %MON dynstat_wvel_del2            =   1.3612368981101E-07
(PID.TID 0000.0001) %MON dynstat_theta_max            =   3.0925873805960E+01
(PID.TID 0000.0001) %MON dynstat_theta_min            =  -3.0175872922186E+00
(PID.TID 0000.0001) %MON dynstat_theta_mean           =   3.9089063832391E+00
(PID.TID 0000.0001) %MON dynstat_theta_sd             =   4.5705228431387E+00
(PID.TID 0000.0001) %MON dynstat_theta_del2           =   2.6559308185729E-03
(PID.TID 0000.0001) %MON dynstat_salt_max             =   4.1377800147232E+01
(PID.TID 0000.0001) %MON dynstat_salt_min             =   1.8518385487513E+01
(PID.TID 0000.0001) %MON dynstat_salt_mean            =   3.4772206912193E+01
(PID.TID 0000.0001) %MON dynstat_salt_sd              =   5.3092040180346E-01
(PID.TID 0000.0001) %MON dynstat_salt_del2            =   8.0224736666824E-04
(PID.TID 0000.0001) %MON dynstat_sst_max              =   3.0925873805960E+01
(PID.TID 0000.0001) %MON dynstat_sst_min              =  -1.8999851960061E+00
(PID.TID 0000.0001) %MON dynstat_sst_mean             =   1.8097392021824E+01
(PID.TID 0000.0001) %MON dynstat_sst_sd               =   9.8007045698523E+00
(PID.TID 0000.0001) %MON dynstat_sst_del2             =   1.5372025173918E-02
(PID.TID 0000.0001) %MON dynstat_sss_max              =   4.1377800147232E+01
(PID.TID 0000.0001) %MON dynstat_sss_min              =   1.8751036603635E+01
(PID.TID 0000.0001) %MON dynstat_sss_mean             =   3.4642664402986E+01
(PID.TID 0000.0001) %MON dynstat_sss_sd               =   1.4560458697925E+00
(PID.TID 0000.0001) %MON dynstat_sss_del2             =   8.0064372743684E-03
(PID.TID 0000.0001) %MON forcing_qnet_max             =   3.8880781250000E+04
(PID.TID 0000.0001) %MON forcing_qnet_min             =  -3.5367941406250E+04
(PID.TID 0000.0001) %MON forcing_qnet_mean            =  -9.8976165711113E+01
(PID.TID 0000.0001) %MON forcing_qnet_sd              =   3.0283089710820E+03
(PID.TID 0000.0001) %MON forcing_qnet_del2            =   7.5362682360877E+01
(PID.TID 0000.0001) %MON forcing_qsw_max              =   0.0000000000000E+00
(PID.TID 0000.0001) %MON forcing_qsw_min              =   0.0000000000000E+00
(PID.TID 0000.0001) %MON forcing_qsw_mean             =   0.0000000000000E+00
(PID.TID 0000.0001) %MON forcing_qsw_sd               =   0.0000000000000E+00
(PID.TID 0000.0001) %MON forcing_qsw_del2             =   0.0000000000000E+00
(PID.TID 0000.0001) %MON forcing_empmr_max            =   1.5268816053867E-01
(PID.TID 0000.0001) %MON forcing_empmr_min            =  -1.2458350658417E+00
(PID.TID 0000.0001) %MON forcing_empmr_mean           =  -1.8676075222159E-03
(PID.TID 0000.0001) %MON forcing_empmr_sd             =   4.0185649261644E-02
(PID.TID 0000.0001) %MON forcing_empmr_del2           =   1.3977918918647E-03
(PID.TID 0000.0001) %MON forcing_fu_max               =   5.1186009419184E-01
(PID.TID 0000.0001) %MON forcing_fu_min               =  -4.4117910165761E-01
(PID.TID 0000.0001) %MON forcing_fu_mean              =  -3.8651212768904E-03
(PID.TID 0000.0001) %MON forcing_fu_sd                =   6.8499635080254E-02
(PID.TID 0000.0001) %MON forcing_fu_del2              =   6.7731597154273E-04
(PID.TID 0000.0001) %MON forcing_fv_max               =   2.7291049847005E-01
(PID.TID 0000.0001) %MON forcing_fv_min               =  -4.5601609633007E-01
(PID.TID 0000.0001) %MON forcing_fv_mean              =  -1.4145467047841E-02
(PID.TID 0000.0001) %MON forcing_fv_sd                =   6.3939205734009E-02
(PID.TID 0000.0001) %MON forcing_fv_del2              =   5.4504829810837E-04
(PID.TID 0000.0001) %MON trAdv_CFL_u_max              =   2.3480778012127E-05
(PID.TID 0000.0001) %MON trAdv_CFL_v_max              =   2.3290359855782E-05
(PID.TID 0000.0001) %MON trAdv_CFL_w_max              =   5.5928893805262E-04
(PID.TID 0000.0001) %MON advcfl_uvel_max              =   2.3612778235013E-05
(PID.TID 0000.0001) %MON advcfl_vvel_max              =   2.1888983569093E-05
(PID.TID 0000.0001) %MON advcfl_wvel_max              =   1.2037053776248E-03
(PID.TID 0000.0001) %MON advcfl_W_hf_max              =   5.5928893805262E-04
(PID.TID 0000.0001) %MON pe_b_mean                    =   5.6537054855492E-04
(PID.TID 0000.0001) %MON ke_max                       =   4.0588835391611E-02
(PID.TID 0000.0001) %MON ke_mean                      =   1.4089019835441E-04
(PID.TID 0000.0001) %MON ke_vol                       =   1.3398054203912E+18
(PID.TID 0000.0001) %MON vort_r_min                   =  -1.1857733151870E-06
(PID.TID 0000.0001) %MON vort_r_max                   =   1.2175686504314E-06
(PID.TID 0000.0001) %MON vort_a_mean                  =  -2.0549865324846E-05
(PID.TID 0000.0001) %MON vort_a_sd                    =   7.5259517580413E-05
(PID.TID 0000.0001) %MON vort_p_mean                  =  -2.4783432894061E-05
(PID.TID 0000.0001) %MON vort_p_sd                    =   1.2811975699822E-04
(PID.TID 0000.0001) %MON surfExpan_theta_mean         =  -4.3689088838393E-06
(PID.TID 0000.0001) %MON surfExpan_salt_mean          =   6.5061741548673E-07
(PID.TID 0000.0001) // =======================================================
(PID.TID 0000.0001) // End MONITOR dynamic field statistics
(PID.TID 0000.0001) // =======================================================
 cg2d: Sum(rhs),rhsMax =  -3.91848062352904E+00  2.35062079667354E+05
(PID.TID 0000.0001)      cg2d_init_res =   5.20009543976593E-03
(PID.TID 0000.0001)      cg2d_iters(min,last) =      -1       1
(PID.TID 0000.0001)      cg2d_last_res =   1.55520238483599E-08
(PID.TID 0000.0001) // =======================================================
(PID.TID 0000.0001) // Begin MONITOR dynamic field statistics
(PID.TID 0000.0001) // =======================================================
(PID.TID 0000.0001) %MON time_tsnumber                =                 72015
(PID.TID 0000.0001) %MON time_secondsf                =   1.8003750000000E+06
(PID.TID 0000.0001) %MON dynstat_eta_max              =   8.9205465449742E+00
(PID.TID 0000.0001) %MON dynstat_eta_min              =  -1.7682568701900E+00
(PID.TID 0000.0001) %MON dynstat_eta_mean             =   8.2584101753873E-03
(PID.TID 0000.0001) %MON dynstat_eta_sd               =   6.5161625087966E-01
(PID.TID 0000.0001) %MON dynstat_eta_del2             =   8.6058644748325E-03
(PID.TID 0000.0001) %MON dynstat_uvel_max             =   1.8617092825249E-01
(PID.TID 0000.0001) %MON dynstat_uvel_min             =  -2.8770918607901E-01
(PID.TID 0000.0001) %MON dynstat_uvel_mean            =  -4.8423340862467E-04
(PID.TID 0000.0001) %MON dynstat_uvel_sd              =   1.2034112727564E-02
(PID.TID 0000.0001) %MON dynstat_uvel_del2            =   5.2157923044670E-05
(PID.TID 0000.0001) %MON dynstat_vvel_max             =   1.7355716988048E-01
(PID.TID 0000.0001) %MON dynstat_vvel_min             =  -2.2491612824521E-01
(PID.TID 0000.0001) %MON dynstat_vvel_mean            =  -4.0072896471866E-04
(PID.TID 0000.0001) %MON dynstat_vvel_sd              =   1.2648641788290E-02
(PID.TID 0000.0001) %MON dynstat_vvel_del2            =   5.2378409100997E-05
(PID.TID 0000.0001) %MON dynstat_wvel_max             =   1.0413581478423E-04
(PID.TID 0000.0001) %MON dynstat_wvel_min             =  -1.1993746826614E-03
(PID.TID 0000.0001) %MON dynstat_wvel_mean            =  -8.2183889492284E-08
(PID.TID 0000.0001) %MON dynstat_wvel_sd              =   6.9990867333675E-06
(PID.TID 0000.0001) %MON dynstat_wvel_del2            =   1.1811513290355E-07
(PID.TID 0000.0001) %MON dynstat_theta_max            =   3.0925867731059E+01
(PID.TID 0000.0001) %MON dynstat_theta_min            =  -3.0175911048356E+00
(PID.TID 0000.0001) %MON dynstat_theta_mean           =   3.9089067793986E+00
(PID.TID 0000.0001) %MON dynstat_theta_sd             =   4.5705234285986E+00
(PID.TID 0000.0001) %MON dynstat_theta_del2           =   2.6559688408257E-03
(PID.TID 0000.0001) %MON dynstat_salt_max             =   4.1377727220656E+01
(PID.TID 0000.0001) %MON dynstat_salt_min             =   1.8518385714061E+01
(PID.TID 0000.0001) %MON dynstat_salt_mean            =   3.4772206957886E+01
(PID.TID 0000.0001) %MON dynstat_salt_sd              =   5.3091952417113E-01
(PID.TID 0000.0001) %MON dynstat_salt_del2            =   8.0224853838744E-04
(PID.TID 0000.0001) %MON dynstat_sst_max              =   3.0925867731059E+01
(PID.TID 0000.0001) %MON dynstat_sst_min              =  -1.8999841329564E+00
(PID.TID 0000.0001) %MON dynstat_sst_mean             =   1.8097407260670E+01
(PID.TID 0000.0001) %MON dynstat_sst_sd               =   9.8006947656307E+00
(PID.TID 0000.0001) %MON dynstat_sst_del2             =   1.5372402347088E-02
(PID.TID 0000.0001) %MON dynstat_sss_max              =   4.1377727220656E+01
(PID.TID 0000.0001) %MON dynstat_sss_min              =   1.8751734591739E+01
(PID.TID 0000.0001) %MON dynstat_sss_mean             =   3.4642661093407E+01
(PID.TID 0000.0001) %MON dynstat_sss_sd               =   1.4561163587663E+00
(PID.TID 0000.0001) %MON dynstat_sss_del2             =   8.0062866209572E-03
(PID.TID 0000.0001) %MON forcing_qnet_max             =   2.9133851562500E+04
(PID.TID 0000.0001) %MON forcing_qnet_min             =  -3.4159496093750E+04
(PID.TID 0000.0001) %MON forcing_qnet_mean            =  -2.0516890455394E+02
(PID.TID 0000.0001) %MON forcing_qnet_sd              =   2.7714445272763E+03
(PID.TID 0000.0001) %MON forcing_qnet_del2            =   7.0048739482103E+01
(PID.TID 0000.0001) %MON forcing_qsw_max              =   0.0000000000000E+00
(PID.TID 0000.0001) %MON forcing_qsw_min              =   0.0000000000000E+00
(PID.TID 0000.0001) %MON forcing_qsw_mean             =   0.0000000000000E+00
(PID.TID 0000.0001) %MON forcing_qsw_sd               =   0.0000000000000E+00
(PID.TID 0000.0001) %MON forcing_qsw_del2             =   0.0000000000000E+00
(PID.TID 0000.0001) %MON forcing_empmr_max            =   1.0778056830168E-01
(PID.TID 0000.0001) %MON forcing_empmr_min            =  -1.2413527965546E+00
(PID.TID 0000.0001) %MON forcing_empmr_mean           =  -1.5566396787101E-03
(PID.TID 0000.0001) %MON forcing_empmr_sd             =   3.1905874906178E-02
(PID.TID 0000.0001) %MON forcing_empmr_del2           =   1.1389159486900E-03
(PID.TID 0000.0001) %MON forcing_fu_max               =   5.1186009419184E-01
(PID.TID 0000.0001) %MON forcing_fu_min               =  -4.4117910165761E-01
(PID.TID 0000.0001) %MON forcing_fu_mean              =  -3.8651212768904E-03
(PID.TID 0000.0001) %MON forcing_fu_sd                =   6.8499635080254E-02
(PID.TID 0000.0001) %MON forcing_fu_del2              =   6.7731597154273E-04
(PID.TID 0000.0001) %MON forcing_fv_max               =   2.7291049847005E-01
(PID.TID 0000.0001) %MON forcing_fv_min               =  -4.5601609633007E-01
(PID.TID 0000.0001) %MON forcing_fv_mean              =  -1.4145467047841E-02
(PID.TID 0000.0001) %MON forcing_fv_sd                =   6.3939205734009E-02
(PID.TID 0000.0001) %MON forcing_fv_del2              =   5.4504829810837E-04
(PID.TID 0000.0001) %MON trAdv_CFL_u_max              =   2.3479057662999E-05
(PID.TID 0000.0001) %MON trAdv_CFL_v_max              =   2.3291221354468E-05
(PID.TID 0000.0001) %MON trAdv_CFL_w_max              =   5.5722554611174E-04
(PID.TID 0000.0001) %MON advcfl_uvel_max              =   2.3611048216830E-05
(PID.TID 0000.0001) %MON advcfl_vvel_max              =   2.1889793182962E-05
(PID.TID 0000.0001) %MON advcfl_wvel_max              =   1.1993746826614E-03
(PID.TID 0000.0001) %MON advcfl_W_hf_max              =   5.5722554611174E-04
(PID.TID 0000.0001) %MON pe_b_mean                    =   5.6574023830366E-04
(PID.TID 0000.0001) %MON ke_max                       =   4.0581106443816E-02
(PID.TID 0000.0001) %MON ke_mean                      =   1.4093634713703E-04
(PID.TID 0000.0001) %MON ke_vol                       =   1.3398054368066E+18
(PID.TID 0000.0001) %MON vort_r_min                   =  -1.1858737109718E-06
(PID.TID 0000.0001) %MON vort_r_max                   =   1.2177593804835E-06
(PID.TID 0000.0001) %MON vort_a_mean                  =  -2.0549865324846E-05
(PID.TID 0000.0001) %MON vort_a_sd                    =   7.5259517625805E-05
(PID.TID 0000.0001) %MON vort_p_mean                  =  -2.4783432664136E-05
(PID.TID 0000.0001) %MON vort_p_sd                    =   1.2811975203603E-04
(PID.TID 0000.0001) %MON surfExpan_theta_mean         =  -4.5738805941883E-06
(PID.TID 0000.0001) %MON surfExpan_salt_mean          =   6.4248390563903E-07
(PID.TID 0000.0001) // =======================================================
(PID.TID 0000.0001) // End MONITOR dynamic field statistics
(PID.TID 0000.0001) // =======================================================
 cg2d: Sum(rhs),rhsMax =  -3.92816353698932E+00  2.35399407565711E+05
(PID.TID 0000.0001)      cg2d_init_res =   4.41769957024030E-03
(PID.TID 0000.0001)      cg2d_iters(min,last) =      -1       1
(PID.TID 0000.0001)      cg2d_last_res =   1.61290623360589E-08
(PID.TID 0000.0001) // =======================================================
(PID.TID 0000.0001) // Begin MONITOR dynamic field statistics
(PID.TID 0000.0001) // =======================================================
(PID.TID 0000.0001) %MON time_tsnumber                =                 72016
(PID.TID 0000.0001) %MON time_secondsf                =   1.8004000000000E+06
(PID.TID 0000.0001) %MON dynstat_eta_max              =   8.9334083822116E+00
(PID.TID 0000.0001) %MON dynstat_eta_min              =  -1.7682088123177E+00
(PID.TID 0000.0001) %MON dynstat_eta_mean             =   8.2906980295742E-03
(PID.TID 0000.0001) %MON dynstat_eta_sd               =   6.5175909089030E-01
(PID.TID 0000.0001) %MON dynstat_eta_del2             =   8.6159153717758E-03
(PID.TID 0000.0001) %MON dynstat_uvel_max             =   1.8817192821276E-01
(PID.TID 0000.0001) %MON dynstat_uvel_min             =  -2.8768810632431E-01
(PID.TID 0000.0001) %MON dynstat_uvel_mean            =  -4.8384050357959E-04
(PID.TID 0000.0001) %MON dynstat_uvel_sd              =   1.2036363662292E-02
(PID.TID 0000.0001) %MON dynstat_uvel_del2            =   5.2319717090770E-05
(PID.TID 0000.0001) %MON dynstat_vvel_max             =   1.7356361229813E-01
(PID.TID 0000.0001) %MON dynstat_vvel_min             =  -2.2489829756334E-01
(PID.TID 0000.0001) %MON dynstat_vvel_mean            =  -4.0047755848111E-04
(PID.TID 0000.0001) %MON dynstat_vvel_sd              =   1.2650837060104E-02
(PID.TID 0000.0001) %MON dynstat_vvel_del2            =   5.2716599293532E-05
(PID.TID 0000.0001) %MON dynstat_wvel_max             =   1.0320908548472E-04
(PID.TID 0000.0001) %MON dynstat_wvel_min             =  -1.1950439876980E-03
(PID.TID 0000.0001) %MON dynstat_wvel_mean            =  -8.1166046183055E-08
(PID.TID 0000.0001) %MON dynstat_wvel_sd              =   6.7569648116737E-06
(PID.TID 0000.0001) %MON dynstat_wvel_del2            =   1.0802133542895E-07
(PID.TID 0000.0001) %MON dynstat_theta_max            =   3.0925861656729E+01
(PID.TID 0000.0001) %MON dynstat_theta_min            =  -3.0175948510471E+00
(PID.TID 0000.0001) %MON dynstat_theta_mean           =   3.9089072998619E+00
(PID.TID 0000.0001) %MON dynstat_theta_sd             =   4.5705243868478E+00
(PID.TID 0000.0001) %MON dynstat_theta_del2           =   2.6560080797767E-03
(PID.TID 0000.0001) %MON dynstat_salt_max             =   4.1377675640914E+01
(PID.TID 0000.0001) %MON dynstat_salt_min             =   1.8518385946615E+01
(PID.TID 0000.0001) %MON dynstat_salt_mean            =   3.4772206923982E+01
(PID.TID 0000.0001) %MON dynstat_salt_sd              =   5.3091896404829E-01
(PID.TID 0000.0001) %MON dynstat_salt_del2            =   8.0225302329542E-04
(PID.TID 0000.0001) %MON dynstat_sst_max              =   3.0925861656729E+01
(PID.TID 0000.0001) %MON dynstat_sst_min              =  -1.8999830696239E+00
(PID.TID 0000.0001) %MON dynstat_sst_mean             =   1.8097432824408E+01
(PID.TID 0000.0001) %MON dynstat_sst_sd               =   9.8006830851256E+00
(PID.TID 0000.0001) %MON dynstat_sst_del2             =   1.5372798362601E-02
(PID.TID 0000.0001) %MON dynstat_sss_max              =   4.1377675640914E+01
(PID.TID 0000.0001) %MON dynstat_sss_min              =   1.8752223214505E+01
(PID.TID 0000.0001) %MON dynstat_sss_mean             =   3.4642652557344E+01
(PID.TID 0000.0001) %MON dynstat_sss_sd               =   1.4561836955244E+00
(PID.TID 0000.0001) %MON dynstat_sss_del2             =   8.0061977531201E-03
(PID.TID 0000.0001) %MON forcing_qnet_max             =   2.2147320312500E+04
(PID.TID 0000.0001) %MON forcing_qnet_min             =  -3.3009515625000E+04
(PID.TID 0000.0001) %MON forcing_qnet_mean            =  -2.7596954771302E+02
(PID.TID 0000.0001) %MON forcing_qnet_sd              =   2.5935775843026E+03
(PID.TID 0000.0001) %MON forcing_qnet_del2            =   6.6322726834704E+01
(PID.TID 0000.0001) %MON forcing_qsw_max              =   0.0000000000000E+00
(PID.TID 0000.0001) %MON forcing_qsw_min              =   0.0000000000000E+00
(PID.TID 0000.0001) %MON forcing_qsw_mean             =   0.0000000000000E+00
(PID.TID 0000.0001) %MON forcing_qsw_sd               =   0.0000000000000E+00
(PID.TID 0000.0001) %MON forcing_qsw_del2             =   0.0000000000000E+00
(PID.TID 0000.0001) %MON forcing_empmr_max            =   7.6078101992607E-02
(PID.TID 0000.0001) %MON forcing_empmr_min            =  -1.2368705272675E+00
(PID.TID 0000.0001) %MON forcing_empmr_mean           =  -1.3367171633348E-03
(PID.TID 0000.0001) %MON forcing_empmr_sd             =   2.6820089695638E-02
(PID.TID 0000.0001) %MON forcing_empmr_del2           =   9.8350870657259E-04
(PID.TID 0000.0001) %MON forcing_fu_max               =   5.1186009419184E-01
(PID.TID 0000.0001) %MON forcing_fu_min               =  -4.4117910165761E-01
(PID.TID 0000.0001) %MON forcing_fu_mean              =  -3.8651212768904E-03
(PID.TID 0000.0001) %MON forcing_fu_sd                =   6.8499635080254E-02
(PID.TID 0000.0001) %MON forcing_fu_del2              =   6.7731597154273E-04
(PID.TID 0000.0001) %MON forcing_fv_max               =   2.7291049847005E-01
(PID.TID 0000.0001) %MON forcing_fv_min               =  -4.5601609633007E-01
(PID.TID 0000.0001) %MON forcing_fv_mean              =  -1.4145467047841E-02
(PID.TID 0000.0001) %MON forcing_fv_sd                =   6.3939205734009E-02
(PID.TID 0000.0001) %MON forcing_fv_del2              =   5.4504829810837E-04
(PID.TID 0000.0001) %MON trAdv_CFL_u_max              =   2.3477337407099E-05
(PID.TID 0000.0001) %MON trAdv_CFL_v_max              =   2.3292085965802E-05
(PID.TID 0000.0001) %MON trAdv_CFL_w_max              =   5.5516011925689E-04
(PID.TID 0000.0001) %MON advcfl_uvel_max              =   2.3609318292557E-05
(PID.TID 0000.0001) %MON advcfl_vvel_max              =   2.1890605728996E-05
(PID.TID 0000.0001) %MON advcfl_wvel_max              =   1.1950439876980E-03
(PID.TID 0000.0001) %MON advcfl_W_hf_max              =   5.5516011925689E-04
(PID.TID 0000.0001) %MON pe_b_mean                    =   5.6598896217059E-04
(PID.TID 0000.0001) %MON ke_max                       =   4.0573378964698E-02
(PID.TID 0000.0001) %MON ke_mean                      =   1.4098672593093E-04
(PID.TID 0000.0001) %MON ke_vol                       =   1.3398054504887E+18
(PID.TID 0000.0001) %MON vort_r_min                   =  -1.1859744818379E-06
(PID.TID 0000.0001) %MON vort_r_max                   =   1.2179506155102E-06
(PID.TID 0000.0001) %MON vort_a_mean                  =  -2.0549865324846E-05
(PID.TID 0000.0001) %MON vort_a_sd                    =   7.5259517671898E-05
(PID.TID 0000.0001) %MON vort_p_mean                  =  -2.4783432466810E-05
(PID.TID 0000.0001) %MON vort_p_sd                    =   1.2811974795934E-04
(PID.TID 0000.0001) %MON surfExpan_theta_mean         =  -4.7208862548854E-06
(PID.TID 0000.0001) %MON surfExpan_salt_mean          =   6.3726381676964E-07
(PID.TID 0000.0001) // =======================================================
(PID.TID 0000.0001) // End MONITOR dynamic field statistics
(PID.TID 0000.0001) // =======================================================
 cg2d: Sum(rhs),rhsMax =  -3.93791493662823E+00  2.35624467954457E+05
(PID.TID 0000.0001)      cg2d_init_res =   4.00756149504664E-03
(PID.TID 0000.0001)      cg2d_iters(min,last) =      -1       1
(PID.TID 0000.0001)      cg2d_last_res =   1.68285771371454E-08
(PID.TID 0000.0001) // =======================================================
(PID.TID 0000.0001) // Begin MONITOR dynamic field statistics
(PID.TID 0000.0001) // =======================================================
(PID.TID 0000.0001) %MON time_tsnumber                =                 72017
(PID.TID 0000.0001) %MON time_secondsf                =   1.8004250000000E+06
(PID.TID 0000.0001) %MON dynstat_eta_max              =   8.9418947741644E+00
(PID.TID 0000.0001) %MON dynstat_eta_min              =  -1.7679215037486E+00
(PID.TID 0000.0001) %MON dynstat_eta_mean             =   8.3192253632692E-03
(PID.TID 0000.0001) %MON dynstat_eta_sd               =   6.5185202572396E-01
(PID.TID 0000.0001) %MON dynstat_eta_del2             =   8.6216839655908E-03
(PID.TID 0000.0001) %MON dynstat_uvel_max             =   1.9532711674982E-01
(PID.TID 0000.0001) %MON dynstat_uvel_min             =  -2.8766702776226E-01
(PID.TID 0000.0001) %MON dynstat_uvel_mean            =  -4.8344591822547E-04
(PID.TID 0000.0001) %MON dynstat_uvel_sd              =   1.2038792884954E-02
(PID.TID 0000.0001) %MON dynstat_uvel_del2            =   5.2493691110774E-05
(PID.TID 0000.0001) %MON dynstat_vvel_max             =   1.7357007837839E-01
(PID.TID 0000.0001) %MON dynstat_vvel_min             =  -2.2488046289516E-01
(PID.TID 0000.0001) %MON dynstat_vvel_mean            =  -4.0022641214374E-04
(PID.TID 0000.0001) %MON dynstat_vvel_sd              =   1.2653221012793E-02
(PID.TID 0000.0001) %MON dynstat_vvel_del2            =   5.3081824120767E-05
(PID.TID 0000.0001) %MON dynstat_wvel_max             =   1.0321287253387E-04
(PID.TID 0000.0001) %MON dynstat_wvel_min             =  -1.1907513014936E-03
(PID.TID 0000.0001) %MON dynstat_wvel_mean            =  -8.0760407697784E-08
(PID.TID 0000.0001) %MON dynstat_wvel_sd              =   6.6444588826116E-06
(PID.TID 0000.0001) %MON dynstat_wvel_del2            =   1.0261304047091E-07
(PID.TID 0000.0001) %MON dynstat_theta_max            =   3.0925855582970E+01
(PID.TID 0000.0001) %MON dynstat_theta_min            =  -3.0175985264277E+00
(PID.TID 0000.0001) %MON dynstat_theta_mean           =   3.9089079021715E+00
(PID.TID 0000.0001) %MON dynstat_theta_sd             =   4.5705256000000E+00
(PID.TID 0000.0001) %MON dynstat_theta_del2           =   2.6560462605390E-03
(PID.TID 0000.0001) %MON dynstat_salt_max             =   4.1377638940426E+01
(PID.TID 0000.0001) %MON dynstat_salt_min             =   1.8518386184079E+01
(PID.TID 0000.0001) %MON dynstat_salt_mean            =   3.4772206834506E+01
(PID.TID 0000.0001) %MON dynstat_salt_sd              =   5.3091863106773E-01
(PID.TID 0000.0001) %MON dynstat_salt_del2            =   8.0225952799682E-04
(PID.TID 0000.0001) %MON dynstat_sst_max              =   3.0925855582970E+01
(PID.TID 0000.0001) %MON dynstat_sst_min              =  -1.8999820060125E+00
(PID.TID 0000.0001) %MON dynstat_sst_mean             =   1.8097465509370E+01
(PID.TID 0000.0001) %MON dynstat_sst_sd               =   9.8006701968787E+00
(PID.TID 0000.0001) %MON dynstat_sst_del2             =   1.5373178233706E-02
(PID.TID 0000.0001) %MON dynstat_sss_max              =   4.1377638940426E+01
(PID.TID 0000.0001) %MON dynstat_sss_min              =   1.8752565241128E+01
(PID.TID 0000.0001) %MON dynstat_sss_mean             =   3.4642640577436E+01
(PID.TID 0000.0001) %MON dynstat_sss_sd               =   1.4562468865837E+00
(PID.TID 0000.0001) %MON dynstat_sss_del2             =   8.0061521162939E-03
(PID.TID 0000.0001) %MON forcing_qnet_max             =   1.7101380859375E+04
(PID.TID 0000.0001) %MON forcing_qnet_min             =  -3.1888775390625E+04
(PID.TID 0000.0001) %MON forcing_qnet_mean            =  -3.2237575896122E+02
(PID.TID 0000.0001) %MON forcing_qnet_sd              =   2.4612774372552E+03
(PID.TID 0000.0001) %MON forcing_qnet_del2            =   6.3435037112166E+01
(PID.TID 0000.0001) %MON forcing_qsw_max              =   0.0000000000000E+00
(PID.TID 0000.0001) %MON forcing_qsw_min              =   0.0000000000000E+00
(PID.TID 0000.0001) %MON forcing_qsw_mean             =   0.0000000000000E+00
(PID.TID 0000.0001) %MON forcing_qsw_sd               =   0.0000000000000E+00
(PID.TID 0000.0001) %MON forcing_qsw_del2             =   0.0000000000000E+00
(PID.TID 0000.0001) %MON forcing_empmr_max            =   5.4350282996893E-02
(PID.TID 0000.0001) %MON forcing_empmr_min            =  -1.2324275970459E+00
(PID.TID 0000.0001) %MON forcing_empmr_mean           =  -1.1810316149642E-03
(PID.TID 0000.0001) %MON forcing_empmr_sd             =   2.3858680513368E-02
(PID.TID 0000.0001) %MON forcing_empmr_del2           =   8.9471548797342E-04
(PID.TID 0000.0001) %MON forcing_fu_max               =   5.1186009419184E-01
(PID.TID 0000.0001) %MON forcing_fu_min               =  -4.4117910165761E-01
(PID.TID 0000.0001) %MON forcing_fu_mean              =  -3.8651212768904E-03
(PID.TID 0000.0001) %MON forcing_fu_sd                =   6.8499635080254E-02
(PID.TID 0000.0001) %MON forcing_fu_del2              =   6.7731597154273E-04
(PID.TID 0000.0001) %MON forcing_fv_max               =   2.7291049847005E-01
(PID.TID 0000.0001) %MON forcing_fv_min               =  -4.5601609633007E-01
(PID.TID 0000.0001) %MON forcing_fv_mean              =  -1.4145467047841E-02
(PID.TID 0000.0001) %MON forcing_fv_sd                =   6.3939205734009E-02
(PID.TID 0000.0001) %MON forcing_fv_del2              =   5.4504829810837E-04
(PID.TID 0000.0001) %MON trAdv_CFL_u_max              =   2.3475617248375E-05
(PID.TID 0000.0001) %MON trAdv_CFL_v_max              =   2.3292953747077E-05
(PID.TID 0000.0001) %MON trAdv_CFL_w_max              =   5.5311026478083E-04
(PID.TID 0000.0001) %MON advcfl_uvel_max              =   2.3607588466160E-05
(PID.TID 0000.0001) %MON advcfl_vvel_max              =   2.1891421259462E-05
(PID.TID 0000.0001) %MON advcfl_wvel_max              =   1.1907513014936E-03
(PID.TID 0000.0001) %MON advcfl_W_hf_max              =   5.5311026478083E-04
(PID.TID 0000.0001) %MON pe_b_mean                    =   5.6615098344407E-04
(PID.TID 0000.0001) %MON ke_max                       =   4.0565652960560E-02
(PID.TID 0000.0001) %MON ke_mean                      =   1.4104129997153E-04
(PID.TID 0000.0001) %MON ke_vol                       =   1.3398054622378E+18
(PID.TID 0000.0001) %MON vort_r_min                   =  -1.1860756237147E-06
(PID.TID 0000.0001) %MON vort_r_max                   =   1.2181423567389E-06
(PID.TID 0000.0001) %MON vort_a_mean                  =  -2.0549865324846E-05
(PID.TID 0000.0001) %MON vort_a_sd                    =   7.5259517718679E-05
(PID.TID 0000.0001) %MON vort_p_mean                  =  -2.4783432292415E-05
(PID.TID 0000.0001) %MON vort_p_sd                    =   1.2811974450901E-04
(PID.TID 0000.0001) %MON surfExpan_theta_mean         =  -4.8258590815752E-06
(PID.TID 0000.0001) %MON surfExpan_salt_mean          =   6.3414863273922E-07
(PID.TID 0000.0001) // =======================================================
(PID.TID 0000.0001) // End MONITOR dynamic field statistics
(PID.TID 0000.0001) // =======================================================
 cg2d: Sum(rhs),rhsMax =  -3.94772925092614E+00  2.35769518164283E+05
(PID.TID 0000.0001)      cg2d_init_res =   3.81641557962536E-03
(PID.TID 0000.0001)      cg2d_iters(min,last) =      -1       1
(PID.TID 0000.0001)      cg2d_last_res =   1.75760378394703E-08
(PID.TID 0000.0001) // =======================================================
(PID.TID 0000.0001) // Begin MONITOR dynamic field statistics
(PID.TID 0000.0001) // =======================================================
(PID.TID 0000.0001) %MON time_tsnumber                =                 72018
(PID.TID 0000.0001) %MON time_secondsf                =   1.8004500000000E+06
(PID.TID 0000.0001) %MON dynstat_eta_max              =   8.9472578094126E+00
(PID.TID 0000.0001) %MON dynstat_eta_min              =  -1.7674509135332E+00
(PID.TID 0000.0001) %MON dynstat_eta_mean             =   8.3450931206954E-03
(PID.TID 0000.0001) %MON dynstat_eta_sd               =   6.5190907408179E-01
(PID.TID 0000.0001) %MON dynstat_eta_del2             =   8.6243527745266E-03
(PID.TID 0000.0001) %MON dynstat_uvel_max             =   2.0248009921911E-01
(PID.TID 0000.0001) %MON dynstat_uvel_min             =  -2.8764595044039E-01
(PID.TID 0000.0001) %MON dynstat_uvel_mean            =  -4.8304966966495E-04
(PID.TID 0000.0001) %MON dynstat_uvel_sd              =   1.2041399063428E-02
(PID.TID 0000.0001) %MON dynstat_uvel_del2            =   5.2679627940306E-05
(PID.TID 0000.0001) %MON dynstat_vvel_max             =   1.7357656857109E-01
(PID.TID 0000.0001) %MON dynstat_vvel_min             =  -2.2486262373046E-01
(PID.TID 0000.0001) %MON dynstat_vvel_mean            =  -3.9997552482085E-04
(PID.TID 0000.0001) %MON dynstat_vvel_sd              =   1.2655791710857E-02
(PID.TID 0000.0001) %MON dynstat_vvel_del2            =   5.3473322903369E-05
(PID.TID 0000.0001) %MON dynstat_wvel_max             =   1.0321668248316E-04
(PID.TID 0000.0001) %MON dynstat_wvel_min             =  -1.1864586152892E-03
(PID.TID 0000.0001) %MON dynstat_wvel_mean            =  -8.0982975005737E-08
(PID.TID 0000.0001) %MON dynstat_wvel_sd              =   6.6001869016176E-06
(PID.TID 0000.0001) %MON dynstat_wvel_del2            =   9.9793522808841E-08
(PID.TID 0000.0001) %MON dynstat_theta_max            =   3.0925849509779E+01
(PID.TID 0000.0001) %MON dynstat_theta_min            =  -3.0176021265855E+00
(PID.TID 0000.0001) %MON dynstat_theta_mean           =   3.9089085570541E+00
(PID.TID 0000.0001) %MON dynstat_theta_sd             =   4.5705269855457E+00
(PID.TID 0000.0001) %MON dynstat_theta_del2           =   2.6560820904099E-03
(PID.TID 0000.0001) %MON dynstat_salt_max             =   4.1377612608663E+01
(PID.TID 0000.0001) %MON dynstat_salt_min             =   1.8518386425635E+01
(PID.TID 0000.0001) %MON dynstat_salt_mean            =   3.4772206706225E+01
(PID.TID 0000.0001) %MON dynstat_salt_sd              =   5.3091846129953E-01
(PID.TID 0000.0001) %MON dynstat_salt_del2            =   8.0226720184658E-04
(PID.TID 0000.0001) %MON dynstat_sst_max              =   3.0925849509779E+01
(PID.TID 0000.0001) %MON dynstat_sst_min              =  -1.8999809421258E+00
(PID.TID 0000.0001) %MON dynstat_sst_mean             =   1.8097503047888E+01
(PID.TID 0000.0001) %MON dynstat_sst_sd               =   9.8006565547881E+00
(PID.TID 0000.0001) %MON dynstat_sst_del2             =   1.5373519720506E-02
(PID.TID 0000.0001) %MON dynstat_sss_max              =   4.1377612608663E+01
(PID.TID 0000.0001) %MON dynstat_sss_min              =   1.8752804691446E+01
(PID.TID 0000.0001) %MON dynstat_sss_mean             =   3.4642626365913E+01
(PID.TID 0000.0001) %MON dynstat_sss_sd               =   1.4563054641140E+00
(PID.TID 0000.0001) %MON dynstat_sss_del2             =   8.0061365941036E-03
(PID.TID 0000.0001) %MON forcing_qnet_max             =   1.4502841796875E+04
(PID.TID 0000.0001) %MON forcing_qnet_min             =  -3.0807013671875E+04
(PID.TID 0000.0001) %MON forcing_qnet_mean            =  -3.5194065856638E+02
(PID.TID 0000.0001) %MON forcing_qnet_sd              =   2.3555620735275E+03
(PID.TID 0000.0001) %MON forcing_qnet_del2            =   6.0997221864135E+01
(PID.TID 0000.0001) %MON forcing_qsw_max              =   0.0000000000000E+00
(PID.TID 0000.0001) %MON forcing_qsw_min              =   0.0000000000000E+00
(PID.TID 0000.0001) %MON forcing_qsw_mean             =   0.0000000000000E+00
(PID.TID 0000.0001) %MON forcing_qsw_sd               =   0.0000000000000E+00
(PID.TID 0000.0001) %MON forcing_qsw_del2             =   0.0000000000000E+00
(PID.TID 0000.0001) %MON forcing_empmr_max            =   5.4032094776630E-02
(PID.TID 0000.0001) %MON forcing_empmr_min            =  -1.2279846668243E+00
(PID.TID 0000.0001) %MON forcing_empmr_mean           =  -1.0709251574707E-03
(PID.TID 0000.0001) %MON forcing_empmr_sd             =   2.2207329579852E-02
(PID.TID 0000.0001) %MON forcing_empmr_del2           =   8.4564676568052E-04
(PID.TID 0000.0001) %MON forcing_fu_max               =   5.1186009419184E-01
(PID.TID 0000.0001) %MON forcing_fu_min               =  -4.4117910165761E-01
(PID.TID 0000.0001) %MON forcing_fu_mean              =  -3.8651212768904E-03
(PID.TID 0000.0001) %MON forcing_fu_sd                =   6.8499635080254E-02
(PID.TID 0000.0001) %MON forcing_fu_del2              =   6.7731597154273E-04
(PID.TID 0000.0001) %MON forcing_fv_max               =   2.7291049847005E-01
(PID.TID 0000.0001) %MON forcing_fv_min               =  -4.5601609633007E-01
(PID.TID 0000.0001) %MON forcing_fv_mean              =  -1.4145467047841E-02
(PID.TID 0000.0001) %MON forcing_fv_sd                =   6.3939205734009E-02
(PID.TID 0000.0001) %MON forcing_fv_del2              =   5.4504829810837E-04
(PID.TID 0000.0001) %MON trAdv_CFL_u_max              =   2.3473897190708E-05
(PID.TID 0000.0001) %MON trAdv_CFL_v_max              =   2.3293824761962E-05
(PID.TID 0000.0001) %MON trAdv_CFL_w_max              =   5.5105840037577E-04
(PID.TID 0000.0001) %MON advcfl_uvel_max              =   2.3605858741538E-05
(PID.TID 0000.0001) %MON advcfl_vvel_max              =   2.1892239831094E-05
(PID.TID 0000.0001) %MON advcfl_wvel_max              =   1.1864586152892E-03
(PID.TID 0000.0001) %MON advcfl_W_hf_max              =   5.5105840037577E-04
(PID.TID 0000.0001) %MON pe_b_mean                    =   5.6625063757643E-04
(PID.TID 0000.0001) %MON ke_max                       =   4.0557928438115E-02
(PID.TID 0000.0001) %MON ke_mean                      =   1.4110003423871E-04
(PID.TID 0000.0001) %MON ke_vol                       =   1.3398054726185E+18
(PID.TID 0000.0001) %MON vort_r_min                   =  -1.1861771323479E-06
(PID.TID 0000.0001) %MON vort_r_max                   =   1.2183346052600E-06
(PID.TID 0000.0001) %MON vort_a_mean                  =  -2.0549865324846E-05
(PID.TID 0000.0001) %MON vort_a_sd                    =   7.5259517766140E-05
(PID.TID 0000.0001) %MON vort_p_mean                  =  -2.4783432134130E-05
(PID.TID 0000.0001) %MON vort_p_sd                    =   1.2811974150224E-04
(PID.TID 0000.0001) %MON surfExpan_theta_mean         =  -4.9079855988926E-06
(PID.TID 0000.0001) %MON surfExpan_salt_mean          =   6.3204619355777E-07
(PID.TID 0000.0001) // =======================================================
(PID.TID 0000.0001) // End MONITOR dynamic field statistics
(PID.TID 0000.0001) // =======================================================
 cg2d: Sum(rhs),rhsMax =  -3.95759811823682E+00  2.35857331523190E+05
(PID.TID 0000.0001)      cg2d_init_res =   3.74160073093102E-03
(PID.TID 0000.0001)      cg2d_iters(min,last) =      -1       1
(PID.TID 0000.0001)      cg2d_last_res =   1.83371244452476E-08
(PID.TID 0000.0001) // =======================================================
(PID.TID 0000.0001) // Begin MONITOR dynamic field statistics
(PID.TID 0000.0001) // =======================================================
(PID.TID 0000.0001) %MON time_tsnumber                =                 72019
(PID.TID 0000.0001) %MON time_secondsf                =   1.8004750000000E+06
(PID.TID 0000.0001) %MON dynstat_eta_max              =   8.9503813043731E+00
(PID.TID 0000.0001) %MON dynstat_eta_min              =  -1.7668364488629E+00
(PID.TID 0000.0001) %MON dynstat_eta_mean             =   8.3690708253969E-03
(PID.TID 0000.0001) %MON dynstat_eta_sd               =   6.5194015892051E-01
(PID.TID 0000.0001) %MON dynstat_eta_del2             =   8.6247571877711E-03
(PID.TID 0000.0001) %MON dynstat_uvel_max             =   2.0962893184272E-01
(PID.TID 0000.0001) %MON dynstat_uvel_min             =  -2.8762487440533E-01
(PID.TID 0000.0001) %MON dynstat_uvel_mean            =  -4.8265173950364E-04
(PID.TID 0000.0001) %MON dynstat_uvel_sd              =   1.2044180843016E-02
(PID.TID 0000.0001) %MON dynstat_uvel_del2            =   5.2877305833810E-05
(PID.TID 0000.0001) %MON dynstat_vvel_max             =   1.7358308343663E-01
(PID.TID 0000.0001) %MON dynstat_vvel_min             =  -2.2484477949683E-01
(PID.TID 0000.0001) %MON dynstat_vvel_mean            =  -3.9972487086186E-04
(PID.TID 0000.0001) %MON dynstat_vvel_sd              =   1.2658547221104E-02
(PID.TID 0000.0001) %MON dynstat_vvel_del2            =   5.3890316376313E-05
(PID.TID 0000.0001) %MON dynstat_wvel_max             =   1.0322051529971E-04
(PID.TID 0000.0001) %MON dynstat_wvel_min             =  -1.1821659290848E-03
(PID.TID 0000.0001) %MON dynstat_wvel_mean            =  -8.1422146928790E-08
(PID.TID 0000.0001) %MON dynstat_wvel_sd              =   6.5916620833102E-06
(PID.TID 0000.0001) %MON dynstat_wvel_del2            =   9.8340148519721E-08
(PID.TID 0000.0001) %MON dynstat_theta_max            =   3.0925843437157E+01
(PID.TID 0000.0001) %MON dynstat_theta_min            =  -3.0176056471637E+00
(PID.TID 0000.0001) %MON dynstat_theta_mean           =   3.9089092443330E+00
(PID.TID 0000.0001) %MON dynstat_theta_sd             =   4.5705284863080E+00
(PID.TID 0000.0001) %MON dynstat_theta_del2           =   2.6561147163720E-03
(PID.TID 0000.0001) %MON dynstat_salt_max             =   4.1377593473080E+01
(PID.TID 0000.0001) %MON dynstat_salt_min             =   1.8518386670521E+01
(PID.TID 0000.0001) %MON dynstat_salt_mean            =   3.4772206550769E+01
(PID.TID 0000.0001) %MON dynstat_salt_sd              =   5.3091840971759E-01
(PID.TID 0000.0001) %MON dynstat_salt_del2            =   8.0227546701580E-04
(PID.TID 0000.0001) %MON dynstat_sst_max              =   3.0925843437157E+01
(PID.TID 0000.0001) %MON dynstat_sst_min              =  -1.8999798779681E+00
(PID.TID 0000.0001) %MON dynstat_sst_mean             =   1.8097543817604E+01
(PID.TID 0000.0001) %MON dynstat_sst_sd               =   9.8006424760720E+00
(PID.TID 0000.0001) %MON dynstat_sst_del2             =   1.5373808121232E-02
(PID.TID 0000.0001) %MON dynstat_sss_max              =   4.1377593473080E+01
(PID.TID 0000.0001) %MON dynstat_sss_min              =   1.8752972348718E+01
(PID.TID 0000.0001) %MON dynstat_sss_mean             =   3.4642610729730E+01
(PID.TID 0000.0001) %MON dynstat_sss_sd               =   1.4563592965537E+00
(PID.TID 0000.0001) %MON dynstat_sss_del2             =   8.0061419868599E-03
(PID.TID 0000.0001) %MON forcing_qnet_max             =   1.4200691406250E+04
(PID.TID 0000.0001) %MON forcing_qnet_min             =  -2.9764228515625E+04
(PID.TID 0000.0001) %MON forcing_qnet_mean            =  -3.6999099281411E+02
(PID.TID 0000.0001) %MON forcing_qnet_sd              =   2.2664560025408E+03
(PID.TID 0000.0001) %MON forcing_qnet_del2            =   5.8839158053628E+01
(PID.TID 0000.0001) %MON forcing_qsw_max              =   0.0000000000000E+00
(PID.TID 0000.0001) %MON forcing_qsw_min              =   0.0000000000000E+00
(PID.TID 0000.0001) %MON forcing_qsw_mean             =   0.0000000000000E+00
(PID.TID 0000.0001) %MON forcing_qsw_sd               =   0.0000000000000E+00
(PID.TID 0000.0001) %MON forcing_qsw_del2             =   0.0000000000000E+00
(PID.TID 0000.0001) %MON forcing_empmr_max            =   5.3717929869890E-02
(PID.TID 0000.0001) %MON forcing_empmr_min            =  -1.2235417366028E+00
(PID.TID 0000.0001) %MON forcing_empmr_mean           =  -9.9267697461980E-04
(PID.TID 0000.0001) %MON forcing_empmr_sd             =   2.1306267926883E-02
(PID.TID 0000.0001) %MON forcing_empmr_del2           =   8.1874930644033E-04
(PID.TID 0000.0001) %MON forcing_fu_max               =   5.1186009419184E-01
(PID.TID 0000.0001) %MON forcing_fu_min               =  -4.4117910165761E-01
(PID.TID 0000.0001) %MON forcing_fu_mean              =  -3.8651212768904E-03
(PID.TID 0000.0001) %MON forcing_fu_sd                =   6.8499635080254E-02
(PID.TID 0000.0001) %MON forcing_fu_del2              =   6.7731597154273E-04
(PID.TID 0000.0001) %MON forcing_fv_max               =   2.7291049847005E-01
(PID.TID 0000.0001) %MON forcing_fv_min               =  -4.5601609633007E-01
(PID.TID 0000.0001) %MON forcing_fv_mean              =  -1.4145467047841E-02
(PID.TID 0000.0001) %MON forcing_fv_sd                =   6.3939205734009E-02
(PID.TID 0000.0001) %MON forcing_fv_del2              =   5.4504829810837E-04
(PID.TID 0000.0001) %MON trAdv_CFL_u_max              =   2.3472177237905E-05
(PID.TID 0000.0001) %MON trAdv_CFL_v_max              =   2.3294699086968E-05
(PID.TID 0000.0001) %MON trAdv_CFL_w_max              =   5.4900453996037E-04
(PID.TID 0000.0001) %MON advcfl_uvel_max              =   2.3604129122520E-05
(PID.TID 0000.0001) %MON advcfl_vvel_max              =   2.1893061514574E-05
(PID.TID 0000.0001) %MON advcfl_wvel_max              =   1.1821659290848E-03
(PID.TID 0000.0001) %MON advcfl_W_hf_max              =   5.4900453996037E-04
(PID.TID 0000.0001) %MON pe_b_mean                    =   5.6630516074470E-04
(PID.TID 0000.0001) %MON ke_max                       =   4.0550205403328E-02
(PID.TID 0000.0001) %MON ke_mean                      =   1.4116289362402E-04
(PID.TID 0000.0001) %MON ke_vol                       =   1.3398054820315E+18
(PID.TID 0000.0001) %MON vort_r_min                   =  -1.1862790026374E-06
(PID.TID 0000.0001) %MON vort_r_max                   =   1.2185273622021E-06
(PID.TID 0000.0001) %MON vort_a_mean                  =  -2.0549865324846E-05
(PID.TID 0000.0001) %MON vort_a_sd                    =   7.5259517814282E-05
(PID.TID 0000.0001) %MON vort_p_mean                  =  -2.4783431987098E-05
(PID.TID 0000.0001) %MON vort_p_sd                    =   1.2811973881016E-04
(PID.TID 0000.0001) %MON surfExpan_theta_mean         =  -4.9650179707953E-06
(PID.TID 0000.0001) %MON surfExpan_salt_mean          =   6.3139415249551E-07
(PID.TID 0000.0001) // =======================================================
(PID.TID 0000.0001) // End MONITOR dynamic field statistics
(PID.TID 0000.0001) // =======================================================
 cg2d: Sum(rhs),rhsMax =  -3.96751950809596E+00  2.35903979671051E+05
(PID.TID 0000.0001)      cg2d_init_res =   3.72368313392761E-03
(PID.TID 0000.0001)      cg2d_iters(min,last) =      -1       1
(PID.TID 0000.0001)      cg2d_last_res =   1.90978922711202E-08
(PID.TID 0000.0001) // =======================================================
(PID.TID 0000.0001) // Begin MONITOR dynamic field statistics
(PID.TID 0000.0001) // =======================================================
(PID.TID 0000.0001) %MON time_tsnumber                =                 72020
(PID.TID 0000.0001) %MON time_secondsf                =   1.8005000000000E+06
(PID.TID 0000.0001) %MON dynstat_eta_max              =   8.9518893482652E+00
(PID.TID 0000.0001) %MON dynstat_eta_min              =  -1.7661057880831E+00
(PID.TID 0000.0001) %MON dynstat_eta_mean             =   8.3917108278192E-03
(PID.TID 0000.0001) %MON dynstat_eta_sd               =   6.5195231246220E-01
(PID.TID 0000.0001) %MON dynstat_eta_del2             =   8.6234873643599E-03
(PID.TID 0000.0001) %MON dynstat_uvel_max             =   2.1677217572428E-01
(PID.TID 0000.0001) %MON dynstat_uvel_min             =  -2.8760379970496E-01
(PID.TID 0000.0001) %MON dynstat_uvel_mean            =  -4.8225208493492E-04
(PID.TID 0000.0001) %MON dynstat_uvel_sd              =   1.2047136847599E-02
(PID.TID 0000.0001) %MON dynstat_uvel_del2            =   5.3086499076467E-05
(PID.TID 0000.0001) %MON dynstat_vvel_max             =   1.7358962350273E-01
(PID.TID 0000.0001) %MON dynstat_vvel_min             =  -2.2482692999585E-01
(PID.TID 0000.0001) %MON dynstat_vvel_mean            =  -3.9947440753555E-04
(PID.TID 0000.0001) %MON dynstat_vvel_sd              =   1.2661485609634E-02
(PID.TID 0000.0001) %MON dynstat_vvel_del2            =   5.4332012098978E-05
(PID.TID 0000.0001) %MON dynstat_wvel_max             =   1.0322437079580E-04
(PID.TID 0000.0001) %MON dynstat_wvel_min             =  -1.1779111364613E-03
(PID.TID 0000.0001) %MON dynstat_wvel_mean            =  -8.2221398020180E-08
(PID.TID 0000.0001) %MON dynstat_wvel_sd              =   6.6022303323090E-06
(PID.TID 0000.0001) %MON dynstat_wvel_del2            =   9.7591278410597E-08
(PID.TID 0000.0001) %MON dynstat_theta_max            =   3.0925837365100E+01
(PID.TID 0000.0001) %MON dynstat_theta_min            =  -3.0176090838378E+00
(PID.TID 0000.0001) %MON dynstat_theta_mean           =   3.9089099501280E+00
(PID.TID 0000.0001) %MON dynstat_theta_sd             =   4.5705300625222E+00
(PID.TID 0000.0001) %MON dynstat_theta_del2           =   2.6561437010474E-03
(PID.TID 0000.0001) %MON dynstat_salt_max             =   4.1377579502825E+01
(PID.TID 0000.0001) %MON dynstat_salt_min             =   1.8518386918167E+01
(PID.TID 0000.0001) %MON dynstat_salt_mean            =   3.4772206376316E+01
(PID.TID 0000.0001) %MON dynstat_salt_sd              =   5.3091844447505E-01
(PID.TID 0000.0001) %MON dynstat_salt_del2            =   8.0228396943496E-04
(PID.TID 0000.0001) %MON dynstat_sst_max              =   3.0925837365100E+01
(PID.TID 0000.0001) %MON dynstat_sst_min              =  -1.8999788135396E+00
(PID.TID 0000.0001) %MON dynstat_sst_mean             =   1.8097586730651E+01
(PID.TID 0000.0001) %MON dynstat_sst_sd               =   9.8006282147632E+00
(PID.TID 0000.0001) %MON dynstat_sst_del2             =   1.5374036079632E-02
(PID.TID 0000.0001) %MON dynstat_sss_max              =   4.1377579502825E+01
(PID.TID 0000.0001) %MON dynstat_sss_min              =   1.8753089729767E+01
(PID.TID 0000.0001) %MON dynstat_sss_mean             =   3.4642594240103E+01
(PID.TID 0000.0001) %MON dynstat_sss_sd               =   1.4564085147007E+00
(PID.TID 0000.0001) %MON dynstat_sss_del2             =   8.0061623228140E-03
(PID.TID 0000.0001) %MON forcing_qnet_max             =   1.3918035156250E+04
(PID.TID 0000.0001) %MON forcing_qnet_min             =  -2.8750681640625E+04
(PID.TID 0000.0001) %MON forcing_qnet_mean            =  -3.8005699981914E+02
(PID.TID 0000.0001) %MON forcing_qnet_sd              =   2.1883182951053E+03
(PID.TID 0000.0001) %MON forcing_qnet_del2            =   5.6880785402774E+01
(PID.TID 0000.0001) %MON forcing_qsw_max              =   0.0000000000000E+00
(PID.TID 0000.0001) %MON forcing_qsw_min              =   0.0000000000000E+00
(PID.TID 0000.0001) %MON forcing_qsw_mean             =   0.0000000000000E+00
(PID.TID 0000.0001) %MON forcing_qsw_sd               =   0.0000000000000E+00
(PID.TID 0000.0001) %MON forcing_qsw_del2             =   0.0000000000000E+00
(PID.TID 0000.0001) %MON forcing_empmr_max            =   5.3403768688440E-02
(PID.TID 0000.0001) %MON forcing_empmr_min            =  -1.2191380262375E+00
(PID.TID 0000.0001) %MON forcing_empmr_mean           =  -9.3729610029801E-04
(PID.TID 0000.0001) %MON forcing_empmr_sd             =   2.0812160175814E-02
(PID.TID 0000.0001) %MON forcing_empmr_del2           =   8.0370910474372E-04
(PID.TID 0000.0001) %MON forcing_fu_max               =   5.1186009419184E-01
(PID.TID 0000.0001) %MON forcing_fu_min               =  -4.4117910165761E-01
(PID.TID 0000.0001) %MON forcing_fu_mean              =  -3.8651212768904E-03
(PID.TID 0000.0001) %MON forcing_fu_sd                =   6.8499635080254E-02
(PID.TID 0000.0001) %MON forcing_fu_del2              =   6.7731597154273E-04
(PID.TID 0000.0001) %MON forcing_fv_max               =   2.7291049847005E-01
(PID.TID 0000.0001) %MON forcing_fv_min               =  -4.5601609633007E-01
(PID.TID 0000.0001) %MON forcing_fv_mean              =  -1.4145467047841E-02
(PID.TID 0000.0001) %MON forcing_fv_sd                =   6.3939205734009E-02
(PID.TID 0000.0001) %MON forcing_fv_del2              =   5.4504829810837E-04
(PID.TID 0000.0001) %MON trAdv_CFL_u_max              =   2.3470457393877E-05
(PID.TID 0000.0001) %MON trAdv_CFL_v_max              =   2.3295576793211E-05
(PID.TID 0000.0001) %MON trAdv_CFL_w_max              =   5.4696623575723E-04
(PID.TID 0000.0001) %MON advcfl_uvel_max              =   2.3602399613034E-05
(PID.TID 0000.0001) %MON advcfl_vvel_max              =   2.1893886376459E-05
(PID.TID 0000.0001) %MON advcfl_wvel_max              =   1.1779111364613E-03
(PID.TID 0000.0001) %MON advcfl_W_hf_max              =   5.4696623575723E-04
(PID.TID 0000.0001) %MON pe_b_mean                    =   5.6632677353857E-04
(PID.TID 0000.0001) %MON ke_max                       =   4.0542483862881E-02
(PID.TID 0000.0001) %MON ke_mean                      =   1.4122984290843E-04
(PID.TID 0000.0001) %MON ke_vol                       =   1.3398054907566E+18
(PID.TID 0000.0001) %MON vort_r_min                   =  -1.1863812300292E-06
(PID.TID 0000.0001) %MON vort_r_max                   =   1.2187206287494E-06
(PID.TID 0000.0001) %MON vort_a_mean                  =  -2.0549865324846E-05
(PID.TID 0000.0001) %MON vort_a_sd                    =   7.5259517863109E-05
(PID.TID 0000.0001) %MON vort_p_mean                  =  -2.4783431847946E-05
(PID.TID 0000.0001) %MON vort_p_sd                    =   1.2811973634160E-04
(PID.TID 0000.0001) %MON surfExpan_theta_mean         =  -5.0131339885357E-06
(PID.TID 0000.0001) %MON surfExpan_salt_mean          =   6.3100920407299E-07
(PID.TID 0000.0001) // =======================================================
(PID.TID 0000.0001) // End MONITOR dynamic field statistics
(PID.TID 0000.0001) // =======================================================
 cg2d: Sum(rhs),rhsMax =  -3.97748904762472E+00  2.35920808636996E+05
(PID.TID 0000.0001)      cg2d_init_res =   3.73131521662350E-03
(PID.TID 0000.0001)      cg2d_iters(min,last) =      -1       1
(PID.TID 0000.0001)      cg2d_last_res =   1.98517908270607E-08
(PID.TID 0000.0001) // =======================================================
(PID.TID 0000.0001) // Begin MONITOR dynamic field statistics
(PID.TID 0000.0001) // =======================================================
(PID.TID 0000.0001) %MON time_tsnumber                =                 72021
(PID.TID 0000.0001) %MON time_secondsf                =   1.8005250000000E+06
(PID.TID 0000.0001) %MON dynstat_eta_max              =   8.9522224349287E+00
(PID.TID 0000.0001) %MON dynstat_eta_min              =  -1.7652787938333E+00
(PID.TID 0000.0001) %MON dynstat_eta_mean             =   8.4133975806488E-03
(PID.TID 0000.0001) %MON dynstat_eta_sd               =   6.5195050757903E-01
(PID.TID 0000.0001) %MON dynstat_eta_del2             =   8.6209608697037E-03
(PID.TID 0000.0001) %MON dynstat_uvel_max             =   2.2390874901706E-01
(PID.TID 0000.0001) %MON dynstat_uvel_min             =  -2.8758272638171E-01
(PID.TID 0000.0001) %MON dynstat_uvel_mean            =  -4.8185064656894E-04
(PID.TID 0000.0001) %MON dynstat_uvel_sd              =   1.2050265678853E-02
(PID.TID 0000.0001) %MON dynstat_uvel_del2            =   5.3306978382703E-05
(PID.TID 0000.0001) %MON dynstat_vvel_max             =   1.7359618936759E-01
(PID.TID 0000.0001) %MON dynstat_vvel_min             =  -2.2480907493319E-01
(PID.TID 0000.0001) %MON dynstat_vvel_mean            =  -3.9922408152910E-04
(PID.TID 0000.0001) %MON dynstat_vvel_sd              =   1.2664604937132E-02
(PID.TID 0000.0001) %MON dynstat_vvel_del2            =   5.4797608793845E-05
(PID.TID 0000.0001) %MON dynstat_wvel_max             =   1.0322824888336E-04
(PID.TID 0000.0001) %MON dynstat_wvel_min             =  -1.1736564590159E-03
(PID.TID 0000.0001) %MON dynstat_wvel_mean            =  -8.3206274200332E-08
(PID.TID 0000.0001) %MON dynstat_wvel_sd              =   6.6232428149601E-06
(PID.TID 0000.0001) %MON dynstat_wvel_del2            =   9.7199027867663E-08
(PID.TID 0000.0001) %MON dynstat_theta_max            =   3.0925831293609E+01
(PID.TID 0000.0001) %MON dynstat_theta_min            =  -3.0176124323204E+00
(PID.TID 0000.0001) %MON dynstat_theta_mean           =   3.9089106651372E+00
(PID.TID 0000.0001) %MON dynstat_theta_sd             =   4.5705316864814E+00
(PID.TID 0000.0001) %MON dynstat_theta_del2           =   2.6561688852598E-03
(PID.TID 0000.0001) %MON dynstat_salt_max             =   4.1377568892599E+01
(PID.TID 0000.0001) %MON dynstat_salt_min             =   1.8518387168120E+01
(PID.TID 0000.0001) %MON dynstat_salt_mean            =   3.4772206188522E+01
(PID.TID 0000.0001) %MON dynstat_salt_sd              =   5.3091854272682E-01
(PID.TID 0000.0001) %MON dynstat_salt_del2            =   8.0229248530193E-04
(PID.TID 0000.0001) %MON dynstat_sst_max              =   3.0925831293609E+01
(PID.TID 0000.0001) %MON dynstat_sst_min              =  -1.8999777488441E+00
(PID.TID 0000.0001) %MON dynstat_sst_mean             =   1.8097631011085E+01
(PID.TID 0000.0001) %MON dynstat_sst_sd               =   9.8006139203895E+00
(PID.TID 0000.0001) %MON dynstat_sst_del2             =   1.5374201298697E-02
(PID.TID 0000.0001) %MON dynstat_sss_max              =   4.1377568892599E+01
(PID.TID 0000.0001) %MON dynstat_sss_min              =   1.8753171936964E+01
(PID.TID 0000.0001) %MON dynstat_sss_mean             =   3.4642577266812E+01
(PID.TID 0000.0001) %MON dynstat_sss_sd               =   1.4564533530171E+00
(PID.TID 0000.0001) %MON dynstat_sss_del2             =   8.0061934912648E-03
(PID.TID 0000.0001) %MON forcing_qnet_max             =   1.3625633789062E+04
(PID.TID 0000.0001) %MON forcing_qnet_min             =  -2.7776115234375E+04
(PID.TID 0000.0001) %MON forcing_qnet_mean            =  -3.8482055035467E+02
(PID.TID 0000.0001) %MON forcing_qnet_sd              =   2.1182958226831E+03
(PID.TID 0000.0001) %MON forcing_qnet_del2            =   5.5074375226220E+01
(PID.TID 0000.0001) %MON forcing_qsw_max              =   0.0000000000000E+00
(PID.TID 0000.0001) %MON forcing_qsw_min              =   0.0000000000000E+00
(PID.TID 0000.0001) %MON forcing_qsw_mean             =   0.0000000000000E+00
(PID.TID 0000.0001) %MON forcing_qsw_sd               =   0.0000000000000E+00
(PID.TID 0000.0001) %MON forcing_qsw_del2             =   0.0000000000000E+00
(PID.TID 0000.0001) %MON forcing_empmr_max            =   5.3093630820513E-02
(PID.TID 0000.0001) %MON forcing_empmr_min            =  -1.2147344350815E+00
(PID.TID 0000.0001) %MON forcing_empmr_mean           =  -8.9783156713644E-04
(PID.TID 0000.0001) %MON forcing_empmr_sd             =   2.0529895731929E-02
(PID.TID 0000.0001) %MON forcing_empmr_del2           =   7.9481042443175E-04
(PID.TID 0000.0001) %MON forcing_fu_max               =   5.1186009419184E-01
(PID.TID 0000.0001) %MON forcing_fu_min               =  -4.4117910165761E-01
(PID.TID 0000.0001) %MON forcing_fu_mean              =  -3.8651212768904E-03
(PID.TID 0000.0001) %MON forcing_fu_sd                =   6.8499635080254E-02
(PID.TID 0000.0001) %MON forcing_fu_del2              =   6.7731597154273E-04
(PID.TID 0000.0001) %MON forcing_fv_max               =   2.7291049847005E-01
(PID.TID 0000.0001) %MON forcing_fv_min               =  -4.5601609633007E-01
(PID.TID 0000.0001) %MON forcing_fv_mean              =  -1.4145467047841E-02
(PID.TID 0000.0001) %MON forcing_fv_sd                =   6.3939205734009E-02
(PID.TID 0000.0001) %MON forcing_fv_del2              =   5.4504829810837E-04
(PID.TID 0000.0001) %MON trAdv_CFL_u_max              =   2.3468737662089E-05
(PID.TID 0000.0001) %MON trAdv_CFL_v_max              =   2.3296457962080E-05
(PID.TID 0000.0001) %MON trAdv_CFL_w_max              =   5.4492601488212E-04
(PID.TID 0000.0001) %MON advcfl_uvel_max              =   2.3600670216562E-05
(PID.TID 0000.0001) %MON advcfl_vvel_max              =   2.1894714492197E-05
(PID.TID 0000.0001) %MON advcfl_wvel_max              =   1.1736564590159E-03
(PID.TID 0000.0001) %MON advcfl_W_hf_max              =   5.4492601488212E-04
(PID.TID 0000.0001) %MON pe_b_mean                    =   5.6632412042131E-04
(PID.TID 0000.0001) %MON ke_max                       =   4.0534763822799E-02
(PID.TID 0000.0001) %MON ke_mean                      =   1.4130084669726E-04
(PID.TID 0000.0001) %MON ke_vol                       =   1.3398054989950E+18
(PID.TID 0000.0001) %MON vort_r_min                   =  -1.1864838097721E-06
(PID.TID 0000.0001) %MON vort_r_max                   =   1.2189144060748E-06
(PID.TID 0000.0001) %MON vort_a_mean                  =  -2.0549865324846E-05
(PID.TID 0000.0001) %MON vort_a_sd                    =   7.5259517912626E-05
(PID.TID 0000.0001) %MON vort_p_mean                  =  -2.4783431714230E-05
(PID.TID 0000.0001) %MON vort_p_sd                    =   1.2811973403231E-04
(PID.TID 0000.0001) %MON surfExpan_theta_mean         =  -5.0523146501847E-06
(PID.TID 0000.0001) %MON surfExpan_salt_mean          =   6.3110084811275E-07
(PID.TID 0000.0001) // =======================================================
(PID.TID 0000.0001) // End MONITOR dynamic field statistics
(PID.TID 0000.0001) // =======================================================
 cg2d: Sum(rhs),rhsMax =  -3.98750175896103E+00  2.35915829990446E+05
(PID.TID 0000.0001)      cg2d_init_res =   3.74947810541512E-03
(PID.TID 0000.0001)      cg2d_iters(min,last) =      -1       1
(PID.TID 0000.0001)      cg2d_last_res =   2.05951313914445E-08
(PID.TID 0000.0001) // =======================================================
(PID.TID 0000.0001) // Begin MONITOR dynamic field statistics
(PID.TID 0000.0001) // =======================================================
(PID.TID 0000.0001) %MON time_tsnumber                =                 72022
(PID.TID 0000.0001) %MON time_secondsf                =   1.8005500000000E+06
(PID.TID 0000.0001) %MON dynstat_eta_max              =   8.9516914497997E+00
(PID.TID 0000.0001) %MON dynstat_eta_min              =  -1.7643695840405E+00
(PID.TID 0000.0001) %MON dynstat_eta_mean             =   8.4343990079985E-03
(PID.TID 0000.0001) %MON dynstat_eta_sd               =   6.5193825785517E-01
(PID.TID 0000.0001) %MON dynstat_eta_del2             =   8.6174731436901E-03
(PID.TID 0000.0001) %MON dynstat_uvel_max             =   2.3103782165951E-01
(PID.TID 0000.0001) %MON dynstat_uvel_min             =  -2.8756165447688E-01
(PID.TID 0000.0001) %MON dynstat_uvel_mean            =  -4.8144735390632E-04
(PID.TID 0000.0001) %MON dynstat_uvel_sd              =   1.2053565912335E-02
(PID.TID 0000.0001) %MON dynstat_uvel_del2            =   5.3538511147424E-05
(PID.TID 0000.0001) %MON dynstat_vvel_max             =   1.7360278116995E-01
(PID.TID 0000.0001) %MON dynstat_vvel_min             =  -2.2479121405478E-01
(PID.TID 0000.0001) %MON dynstat_vvel_mean            =  -3.9897383202735E-04
(PID.TID 0000.0001) %MON dynstat_vvel_sd              =   1.2667903252336E-02
(PID.TID 0000.0001) %MON dynstat_vvel_del2            =   5.5286299964040E-05
(PID.TID 0000.0001) %MON dynstat_wvel_max             =   1.0323214948428E-04
(PID.TID 0000.0001) %MON dynstat_wvel_min             =  -1.1694397903295E-03
(PID.TID 0000.0001) %MON dynstat_wvel_mean            =  -8.4193119618149E-08
(PID.TID 0000.0001) %MON dynstat_wvel_sd              =   6.6504852889119E-06
(PID.TID 0000.0001) %MON dynstat_wvel_del2            =   9.6988366224943E-08
(PID.TID 0000.0001) %MON dynstat_theta_max            =   3.0925825222684E+01
(PID.TID 0000.0001) %MON dynstat_theta_min            =  -3.0176156883608E+00
(PID.TID 0000.0001) %MON dynstat_theta_mean           =   3.9089113828287E+00
(PID.TID 0000.0001) %MON dynstat_theta_sd             =   4.5705333392797E+00
(PID.TID 0000.0001) %MON dynstat_theta_del2           =   2.6561904046177E-03
(PID.TID 0000.0001) %MON dynstat_salt_max             =   4.1377560733472E+01
(PID.TID 0000.0001) %MON dynstat_salt_min             =   1.8518387420017E+01
(PID.TID 0000.0001) %MON dynstat_salt_mean            =   3.4772205991331E+01
(PID.TID 0000.0001) %MON dynstat_salt_sd              =   5.3091868836327E-01
(PID.TID 0000.0001) %MON dynstat_salt_del2            =   8.0230091927532E-04
(PID.TID 0000.0001) %MON dynstat_sst_max              =   3.0925825222684E+01
(PID.TID 0000.0001) %MON dynstat_sst_min              =  -1.8999766838827E+00
(PID.TID 0000.0001) %MON dynstat_sst_mean             =   1.8097676031497E+01
(PID.TID 0000.0001) %MON dynstat_sst_sd               =   9.8005997591495E+00
(PID.TID 0000.0001) %MON dynstat_sst_del2             =   1.5374306914473E-02
(PID.TID 0000.0001) %MON dynstat_sss_max              =   4.1377560733472E+01
(PID.TID 0000.0001) %MON dynstat_sss_min              =   1.8753229452124E+01
(PID.TID 0000.0001) %MON dynstat_sss_mean             =   3.4642560033522E+01
(PID.TID 0000.0001) %MON dynstat_sss_sd               =   1.4564941000343E+00
(PID.TID 0000.0001) %MON dynstat_sss_del2             =   8.0062331403559E-03
(PID.TID 0000.0001) %MON forcing_qnet_max             =   1.3352726562500E+04
(PID.TID 0000.0001) %MON forcing_qnet_min             =  -2.6830781250000E+04
(PID.TID 0000.0001) %MON forcing_qnet_mean            =  -3.8589635352777E+02
(PID.TID 0000.0001) %MON forcing_qnet_sd              =   2.0543438054630E+03
(PID.TID 0000.0001) %MON forcing_qnet_del2            =   5.3398734013244E+01
(PID.TID 0000.0001) %MON forcing_qsw_max              =   0.0000000000000E+00
(PID.TID 0000.0001) %MON forcing_qsw_min              =   0.0000000000000E+00
(PID.TID 0000.0001) %MON forcing_qsw_mean             =   0.0000000000000E+00
(PID.TID 0000.0001) %MON forcing_qsw_sd               =   0.0000000000000E+00
(PID.TID 0000.0001) %MON forcing_qsw_del2             =   0.0000000000000E+00
(PID.TID 0000.0001) %MON forcing_empmr_max            =   5.2783496677876E-02
(PID.TID 0000.0001) %MON forcing_empmr_min            =  -1.2103701829910E+00
(PID.TID 0000.0001) %MON forcing_empmr_mean           =  -8.6945909228821E-04
(PID.TID 0000.0001) %MON forcing_empmr_sd             =   2.0356489940643E-02
(PID.TID 0000.0001) %MON forcing_empmr_del2           =   7.8908160890142E-04
(PID.TID 0000.0001) %MON forcing_fu_max               =   5.1186009419184E-01
(PID.TID 0000.0001) %MON forcing_fu_min               =  -4.4117910165761E-01
(PID.TID 0000.0001) %MON forcing_fu_mean              =  -3.8651212768904E-03
(PID.TID 0000.0001) %MON forcing_fu_sd                =   6.8499635080254E-02
(PID.TID 0000.0001) %MON forcing_fu_del2              =   6.7731597154273E-04
(PID.TID 0000.0001) %MON forcing_fv_max               =   2.7291049847005E-01
(PID.TID 0000.0001) %MON forcing_fv_min               =  -4.5601609633007E-01
(PID.TID 0000.0001) %MON forcing_fv_mean              =  -1.4145467047841E-02
(PID.TID 0000.0001) %MON forcing_fv_sd                =   6.3939205734009E-02
(PID.TID 0000.0001) %MON forcing_fv_del2              =   5.4504829810837E-04
(PID.TID 0000.0001) %MON trAdv_CFL_u_max              =   2.3467018045916E-05
(PID.TID 0000.0001) %MON trAdv_CFL_v_max              =   2.3297342611124E-05
(PID.TID 0000.0001) %MON trAdv_CFL_w_max              =   5.4290142837342E-04
(PID.TID 0000.0001) %MON advcfl_uvel_max              =   2.3598940936494E-05
(PID.TID 0000.0001) %MON advcfl_vvel_max              =   2.1895545879287E-05
(PID.TID 0000.0001) %MON advcfl_wvel_max              =   1.1694397903295E-03
(PID.TID 0000.0001) %MON advcfl_W_hf_max              =   5.4290142837342E-04
(PID.TID 0000.0001) %MON pe_b_mean                    =   5.6630331047216E-04
(PID.TID 0000.0001) %MON ke_max                       =   4.0527045289279E-02
(PID.TID 0000.0001) %MON ke_mean                      =   1.4137586929682E-04
(PID.TID 0000.0001) %MON ke_vol                       =   1.3398055068866E+18
(PID.TID 0000.0001) %MON vort_r_min                   =  -1.1865867369703E-06
(PID.TID 0000.0001) %MON vort_r_max                   =   1.2191086954160E-06
(PID.TID 0000.0001) %MON vort_a_mean                  =  -2.0549865324846E-05
(PID.TID 0000.0001) %MON vort_a_sd                    =   7.5259517962840E-05
(PID.TID 0000.0001) %MON vort_p_mean                  =  -2.4783431584260E-05
(PID.TID 0000.0001) %MON vort_p_sd                    =   1.2811973183712E-04
(PID.TID 0000.0001) %MON surfExpan_theta_mean         =  -5.0803541329106E-06
(PID.TID 0000.0001) %MON surfExpan_salt_mean          =   6.3177006702453E-07
(PID.TID 0000.0001) // =======================================================
(PID.TID 0000.0001) // End MONITOR dynamic field statistics
(PID.TID 0000.0001) // =======================================================
 cg2d: Sum(rhs),rhsMax =  -3.99755488117044E+00  2.35894697413616E+05
(PID.TID 0000.0001)      cg2d_init_res =   3.77114822315221E-03
(PID.TID 0000.0001)      cg2d_iters(min,last) =      -1       1
(PID.TID 0000.0001)      cg2d_last_res =   2.13265849594299E-08
(PID.TID 0000.0001) // =======================================================
(PID.TID 0000.0001) // Begin MONITOR dynamic field statistics
(PID.TID 0000.0001) // =======================================================
(PID.TID 0000.0001) %MON time_tsnumber                =                 72023
(PID.TID 0000.0001) %MON time_secondsf                =   1.8005750000000E+06
(PID.TID 0000.0001) %MON dynstat_eta_max              =   8.9505159244415E+00
(PID.TID 0000.0001) %MON dynstat_eta_min              =  -1.7633879126305E+00
(PID.TID 0000.0001) %MON dynstat_eta_mean             =   8.4549060300838E-03
(PID.TID 0000.0001) %MON dynstat_eta_sd               =   6.5191804975297E-01
(PID.TID 0000.0001) %MON dynstat_eta_del2             =   8.6132333175010E-03
(PID.TID 0000.0001) %MON dynstat_uvel_max             =   2.3815874157167E-01
(PID.TID 0000.0001) %MON dynstat_uvel_min             =  -2.8754058403505E-01
(PID.TID 0000.0001) %MON dynstat_uvel_mean            =  -4.8104212897612E-04
(PID.TID 0000.0001) %MON dynstat_uvel_sd              =   1.2057036094546E-02
(PID.TID 0000.0001) %MON dynstat_uvel_del2            =   5.3780861716252E-05
(PID.TID 0000.0001) %MON dynstat_vvel_max             =   1.7360939923634E-01
(PID.TID 0000.0001) %MON dynstat_vvel_min             =  -2.2477334710574E-01
(PID.TID 0000.0001) %MON dynstat_vvel_mean            =  -3.9872359385682E-04
(PID.TID 0000.0001) %MON dynstat_vvel_sd              =   1.2671378586540E-02
(PID.TID 0000.0001) %MON dynstat_vvel_del2            =   5.5797277073590E-05
(PID.TID 0000.0001) %MON dynstat_wvel_max             =   1.0323607247752E-04
(PID.TID 0000.0001) %MON dynstat_wvel_min             =  -1.1652230064650E-03
(PID.TID 0000.0001) %MON dynstat_wvel_mean            =  -8.5253899683495E-08
(PID.TID 0000.0001) %MON dynstat_wvel_sd              =   6.6817043606366E-06
(PID.TID 0000.0001) %MON dynstat_wvel_del2            =   9.6868483727463E-08
(PID.TID 0000.0001) %MON dynstat_theta_max            =   3.0925819152321E+01
(PID.TID 0000.0001) %MON dynstat_theta_min            =  -3.0176188477453E+00
(PID.TID 0000.0001) %MON dynstat_theta_mean           =   3.9089120989085E+00
(PID.TID 0000.0001) %MON dynstat_theta_sd             =   4.5705350076558E+00
(PID.TID 0000.0001) %MON dynstat_theta_del2           =   2.6562082094681E-03
(PID.TID 0000.0001) %MON dynstat_salt_max             =   4.1377554329885E+01
(PID.TID 0000.0001) %MON dynstat_salt_min             =   1.8518387673567E+01
(PID.TID 0000.0001) %MON dynstat_salt_mean            =   3.4772205787566E+01
(PID.TID 0000.0001) %MON dynstat_salt_sd              =   5.3091886956121E-01
(PID.TID 0000.0001) %MON dynstat_salt_del2            =   8.0230917008172E-04
(PID.TID 0000.0001) %MON dynstat_sst_max              =   3.0925819152321E+01
(PID.TID 0000.0001) %MON dynstat_sst_min              =  -1.8999756186590E+00
(PID.TID 0000.0001) %MON dynstat_sst_mean             =   1.8097721462831E+01
(PID.TID 0000.0001) %MON dynstat_sst_sd               =   9.8005857921422E+00
(PID.TID 0000.0001) %MON dynstat_sst_del2             =   1.5374351704049E-02
(PID.TID 0000.0001) %MON dynstat_sss_max              =   4.1377554329885E+01
(PID.TID 0000.0001) %MON dynstat_sss_min              =   1.8753269763418E+01
(PID.TID 0000.0001) %MON dynstat_sss_mean             =   3.4642542720566E+01
(PID.TID 0000.0001) %MON dynstat_sss_sd               =   1.4565311143652E+00
(PID.TID 0000.0001) %MON dynstat_sss_del2             =   8.0062791010566E-03
(PID.TID 0000.0001) %MON forcing_qnet_max             =   1.3079817382812E+04
(PID.TID 0000.0001) %MON forcing_qnet_min             =  -2.5934175781250E+04
(PID.TID 0000.0001) %MON forcing_qnet_mean            =  -3.8453132301026E+02
(PID.TID 0000.0001) %MON forcing_qnet_sd              =   1.9953907824537E+03
(PID.TID 0000.0001) %MON forcing_qnet_del2            =   5.1846913900038E+01
(PID.TID 0000.0001) %MON forcing_qsw_max              =   0.0000000000000E+00
(PID.TID 0000.0001) %MON forcing_qsw_min              =   0.0000000000000E+00
(PID.TID 0000.0001) %MON forcing_qsw_mean             =   0.0000000000000E+00
(PID.TID 0000.0001) %MON forcing_qsw_sd               =   0.0000000000000E+00
(PID.TID 0000.0001) %MON forcing_qsw_del2             =   0.0000000000000E+00
(PID.TID 0000.0001) %MON forcing_empmr_max            =   5.2473362535238E-02
(PID.TID 0000.0001) %MON forcing_empmr_min            =  -1.2060058116913E+00
(PID.TID 0000.0001) %MON forcing_empmr_mean           =  -8.4899071431943E-04
(PID.TID 0000.0001) %MON forcing_empmr_sd             =   2.0237627894435E-02
(PID.TID 0000.0001) %MON forcing_empmr_del2           =   7.8493828295364E-04
(PID.TID 0000.0001) %MON forcing_fu_max               =   5.1186009419184E-01
(PID.TID 0000.0001) %MON forcing_fu_min               =  -4.4117910165761E-01
(PID.TID 0000.0001) %MON forcing_fu_mean              =  -3.8651212768904E-03
(PID.TID 0000.0001) %MON forcing_fu_sd                =   6.8499635080254E-02
(PID.TID 0000.0001) %MON forcing_fu_del2              =   6.7731597154273E-04
(PID.TID 0000.0001) %MON forcing_fv_max               =   2.7291049847005E-01
(PID.TID 0000.0001) %MON forcing_fv_min               =  -4.5601609633007E-01
(PID.TID 0000.0001) %MON forcing_fv_mean              =  -1.4145467047841E-02
(PID.TID 0000.0001) %MON forcing_fv_sd                =   6.3939205734009E-02
(PID.TID 0000.0001) %MON forcing_fv_del2              =   5.4504829810837E-04
(PID.TID 0000.0001) %MON trAdv_CFL_u_max              =   2.3465298548999E-05
(PID.TID 0000.0001) %MON trAdv_CFL_v_max              =   2.3609878719304E-05
(PID.TID 0000.0001) %MON trAdv_CFL_w_max              =   5.4087484525293E-04
(PID.TID 0000.0001) %MON advcfl_uvel_max              =   2.3597211776487E-05
(PID.TID 0000.0001) %MON advcfl_vvel_max              =   2.1896380578911E-05
(PID.TID 0000.0001) %MON advcfl_wvel_max              =   1.1652230064650E-03
(PID.TID 0000.0001) %MON advcfl_W_hf_max              =   5.4087484525293E-04
(PID.TID 0000.0001) %MON pe_b_mean                    =   5.6626866770287E-04
(PID.TID 0000.0001) %MON ke_max                       =   4.0519328268666E-02
(PID.TID 0000.0001) %MON ke_mean                      =   1.4145487461348E-04
(PID.TID 0000.0001) %MON ke_vol                       =   1.3398055145287E+18
(PID.TID 0000.0001) %MON vort_r_min                   =  -1.1866900065859E-06
(PID.TID 0000.0001) %MON vort_r_max                   =   1.2193034980013E-06
(PID.TID 0000.0001) %MON vort_a_mean                  =  -2.0549865324846E-05
(PID.TID 0000.0001) %MON vort_a_sd                    =   7.5259518013763E-05
(PID.TID 0000.0001) %MON vort_p_mean                  =  -2.4783431456870E-05
(PID.TID 0000.0001) %MON vort_p_sd                    =   1.2811972972406E-04
(PID.TID 0000.0001) %MON surfExpan_theta_mean         =  -5.1026861781698E-06
(PID.TID 0000.0001) %MON surfExpan_salt_mean          =   6.3257473594913E-07
(PID.TID 0000.0001) // =======================================================
(PID.TID 0000.0001) // End MONITOR dynamic field statistics
(PID.TID 0000.0001) // =======================================================
 cg2d: Sum(rhs),rhsMax =  -4.00764682985935E+00  2.35861404748679E+05
(PID.TID 0000.0001)      cg2d_init_res =   3.79345328761470E-03
(PID.TID 0000.0001)      cg2d_iters(min,last) =      -1       1
(PID.TID 0000.0001)      cg2d_last_res =   2.20453679009348E-08
(PID.TID 0000.0001) // =======================================================
(PID.TID 0000.0001) // Begin MONITOR dynamic field statistics
(PID.TID 0000.0001) // =======================================================
(PID.TID 0000.0001) %MON time_tsnumber                =                 72024
(PID.TID 0000.0001) %MON time_secondsf                =   1.8006000000000E+06
(PID.TID 0000.0001) %MON dynstat_eta_max              =   8.9488508097991E+00
(PID.TID 0000.0001) %MON dynstat_eta_min              =  -1.7623408959922E+00
(PID.TID 0000.0001) %MON dynstat_eta_mean             =   8.4750544134313E-03
(PID.TID 0000.0001) %MON dynstat_eta_sd               =   6.5189164630052E-01
(PID.TID 0000.0001) %MON dynstat_eta_del2             =   8.6083900416352E-03
(PID.TID 0000.0001) %MON dynstat_uvel_max             =   2.4527098264749E-01
(PID.TID 0000.0001) %MON dynstat_uvel_min             =  -2.8751951509738E-01
(PID.TID 0000.0001) %MON dynstat_uvel_mean            =  -4.8063488897132E-04
(PID.TID 0000.0001) %MON dynstat_uvel_sd              =   1.2060674740065E-02
(PID.TID 0000.0001) %MON dynstat_uvel_del2            =   5.4033791668451E-05
(PID.TID 0000.0001) %MON dynstat_vvel_max             =   1.7361604418480E-01
(PID.TID 0000.0001) %MON dynstat_vvel_min             =  -2.2475547385404E-01
(PID.TID 0000.0001) %MON dynstat_vvel_mean            =  -3.9847329984970E-04
(PID.TID 0000.0001) %MON dynstat_vvel_sd              =   1.2675028949139E-02
(PID.TID 0000.0001) %MON dynstat_vvel_del2            =   5.6329732433983E-05
(PID.TID 0000.0001) %MON dynstat_wvel_max             =   1.0324001775655E-04
(PID.TID 0000.0001) %MON dynstat_wvel_min             =  -1.1610063377786E-03
(PID.TID 0000.0001) %MON dynstat_wvel_mean            =  -8.6378763670777E-08
(PID.TID 0000.0001) %MON dynstat_wvel_sd              =   6.7158092496744E-06
(PID.TID 0000.0001) %MON dynstat_wvel_del2            =   9.6797190234411E-08
(PID.TID 0000.0001) %MON dynstat_theta_max            =   3.0925813082521E+01
(PID.TID 0000.0001) %MON dynstat_theta_min            =  -3.0176219062981E+00
(PID.TID 0000.0001) %MON dynstat_theta_mean           =   3.9089128109641E+00
(PID.TID 0000.0001) %MON dynstat_theta_sd             =   4.5705366840798E+00
(PID.TID 0000.0001) %MON dynstat_theta_del2           =   2.6562224616038E-03
(PID.TID 0000.0001) %MON dynstat_salt_max             =   4.1377548955312E+01
(PID.TID 0000.0001) %MON dynstat_salt_min             =   1.8518387928530E+01
(PID.TID 0000.0001) %MON dynstat_salt_mean            =   3.4772205579143E+01
(PID.TID 0000.0001) %MON dynstat_salt_sd              =   5.3091907789835E-01
(PID.TID 0000.0001) %MON dynstat_salt_del2            =   8.0231722572640E-04
(PID.TID 0000.0001) %MON dynstat_sst_max              =   3.0925813082521E+01
(PID.TID 0000.0001) %MON dynstat_sst_min              =  -1.8999745531730E+00
(PID.TID 0000.0001) %MON dynstat_sst_mean             =   1.8097767056094E+01
(PID.TID 0000.0001) %MON dynstat_sst_sd               =   9.8005720909228E+00
(PID.TID 0000.0001) %MON dynstat_sst_del2             =   1.5374338460741E-02
(PID.TID 0000.0001) %MON dynstat_sss_max              =   4.1377548955312E+01
(PID.TID 0000.0001) %MON dynstat_sss_min              =   1.8753297969612E+01
(PID.TID 0000.0001) %MON dynstat_sss_mean             =   3.4642525425306E+01
(PID.TID 0000.0001) %MON dynstat_sss_sd               =   1.4565647427381E+00
(PID.TID 0000.0001) %MON dynstat_sss_del2             =   8.0063304343093E-03
(PID.TID 0000.0001) %MON forcing_qnet_max             =   1.2806910156250E+04
(PID.TID 0000.0001) %MON forcing_qnet_min             =  -2.5047314453125E+04
(PID.TID 0000.0001) %MON forcing_qnet_mean            =  -3.8182017131255E+02
(PID.TID 0000.0001) %MON forcing_qnet_sd              =   1.9403260012258E+03
(PID.TID 0000.0001) %MON forcing_qnet_del2            =   5.0391836800953E+01
(PID.TID 0000.0001) %MON forcing_qsw_max              =   0.0000000000000E+00
(PID.TID 0000.0001) %MON forcing_qsw_min              =   0.0000000000000E+00
(PID.TID 0000.0001) %MON forcing_qsw_mean             =   0.0000000000000E+00
(PID.TID 0000.0001) %MON forcing_qsw_sd               =   0.0000000000000E+00
(PID.TID 0000.0001) %MON forcing_qsw_del2             =   0.0000000000000E+00
(PID.TID 0000.0001) %MON forcing_empmr_max            =   5.2167251706123E-02
(PID.TID 0000.0001) %MON forcing_empmr_min            =  -1.2016415596008E+00
(PID.TID 0000.0001) %MON forcing_empmr_mean           =  -8.3414307059713E-04
(PID.TID 0000.0001) %MON forcing_empmr_sd             =   2.0146337476810E-02
(PID.TID 0000.0001) %MON forcing_empmr_del2           =   7.8161168077820E-04
(PID.TID 0000.0001) %MON forcing_fu_max               =   5.1186009419184E-01
(PID.TID 0000.0001) %MON forcing_fu_min               =  -4.4117910165761E-01
(PID.TID 0000.0001) %MON forcing_fu_mean              =  -3.8651212768904E-03
(PID.TID 0000.0001) %MON forcing_fu_sd                =   6.8499635080254E-02
(PID.TID 0000.0001) %MON forcing_fu_del2              =   6.7731597154273E-04
(PID.TID 0000.0001) %MON forcing_fv_max               =   2.7291049847005E-01
(PID.TID 0000.0001) %MON forcing_fv_min               =  -4.5601609633007E-01
(PID.TID 0000.0001) %MON forcing_fv_mean              =  -1.4145467047841E-02
(PID.TID 0000.0001) %MON forcing_fv_sd                =   6.3939205734009E-02
(PID.TID 0000.0001) %MON forcing_fv_del2              =   5.4504829810837E-04
(PID.TID 0000.0001) %MON trAdv_CFL_u_max              =   2.3463579174700E-05
(PID.TID 0000.0001) %MON trAdv_CFL_v_max              =   2.4898070594575E-05
(PID.TID 0000.0001) %MON trAdv_CFL_w_max              =   5.3884638687398E-04
(PID.TID 0000.0001) %MON advcfl_uvel_max              =   2.3905408931980E-05
(PID.TID 0000.0001) %MON advcfl_vvel_max              =   2.1897218669022E-05
(PID.TID 0000.0001) %MON advcfl_wvel_max              =   1.1610063377786E-03
(PID.TID 0000.0001) %MON advcfl_W_hf_max              =   5.3884638687398E-04
(PID.TID 0000.0001) %MON pe_b_mean                    =   5.6622325851194E-04
(PID.TID 0000.0001) %MON ke_max                       =   4.0511612767420E-02
(PID.TID 0000.0001) %MON ke_mean                      =   1.4153782606485E-04
(PID.TID 0000.0001) %MON ke_vol                       =   1.3398055219909E+18
(PID.TID 0000.0001) %MON vort_r_min                   =  -1.1867936134217E-06
(PID.TID 0000.0001) %MON vort_r_max                   =   1.2194988150609E-06
(PID.TID 0000.0001) %MON vort_a_mean                  =  -2.0549865324846E-05
(PID.TID 0000.0001) %MON vort_a_sd                    =   7.5259518065401E-05
(PID.TID 0000.0001) %MON vort_p_mean                  =  -2.4783431331226E-05
(PID.TID 0000.0001) %MON vort_p_sd                    =   1.2811972767057E-04
(PID.TID 0000.0001) %MON surfExpan_theta_mean         =  -5.1221767579336E-06
(PID.TID 0000.0001) %MON surfExpan_salt_mean          =   6.3353048043624E-07
(PID.TID 0000.0001) // =======================================================
(PID.TID 0000.0001) // End MONITOR dynamic field statistics
(PID.TID 0000.0001) // =======================================================
 cg2d: Sum(rhs),rhsMax =  -4.01777709133006E+00  2.35818771008521E+05
(PID.TID 0000.0001)      cg2d_init_res =   3.81545855732139E-03
(PID.TID 0000.0001)      cg2d_iters(min,last) =      -1       1
(PID.TID 0000.0001)      cg2d_last_res =   2.27510150824594E-08
(PID.TID 0000.0001) // =======================================================
(PID.TID 0000.0001) // Begin MONITOR dynamic field statistics
(PID.TID 0000.0001) // =======================================================
(PID.TID 0000.0001) %MON time_tsnumber                =                 72025
(PID.TID 0000.0001) %MON time_secondsf                =   1.8006250000000E+06
(PID.TID 0000.0001) %MON dynstat_eta_max              =   8.9468055714362E+00
(PID.TID 0000.0001) %MON dynstat_eta_min              =  -1.7612337032404E+00
(PID.TID 0000.0001) %MON dynstat_eta_mean             =   8.4949412860794E-03
(PID.TID 0000.0001) %MON dynstat_eta_sd               =   6.5186029530514E-01
(PID.TID 0000.0001) %MON dynstat_eta_del2             =   8.6030489129188E-03
(PID.TID 0000.0001) %MON dynstat_uvel_max             =   2.5237410756259E-01
(PID.TID 0000.0001) %MON dynstat_uvel_min             =  -2.8749844770597E-01
(PID.TID 0000.0001) %MON dynstat_uvel_mean            =  -4.8022554847084E-04
(PID.TID 0000.0001) %MON dynstat_uvel_sd              =   1.2064480329730E-02
(PID.TID 0000.0001) %MON dynstat_uvel_del2            =   5.4297060147222E-05
(PID.TID 0000.0001) %MON dynstat_vvel_max             =   1.7362271611908E-01
(PID.TID 0000.0001) %MON dynstat_vvel_min             =  -2.2473759407926E-01
(PID.TID 0000.0001) %MON dynstat_vvel_mean            =  -3.9822288181514E-04
(PID.TID 0000.0001) %MON dynstat_vvel_sd              =   1.2678852323402E-02
(PID.TID 0000.0001) %MON dynstat_vvel_del2            =   5.6882861837414E-05
(PID.TID 0000.0001) %MON dynstat_wvel_max             =   1.0324398522146E-04
(PID.TID 0000.0001) %MON dynstat_wvel_min             =  -1.1568275626731E-03
(PID.TID 0000.0001) %MON dynstat_wvel_mean            =  -8.7583214257739E-08
(PID.TID 0000.0001) %MON dynstat_wvel_sd              =   6.7523078714805E-06
(PID.TID 0000.0001) %MON dynstat_wvel_del2            =   9.6756207435621E-08
(PID.TID 0000.0001) %MON dynstat_theta_max            =   3.0925807013282E+01
(PID.TID 0000.0001) %MON dynstat_theta_min            =  -3.0176248598788E+00
(PID.TID 0000.0001) %MON dynstat_theta_mean           =   3.9089135166018E+00
(PID.TID 0000.0001) %MON dynstat_theta_sd             =   4.5705383597937E+00
(PID.TID 0000.0001) %MON dynstat_theta_del2           =   2.6562333866879E-03
(PID.TID 0000.0001) %MON dynstat_salt_max             =   4.1377544312277E+01
(PID.TID 0000.0001) %MON dynstat_salt_min             =   1.8518388184710E+01
(PID.TID 0000.0001) %MON dynstat_salt_mean            =   3.4772205367410E+01
(PID.TID 0000.0001) %MON dynstat_salt_sd              =   5.3091930739888E-01
(PID.TID 0000.0001) %MON dynstat_salt_del2            =   8.0232509004982E-04
(PID.TID 0000.0001) %MON dynstat_sst_max              =   3.0925807013282E+01
(PID.TID 0000.0001) %MON dynstat_sst_min              =  -1.8999734874275E+00
(PID.TID 0000.0001) %MON dynstat_sst_mean             =   1.8097812570802E+01
(PID.TID 0000.0001) %MON dynstat_sst_sd               =   9.8005586735960E+00
(PID.TID 0000.0001) %MON dynstat_sst_del2             =   1.5374271211665E-02
(PID.TID 0000.0001) %MON dynstat_sss_max              =   4.1377544312277E+01
(PID.TID 0000.0001) %MON dynstat_sss_min              =   1.8753317756497E+01
(PID.TID 0000.0001) %MON dynstat_sss_mean             =   3.4642508206587E+01
(PID.TID 0000.0001) %MON dynstat_sss_sd               =   1.4565953274980E+00
(PID.TID 0000.0001) %MON dynstat_sss_del2             =   8.0063864595029E-03
(PID.TID 0000.0001) %MON forcing_qnet_max             =   1.2543749023438E+04
(PID.TID 0000.0001) %MON forcing_qnet_min             =  -2.4199431640625E+04
(PID.TID 0000.0001) %MON forcing_qnet_mean            =  -3.7773674202114E+02
(PID.TID 0000.0001) %MON forcing_qnet_sd              =   1.8890726541136E+03
(PID.TID 0000.0001) %MON forcing_qnet_del2            =   4.9047714785225E+01
(PID.TID 0000.0001) %MON forcing_qsw_max              =   0.0000000000000E+00
(PID.TID 0000.0001) %MON forcing_qsw_min              =   0.0000000000000E+00
(PID.TID 0000.0001) %MON forcing_qsw_mean             =   0.0000000000000E+00
(PID.TID 0000.0001) %MON forcing_qsw_sd               =   0.0000000000000E+00
(PID.TID 0000.0001) %MON forcing_qsw_del2             =   0.0000000000000E+00
(PID.TID 0000.0001) %MON forcing_empmr_max            =   5.1865171641111E-02
(PID.TID 0000.0001) %MON forcing_empmr_min            =  -1.1973165273666E+00
(PID.TID 0000.0001) %MON forcing_empmr_mean           =  -8.2331652762775E-04
(PID.TID 0000.0001) %MON forcing_empmr_sd             =   2.0069511684739E-02
(PID.TID 0000.0001) %MON forcing_empmr_del2           =   7.7873252071399E-04
(PID.TID 0000.0001) %MON forcing_fu_max               =   5.1186009419184E-01
(PID.TID 0000.0001) %MON forcing_fu_min               =  -4.4117910165761E-01
(PID.TID 0000.0001) %MON forcing_fu_mean              =  -3.8651212768904E-03
(PID.TID 0000.0001) %MON forcing_fu_sd                =   6.8499635080254E-02
(PID.TID 0000.0001) %MON forcing_fu_del2              =   6.7731597154273E-04
(PID.TID 0000.0001) %MON forcing_fv_max               =   2.7291049847005E-01
(PID.TID 0000.0001) %MON forcing_fv_min               =  -4.5601609633007E-01
(PID.TID 0000.0001) %MON forcing_fv_mean              =  -1.4145467047841E-02
(PID.TID 0000.0001) %MON forcing_fv_sd                =   6.3939205734009E-02
(PID.TID 0000.0001) %MON forcing_fv_del2              =   5.4504829810837E-04
(PID.TID 0000.0001) %MON trAdv_CFL_u_max              =   2.3461859926460E-05
(PID.TID 0000.0001) %MON trAdv_CFL_v_max              =   2.6183962482541E-05
(PID.TID 0000.0001) %MON trAdv_CFL_w_max              =   5.3683354928859E-04
(PID.TID 0000.0001) %MON advcfl_uvel_max              =   2.4597717104588E-05
(PID.TID 0000.0001) %MON advcfl_vvel_max              =   2.1898060162701E-05
(PID.TID 0000.0001) %MON advcfl_wvel_max              =   1.1568275626731E-03
(PID.TID 0000.0001) %MON advcfl_W_hf_max              =   5.3683354928859E-04
(PID.TID 0000.0001) %MON pe_b_mean                    =   5.6616925350742E-04
(PID.TID 0000.0001) %MON ke_max                       =   4.0503898791451E-02
(PID.TID 0000.0001) %MON ke_mean                      =   1.4162468650458E-04
(PID.TID 0000.0001) %MON ke_vol                       =   1.3398055293227E+18
(PID.TID 0000.0001) %MON vort_r_min                   =  -1.1868975514475E-06
(PID.TID 0000.0001) %MON vort_r_max                   =   1.2196946479134E-06
(PID.TID 0000.0001) %MON vort_a_mean                  =  -2.0549865324846E-05
(PID.TID 0000.0001) %MON vort_a_sd                    =   7.5259518117766E-05
(PID.TID 0000.0001) %MON vort_p_mean                  =  -2.4783431206731E-05
(PID.TID 0000.0001) %MON vort_p_sd                    =   1.2811972566083E-04
(PID.TID 0000.0001) %MON surfExpan_theta_mean         =  -5.1400237795206E-06
(PID.TID 0000.0001) %MON surfExpan_salt_mean          =   6.3461506490827E-07
(PID.TID 0000.0001) // =======================================================
(PID.TID 0000.0001) // End MONITOR dynamic field statistics
(PID.TID 0000.0001) // =======================================================
 cg2d: Sum(rhs),rhsMax =  -4.02794514463814E+00  2.35768786119050E+05
(PID.TID 0000.0001)      cg2d_init_res =   3.83689878712804E-03
(PID.TID 0000.0001)      cg2d_iters(min,last) =      -1       1
(PID.TID 0000.0001)      cg2d_last_res =   2.34431568434285E-08
(PID.TID 0000.0001) // =======================================================
(PID.TID 0000.0001) // Begin MONITOR dynamic field statistics
(PID.TID 0000.0001) // =======================================================
(PID.TID 0000.0001) %MON time_tsnumber                =                 72026
(PID.TID 0000.0001) %MON time_secondsf                =   1.8006500000000E+06
(PID.TID 0000.0001) %MON dynstat_eta_max              =   8.9444574491276E+00
(PID.TID 0000.0001) %MON dynstat_eta_min              =  -1.7600699012087E+00
(PID.TID 0000.0001) %MON dynstat_eta_mean             =   8.5146348224719E-03
(PID.TID 0000.0001) %MON dynstat_eta_sd               =   6.5182488263725E-01
(PID.TID 0000.0001) %MON dynstat_eta_del2             =   8.5972853016028E-03
(PID.TID 0000.0001) %MON dynstat_uvel_max             =   2.5946774178038E-01
(PID.TID 0000.0001) %MON dynstat_uvel_min             =  -2.8747738189715E-01
(PID.TID 0000.0001) %MON dynstat_uvel_mean            =  -4.7981402067047E-04
(PID.TID 0000.0001) %MON dynstat_uvel_sd              =   1.2068451308661E-02
(PID.TID 0000.0001) %MON dynstat_uvel_del2            =   5.4570424209341E-05
(PID.TID 0000.0001) %MON dynstat_vvel_max             =   1.7878748826506E-01
(PID.TID 0000.0001) %MON dynstat_vvel_min             =  -2.2471970757750E-01
(PID.TID 0000.0001) %MON dynstat_vvel_mean            =  -3.9797227185768E-04
(PID.TID 0000.0001) %MON dynstat_vvel_sd              =   1.2682846664058E-02
(PID.TID 0000.0001) %MON dynstat_vvel_del2            =   5.7455866976920E-05
(PID.TID 0000.0001) %MON dynstat_wvel_max             =   1.0324797476025E-04
(PID.TID 0000.0001) %MON dynstat_wvel_min             =  -1.1526867963266E-03
(PID.TID 0000.0001) %MON dynstat_wvel_mean            =  -8.8834305635675E-08
(PID.TID 0000.0001) %MON dynstat_wvel_sd              =   6.7908674714024E-06
(PID.TID 0000.0001) %MON dynstat_wvel_del2            =   9.6735194626113E-08
(PID.TID 0000.0001) %MON dynstat_theta_max            =   3.0925800944602E+01
(PID.TID 0000.0001) %MON dynstat_theta_min            =  -3.0176277043873E+00
(PID.TID 0000.0001) %MON dynstat_theta_mean           =   3.9089142151445E+00
(PID.TID 0000.0001) %MON dynstat_theta_sd             =   4.5705400322878E+00
(PID.TID 0000.0001) %MON dynstat_theta_del2           =   2.6562412397237E-03
(PID.TID 0000.0001) %MON dynstat_salt_max             =   4.1377540194408E+01
(PID.TID 0000.0001) %MON dynstat_salt_min             =   1.8518388441941E+01
(PID.TID 0000.0001) %MON dynstat_salt_mean            =   3.4772205153371E+01
(PID.TID 0000.0001) %MON dynstat_salt_sd              =   5.3091955341998E-01
(PID.TID 0000.0001) %MON dynstat_salt_del2            =   8.0233279409466E-04
(PID.TID 0000.0001) %MON dynstat_sst_max              =   3.0925800944602E+01
(PID.TID 0000.0001) %MON dynstat_sst_min              =  -1.8999724214231E+00
(PID.TID 0000.0001) %MON dynstat_sst_mean             =   1.8097857899700E+01
(PID.TID 0000.0001) %MON dynstat_sst_sd               =   9.8005455815103E+00
(PID.TID 0000.0001) %MON dynstat_sst_del2             =   1.5374154495556E-02
(PID.TID 0000.0001) %MON dynstat_sss_max              =   4.1377540194408E+01
(PID.TID 0000.0001) %MON dynstat_sss_min              =   1.8753331607165E+01
(PID.TID 0000.0001) %MON dynstat_sss_mean             =   3.4642491101270E+01
(PID.TID 0000.0001) %MON dynstat_sss_sd               =   1.4566231856397E+00
(PID.TID 0000.0001) %MON dynstat_sss_del2             =   8.0064469542498E-03
(PID.TID 0000.0001) %MON forcing_qnet_max             =   1.2290333984375E+04
(PID.TID 0000.0001) %MON forcing_qnet_min             =  -2.3380787109375E+04
(PID.TID 0000.0001) %MON forcing_qnet_mean            =  -3.7330196049011E+02
(PID.TID 0000.0001) %MON forcing_qnet_sd              =   1.8408187043531E+03
(PID.TID 0000.0001) %MON forcing_qnet_del2            =   4.7796259588983E+01
(PID.TID 0000.0001) %MON forcing_qsw_max              =   0.0000000000000E+00
(PID.TID 0000.0001) %MON forcing_qsw_min              =   0.0000000000000E+00
(PID.TID 0000.0001) %MON forcing_qsw_mean             =   0.0000000000000E+00
(PID.TID 0000.0001) %MON forcing_qsw_sd               =   0.0000000000000E+00
(PID.TID 0000.0001) %MON forcing_qsw_del2             =   0.0000000000000E+00
(PID.TID 0000.0001) %MON forcing_empmr_max            =   5.1563091576099E-02
(PID.TID 0000.0001) %MON forcing_empmr_min            =  -1.1930308341980E+00
(PID.TID 0000.0001) %MON forcing_empmr_mean           =  -8.1531240664990E-04
(PID.TID 0000.0001) %MON forcing_empmr_sd             =   2.0000116530001E-02
(PID.TID 0000.0001) %MON forcing_empmr_del2           =   7.7609186990233E-04
(PID.TID 0000.0001) %MON forcing_fu_max               =   5.1186009419184E-01
(PID.TID 0000.0001) %MON forcing_fu_min               =  -4.4117910165761E-01
(PID.TID 0000.0001) %MON forcing_fu_mean              =  -3.8651212768904E-03
(PID.TID 0000.0001) %MON forcing_fu_sd                =   6.8499635080254E-02
(PID.TID 0000.0001) %MON forcing_fu_del2              =   6.7731597154273E-04
(PID.TID 0000.0001) %MON forcing_fv_max               =   2.7291049847005E-01
(PID.TID 0000.0001) %MON forcing_fv_min               =  -4.5601609633007E-01
(PID.TID 0000.0001) %MON forcing_fv_mean              =  -1.4145467047841E-02
(PID.TID 0000.0001) %MON forcing_fv_sd                =   6.3939205734009E-02
(PID.TID 0000.0001) %MON forcing_fv_del2              =   5.4504829810837E-04
(PID.TID 0000.0001) %MON trAdv_CFL_u_max              =   2.3806511710836E-05
(PID.TID 0000.0001) %MON trAdv_CFL_v_max              =   2.7467481276405E-05
(PID.TID 0000.0001) %MON trAdv_CFL_w_max              =   5.3483639785275E-04
(PID.TID 0000.0001) %MON advcfl_uvel_max              =   2.5289100263573E-05
(PID.TID 0000.0001) %MON advcfl_vvel_max              =   2.1898905064048E-05
(PID.TID 0000.0001) %MON advcfl_wvel_max              =   1.1526867963266E-03
(PID.TID 0000.0001) %MON advcfl_W_hf_max              =   5.3483639785275E-04
(PID.TID 0000.0001) %MON pe_b_mean                    =   5.6610819390798E-04
(PID.TID 0000.0001) %MON ke_max                       =   4.0496186347191E-02
(PID.TID 0000.0001) %MON ke_mean                      =   1.4171541816617E-04
(PID.TID 0000.0001) %MON ke_vol                       =   1.3398055365592E+18
(PID.TID 0000.0001) %MON vort_r_min                   =  -1.1870018151789E-06
(PID.TID 0000.0001) %MON vort_r_max                   =   1.2198909978514E-06
(PID.TID 0000.0001) %MON vort_a_mean                  =  -2.0549865324846E-05
(PID.TID 0000.0001) %MON vort_a_sd                    =   7.5259518170866E-05
(PID.TID 0000.0001) %MON vort_p_mean                  =  -2.4783431082950E-05
(PID.TID 0000.0001) %MON vort_p_sd                    =   1.2811972368351E-04
(PID.TID 0000.0001) %MON surfExpan_theta_mean         =  -5.1566955097279E-06
(PID.TID 0000.0001) %MON surfExpan_salt_mean          =   6.3584258986431E-07
(PID.TID 0000.0001) // =======================================================
(PID.TID 0000.0001) // End MONITOR dynamic field statistics
(PID.TID 0000.0001) // =======================================================
 cg2d: Sum(rhs),rhsMax =  -4.03815028717999E+00  2.35712855066500E+05
(PID.TID 0000.0001)      cg2d_init_res =   3.85764803940480E-03
(PID.TID 0000.0001)      cg2d_iters(min,last) =      -1       1
(PID.TID 0000.0001)      cg2d_last_res =   2.41211933996640E-08
(PID.TID 0000.0001) // =======================================================
(PID.TID 0000.0001) // Begin MONITOR dynamic field statistics
(PID.TID 0000.0001) // =======================================================
(PID.TID 0000.0001) %MON time_tsnumber                =                 72027
(PID.TID 0000.0001) %MON time_secondsf                =   1.8006750000000E+06
(PID.TID 0000.0001) %MON dynstat_eta_max              =   8.9418610999275E+00
(PID.TID 0000.0001) %MON dynstat_eta_min              =  -1.7588523753211E+00
(PID.TID 0000.0001) %MON dynstat_eta_mean             =   8.5341823451125E-03
(PID.TID 0000.0001) %MON dynstat_eta_sd               =   6.5178603852183E-01
(PID.TID 0000.0001) %MON dynstat_eta_del2             =   8.5911532983521E-03
(PID.TID 0000.0001) %MON dynstat_uvel_max             =   2.6655155554873E-01
(PID.TID 0000.0001) %MON dynstat_uvel_min             =  -2.8745631770810E-01
(PID.TID 0000.0001) %MON dynstat_uvel_mean            =  -4.7940021816620E-04
(PID.TID 0000.0001) %MON dynstat_uvel_sd              =   1.2072586085649E-02
(PID.TID 0000.0001) %MON dynstat_uvel_del2            =   5.4853639236157E-05
(PID.TID 0000.0001) %MON dynstat_vvel_max             =   1.8480980330855E-01
(PID.TID 0000.0001) %MON dynstat_vvel_min             =  -2.2470181415228E-01
(PID.TID 0000.0001) %MON dynstat_vvel_mean            =  -3.9772140296398E-04
(PID.TID 0000.0001) %MON dynstat_vvel_sd              =   1.2687009894826E-02
(PID.TID 0000.0001) %MON dynstat_vvel_del2            =   5.8047957682057E-05
(PID.TID 0000.0001) %MON dynstat_wvel_max             =   1.0325198627163E-04
(PID.TID 0000.0001) %MON dynstat_wvel_min             =  -1.1485080212211E-03
(PID.TID 0000.0001) %MON dynstat_wvel_mean            =  -9.0128929448221E-08
(PID.TID 0000.0001) %MON dynstat_wvel_sd              =   6.8310510462127E-06
(PID.TID 0000.0001) %MON dynstat_wvel_del2            =   9.6721834998290E-08
(PID.TID 0000.0001) %MON dynstat_theta_max            =   3.0925794876482E+01
(PID.TID 0000.0001) %MON dynstat_theta_min            =  -3.0176304357628E+00
(PID.TID 0000.0001) %MON dynstat_theta_mean           =   3.9089149058855E+00
(PID.TID 0000.0001) %MON dynstat_theta_sd             =   4.5705416984110E+00
(PID.TID 0000.0001) %MON dynstat_theta_del2           =   2.6562462802210E-03
(PID.TID 0000.0001) %MON dynstat_salt_max             =   4.1377536349481E+01
(PID.TID 0000.0001) %MON dynstat_salt_min             =   1.8518388700088E+01
(PID.TID 0000.0001) %MON dynstat_salt_mean            =   3.4772204937675E+01
(PID.TID 0000.0001) %MON dynstat_salt_sd              =   5.3091981257709E-01
(PID.TID 0000.0001) %MON dynstat_salt_del2            =   8.0234038149705E-04
(PID.TID 0000.0001) %MON dynstat_sst_max              =   3.0925794876482E+01
(PID.TID 0000.0001) %MON dynstat_sst_min              =  -1.8999713551609E+00
(PID.TID 0000.0001) %MON dynstat_sst_mean             =   1.8097902939673E+01
(PID.TID 0000.0001) %MON dynstat_sst_sd               =   9.8005328300106E+00
(PID.TID 0000.0001) %MON dynstat_sst_del2             =   1.5373992846873E-02
(PID.TID 0000.0001) %MON dynstat_sss_max              =   4.1377536349481E+01
(PID.TID 0000.0001) %MON dynstat_sss_min              =   1.8753341306337E+01
(PID.TID 0000.0001) %MON dynstat_sss_mean             =   3.4642474123399E+01
(PID.TID 0000.0001) %MON dynstat_sss_sd               =   1.4566486133775E+00
(PID.TID 0000.0001) %MON dynstat_sss_del2             =   8.0065119301257E-03
(PID.TID 0000.0001) %MON forcing_qnet_max             =   1.2036920898438E+04
(PID.TID 0000.0001) %MON forcing_qnet_min             =  -2.2785603515625E+04
(PID.TID 0000.0001) %MON forcing_qnet_mean            =  -3.6848030393567E+02
(PID.TID 0000.0001) %MON forcing_qnet_sd              =   1.7955612167712E+03
(PID.TID 0000.0001) %MON forcing_qnet_del2            =   4.6627600693990E+01
(PID.TID 0000.0001) %MON forcing_qsw_max              =   0.0000000000000E+00
(PID.TID 0000.0001) %MON forcing_qsw_min              =   0.0000000000000E+00
(PID.TID 0000.0001) %MON forcing_qsw_mean             =   0.0000000000000E+00
(PID.TID 0000.0001) %MON forcing_qsw_sd               =   0.0000000000000E+00
(PID.TID 0000.0001) %MON forcing_qsw_del2             =   0.0000000000000E+00
(PID.TID 0000.0001) %MON forcing_empmr_max            =   5.1261015236378E-02
(PID.TID 0000.0001) %MON forcing_empmr_min            =  -1.1887058019638E+00
(PID.TID 0000.0001) %MON forcing_empmr_mean           =  -8.0926743732181E-04
(PID.TID 0000.0001) %MON forcing_empmr_sd             =   1.9933355256445E-02
(PID.TID 0000.0001) %MON forcing_empmr_del2           =   7.7352775497550E-04
(PID.TID 0000.0001) %MON forcing_fu_max               =   5.1186009419184E-01
(PID.TID 0000.0001) %MON forcing_fu_min               =  -4.4117910165761E-01
(PID.TID 0000.0001) %MON forcing_fu_mean              =  -3.8651212768904E-03
(PID.TID 0000.0001) %MON forcing_fu_sd                =   6.8499635080254E-02
(PID.TID 0000.0001) %MON forcing_fu_del2              =   6.7731597154273E-04
(PID.TID 0000.0001) %MON forcing_fv_max               =   2.7291049847005E-01
(PID.TID 0000.0001) %MON forcing_fv_min               =  -4.5601609633007E-01
(PID.TID 0000.0001) %MON forcing_fv_mean              =  -1.4145467047841E-02
(PID.TID 0000.0001) %MON forcing_fv_sd                =   6.3939205734009E-02
(PID.TID 0000.0001) %MON forcing_fv_del2              =   5.4504829810837E-04
(PID.TID 0000.0001) %MON trAdv_CFL_u_max              =   2.4457149938605E-05
(PID.TID 0000.0001) %MON trAdv_CFL_v_max              =   2.8748563935943E-05
(PID.TID 0000.0001) %MON trAdv_CFL_w_max              =   5.3281977221776E-04
(PID.TID 0000.0001) %MON advcfl_uvel_max              =   2.5979526269545E-05
(PID.TID 0000.0001) %MON advcfl_vvel_max              =   2.1899753384647E-05
(PID.TID 0000.0001) %MON advcfl_wvel_max              =   1.1485080212211E-03
(PID.TID 0000.0001) %MON advcfl_W_hf_max              =   5.3281977221776E-04
(PID.TID 0000.0001) %MON pe_b_mean                    =   5.6604117634351E-04
(PID.TID 0000.0001) %MON ke_max                       =   4.0488475440370E-02
(PID.TID 0000.0001) %MON ke_mean                      =   1.4180998262087E-04
(PID.TID 0000.0001) %MON ke_vol                       =   1.3398055437254E+18
(PID.TID 0000.0001) %MON vort_r_min                   =  -1.1871063990109E-06
(PID.TID 0000.0001) %MON vort_r_max                   =   1.2200878661550E-06
(PID.TID 0000.0001) %MON vort_a_mean                  =  -2.0549865324846E-05
(PID.TID 0000.0001) %MON vort_a_sd                    =   7.5259518224712E-05
(PID.TID 0000.0001) %MON vort_p_mean                  =  -2.4783430959587E-05
(PID.TID 0000.0001) %MON vort_p_sd                    =   1.2811972173065E-04
(PID.TID 0000.0001) %MON surfExpan_theta_mean         =  -5.1726385624891E-06
(PID.TID 0000.0001) %MON surfExpan_salt_mean          =   6.3708201990511E-07
(PID.TID 0000.0001) // =======================================================
(PID.TID 0000.0001) // End MONITOR dynamic field statistics
(PID.TID 0000.0001) // =======================================================
 cg2d: Sum(rhs),rhsMax =  -4.04839265342932E+00  2.35651973232080E+05
(PID.TID 0000.0001)      cg2d_init_res =   3.87811817371982E-03
(PID.TID 0000.0001)      cg2d_iters(min,last) =      -1       1
(PID.TID 0000.0001)      cg2d_last_res =   2.47851482469777E-08
(PID.TID 0000.0001) // =======================================================
(PID.TID 0000.0001) // Begin MONITOR dynamic field statistics
(PID.TID 0000.0001) // =======================================================
(PID.TID 0000.0001) %MON time_tsnumber                =                 72028
(PID.TID 0000.0001) %MON time_secondsf                =   1.8007000000000E+06
(PID.TID 0000.0001) %MON dynstat_eta_max              =   8.9390549423464E+00
(PID.TID 0000.0001) %MON dynstat_eta_min              =  -1.7575828686737E+00
(PID.TID 0000.0001) %MON dynstat_eta_mean             =   8.5536185801466E-03
(PID.TID 0000.0001) %MON dynstat_eta_sd               =   6.5174421120153E-01
(PID.TID 0000.0001) %MON dynstat_eta_del2             =   8.5846919304814E-03
(PID.TID 0000.0001) %MON dynstat_uvel_max             =   2.7362525060272E-01
(PID.TID 0000.0001) %MON dynstat_uvel_min             =  -2.8743525517458E-01
(PID.TID 0000.0001) %MON dynstat_uvel_mean            =  -4.7898405344810E-04
(PID.TID 0000.0001) %MON dynstat_uvel_sd              =   1.2076883032977E-02
(PID.TID 0000.0001) %MON dynstat_uvel_del2            =   5.5146459343515E-05
(PID.TID 0000.0001) %MON dynstat_vvel_max             =   1.9261023834378E-01
(PID.TID 0000.0001) %MON dynstat_vvel_min             =  -2.2468391363642E-01
(PID.TID 0000.0001) %MON dynstat_vvel_mean            =  -3.9747020982388E-04
(PID.TID 0000.0001) %MON dynstat_vvel_sd              =   1.2691339907664E-02
(PID.TID 0000.0001) %MON dynstat_vvel_del2            =   5.8658353920581E-05
(PID.TID 0000.0001) %MON dynstat_wvel_max             =   1.0325601965140E-04
(PID.TID 0000.0001) %MON dynstat_wvel_min             =  -1.1443672548746E-03
(PID.TID 0000.0001) %MON dynstat_wvel_mean            =  -9.1467683391027E-08
(PID.TID 0000.0001) %MON dynstat_wvel_sd              =   6.8729610988162E-06
(PID.TID 0000.0001) %MON dynstat_wvel_del2            =   9.6719915214136E-08
(PID.TID 0000.0001) %MON dynstat_theta_max            =   3.0925788808920E+01
(PID.TID 0000.0001) %MON dynstat_theta_min            =  -3.0176330499848E+00
(PID.TID 0000.0001) %MON dynstat_theta_mean           =   3.9089155883047E+00
(PID.TID 0000.0001) %MON dynstat_theta_sd             =   4.5705433563277E+00
(PID.TID 0000.0001) %MON dynstat_theta_del2           =   2.6562487433243E-03
(PID.TID 0000.0001) %MON dynstat_salt_max             =   4.1377532573860E+01
(PID.TID 0000.0001) %MON dynstat_salt_min             =   1.8518388959033E+01
(PID.TID 0000.0001) %MON dynstat_salt_mean            =   3.4772204720820E+01
(PID.TID 0000.0001) %MON dynstat_salt_sd              =   5.3092008251137E-01
(PID.TID 0000.0001) %MON dynstat_salt_del2            =   8.0234788663844E-04
(PID.TID 0000.0001) %MON dynstat_sst_max              =   3.0925788808920E+01
(PID.TID 0000.0001) %MON dynstat_sst_min              =  -1.8999702886422E+00
(PID.TID 0000.0001) %MON dynstat_sst_mean             =   1.8097947607969E+01
(PID.TID 0000.0001) %MON dynstat_sst_sd               =   9.8005204533640E+00
(PID.TID 0000.0001) %MON dynstat_sst_del2             =   1.5373790132393E-02
(PID.TID 0000.0001) %MON dynstat_sss_max              =   4.1377532573860E+01
(PID.TID 0000.0001) %MON dynstat_sss_min              =   1.8753348056761E+01
(PID.TID 0000.0001) %MON dynstat_sss_mean             =   3.4642457279449E+01
(PID.TID 0000.0001) %MON dynstat_sss_sd               =   1.4566718873313E+00
(PID.TID 0000.0001) %MON dynstat_sss_del2             =   8.0065812985301E-03
(PID.TID 0000.0001) %MON forcing_qnet_max             =   1.1783507812500E+04
(PID.TID 0000.0001) %MON forcing_qnet_min             =  -2.2269105468750E+04
(PID.TID 0000.0001) %MON forcing_qnet_mean            =  -3.6337453886381E+02
(PID.TID 0000.0001) %MON forcing_qnet_sd              =   1.7525320557980E+03
(PID.TID 0000.0001) %MON forcing_qnet_del2            =   4.5530933287925E+01
(PID.TID 0000.0001) %MON forcing_qsw_max              =   0.0000000000000E+00
(PID.TID 0000.0001) %MON forcing_qsw_min              =   0.0000000000000E+00
(PID.TID 0000.0001) %MON forcing_qsw_mean             =   0.0000000000000E+00
(PID.TID 0000.0001) %MON forcing_qsw_sd               =   0.0000000000000E+00
(PID.TID 0000.0001) %MON forcing_qsw_del2             =   0.0000000000000E+00
(PID.TID 0000.0001) %MON forcing_empmr_max            =   5.0962958484888E-02
(PID.TID 0000.0001) %MON forcing_empmr_min            =  -1.1844201087952E+00
(PID.TID 0000.0001) %MON forcing_empmr_mean           =  -8.0466013043092E-04
(PID.TID 0000.0001) %MON forcing_empmr_sd             =   1.9868805332629E-02
(PID.TID 0000.0001) %MON forcing_empmr_del2           =   7.7104110388243E-04
(PID.TID 0000.0001) %MON forcing_fu_max               =   5.1186009419184E-01
(PID.TID 0000.0001) %MON forcing_fu_min               =  -4.4117910165761E-01
(PID.TID 0000.0001) %MON forcing_fu_mean              =  -3.8651212768904E-03
(PID.TID 0000.0001) %MON forcing_fu_sd                =   6.8499635080254E-02
(PID.TID 0000.0001) %MON forcing_fu_del2              =   6.7731597154273E-04
(PID.TID 0000.0001) %MON forcing_fv_max               =   2.7291049847005E-01
(PID.TID 0000.0001) %MON forcing_fv_min               =  -4.5601609633007E-01
(PID.TID 0000.0001) %MON forcing_fv_mean              =  -1.4145467047841E-02
(PID.TID 0000.0001) %MON forcing_fv_sd                =   6.3939205734009E-02
(PID.TID 0000.0001) %MON forcing_fv_del2              =   5.4504829810837E-04
(PID.TID 0000.0001) %MON trAdv_CFL_u_max              =   2.5106941828951E-05
(PID.TID 0000.0001) %MON trAdv_CFL_v_max              =   3.0027154561343E-05
(PID.TID 0000.0001) %MON trAdv_CFL_w_max              =   5.3081886189015E-04
(PID.TID 0000.0001) %MON advcfl_uvel_max              =   2.6668966052028E-05
(PID.TID 0000.0001) %MON advcfl_vvel_max              =   2.1900605126901E-05
(PID.TID 0000.0001) %MON advcfl_wvel_max              =   1.1443672548746E-03
(PID.TID 0000.0001) %MON advcfl_W_hf_max              =   5.3081886189015E-04
(PID.TID 0000.0001) %MON pe_b_mean                    =   5.6596898100648E-04
(PID.TID 0000.0001) %MON ke_max                       =   4.0480766077415E-02
(PID.TID 0000.0001) %MON ke_mean                      =   1.4190834076022E-04
(PID.TID 0000.0001) %MON ke_vol                       =   1.3398055508385E+18
(PID.TID 0000.0001) %MON vort_r_min                   =  -1.1872112971839E-06
(PID.TID 0000.0001) %MON vort_r_max                   =   1.2202852541622E-06
(PID.TID 0000.0001) %MON vort_a_mean                  =  -2.0549865324846E-05
(PID.TID 0000.0001) %MON vort_a_sd                    =   7.5259518279311E-05
(PID.TID 0000.0001) %MON vort_p_mean                  =  -2.4783430836431E-05
(PID.TID 0000.0001) %MON vort_p_sd                    =   1.2811971979674E-04
(PID.TID 0000.0001) %MON surfExpan_theta_mean         =  -5.1880497369610E-06
(PID.TID 0000.0001) %MON surfExpan_salt_mean          =   6.3839940570207E-07
(PID.TID 0000.0001) // =======================================================
(PID.TID 0000.0001) // End MONITOR dynamic field statistics
(PID.TID 0000.0001) // =======================================================
 cg2d: Sum(rhs),rhsMax =  -4.05867263197183E+00  2.35586839450876E+05
(PID.TID 0000.0001)      cg2d_init_res =   3.89856463423010E-03
(PID.TID 0000.0001)      cg2d_iters(min,last) =      -1       1
(PID.TID 0000.0001)      cg2d_last_res =   2.54348606494987E-08
(PID.TID 0000.0001) // =======================================================
(PID.TID 0000.0001) // Begin MONITOR dynamic field statistics
(PID.TID 0000.0001) // =======================================================
(PID.TID 0000.0001) %MON time_tsnumber                =                 72029
(PID.TID 0000.0001) %MON time_secondsf                =   1.8007250000000E+06
(PID.TID 0000.0001) %MON dynstat_eta_max              =   8.9360663586476E+00
(PID.TID 0000.0001) %MON dynstat_eta_min              =  -1.7562627879265E+00
(PID.TID 0000.0001) %MON dynstat_eta_mean             =   8.5729683539811E-03
(PID.TID 0000.0001) %MON dynstat_eta_sd               =   6.5169972429153E-01
(PID.TID 0000.0001) %MON dynstat_eta_del2             =   8.5779295399812E-03
(PID.TID 0000.0001) %MON dynstat_uvel_max             =   2.8068855108024E-01
(PID.TID 0000.0001) %MON dynstat_uvel_min             =  -2.8741419432866E-01
(PID.TID 0000.0001) %MON dynstat_uvel_mean            =  -4.7856543973918E-04
(PID.TID 0000.0001) %MON dynstat_uvel_sd              =   1.2081340486674E-02
(PID.TID 0000.0001) %MON dynstat_uvel_del2            =   5.5448637825307E-05
(PID.TID 0000.0001) %MON dynstat_vvel_max             =   2.0039763127220E-01
(PID.TID 0000.0001) %MON dynstat_vvel_min             =  -2.2466600586583E-01
(PID.TID 0000.0001) %MON dynstat_vvel_mean            =  -3.9721862885030E-04
(PID.TID 0000.0001) %MON dynstat_vvel_sd              =   1.2695834562077E-02
(PID.TID 0000.0001) %MON dynstat_vvel_del2            =   5.9286287607275E-05
(PID.TID 0000.0001) %MON dynstat_wvel_max             =   1.0326007479323E-04
(PID.TID 0000.0001) %MON dynstat_wvel_min             =  -1.1402644972870E-03
(PID.TID 0000.0001) %MON dynstat_wvel_mean            =  -9.2828222097780E-08
(PID.TID 0000.0001) %MON dynstat_wvel_sd              =   6.9165113031146E-06
(PID.TID 0000.0001) %MON dynstat_wvel_del2            =   9.6729565501121E-08
(PID.TID 0000.0001) %MON dynstat_theta_max            =   3.0925782741914E+01
(PID.TID 0000.0001) %MON dynstat_theta_min            =  -3.0176355430707E+00
(PID.TID 0000.0001) %MON dynstat_theta_mean           =   3.9089162625205E+00
(PID.TID 0000.0001) %MON dynstat_theta_sd             =   4.5705450055764E+00
(PID.TID 0000.0001) %MON dynstat_theta_del2           =   2.6562488931821E-03
(PID.TID 0000.0001) %MON dynstat_salt_max             =   4.1377529096309E+01
(PID.TID 0000.0001) %MON dynstat_salt_min             =   1.8518389218678E+01
(PID.TID 0000.0001) %MON dynstat_salt_mean            =   3.4772204503133E+01
(PID.TID 0000.0001) %MON dynstat_salt_sd              =   5.3092036127911E-01
(PID.TID 0000.0001) %MON dynstat_salt_del2            =   8.0235536617446E-04
(PID.TID 0000.0001) %MON dynstat_sst_max              =   3.0925782741914E+01
(PID.TID 0000.0001) %MON dynstat_sst_min              =  -1.8999692218687E+00
(PID.TID 0000.0001) %MON dynstat_sst_mean             =   1.8097991873253E+01
(PID.TID 0000.0001) %MON dynstat_sst_sd               =   9.8005084592062E+00
(PID.TID 0000.0001) %MON dynstat_sst_del2             =   1.5373551050339E-02
(PID.TID 0000.0001) %MON dynstat_sss_max              =   4.1377529096309E+01
(PID.TID 0000.0001) %MON dynstat_sss_min              =   1.8753352828395E+01
(PID.TID 0000.0001) %MON dynstat_sss_mean             =   3.4642440566508E+01
(PID.TID 0000.0001) %MON dynstat_sss_sd               =   1.4566932535131E+00
(PID.TID 0000.0001) %MON dynstat_sss_del2             =   8.0066553704809E-03
(PID.TID 0000.0001) %MON forcing_qnet_max             =   1.1539841796875E+04
(PID.TID 0000.0001) %MON forcing_qnet_min             =  -2.1762351562500E+04
(PID.TID 0000.0001) %MON forcing_qnet_mean            =  -3.5836128448137E+02
(PID.TID 0000.0001) %MON forcing_qnet_sd              =   1.7118210510247E+03
(PID.TID 0000.0001) %MON forcing_qnet_del2            =   4.4507999276315E+01
(PID.TID 0000.0001) %MON forcing_qsw_max              =   0.0000000000000E+00
(PID.TID 0000.0001) %MON forcing_qsw_min              =   0.0000000000000E+00
(PID.TID 0000.0001) %MON forcing_qsw_mean             =   0.0000000000000E+00
(PID.TID 0000.0001) %MON forcing_qsw_sd               =   0.0000000000000E+00
(PID.TID 0000.0001) %MON forcing_qsw_del2             =   0.0000000000000E+00
(PID.TID 0000.0001) %MON forcing_empmr_max            =   5.0664905458689E-02
(PID.TID 0000.0001) %MON forcing_empmr_min            =  -1.1801737546921E+00
(PID.TID 0000.0001) %MON forcing_empmr_mean           =  -8.0108063671881E-04
(PID.TID 0000.0001) %MON forcing_empmr_sd             =   1.9805968030934E-02
(PID.TID 0000.0001) %MON forcing_empmr_del2           =   7.6861865658781E-04
(PID.TID 0000.0001) %MON forcing_fu_max               =   5.1186009419184E-01
(PID.TID 0000.0001) %MON forcing_fu_min               =  -4.4117910165761E-01
(PID.TID 0000.0001) %MON forcing_fu_mean              =  -3.8651212768904E-03
(PID.TID 0000.0001) %MON forcing_fu_sd                =   6.8499635080254E-02
(PID.TID 0000.0001) %MON forcing_fu_del2              =   6.7731597154273E-04
(PID.TID 0000.0001) %MON forcing_fv_max               =   2.7291049847005E-01
(PID.TID 0000.0001) %MON forcing_fv_min               =  -4.5601609633007E-01
(PID.TID 0000.0001) %MON forcing_fv_mean              =  -1.4145467047841E-02
(PID.TID 0000.0001) %MON forcing_fv_sd                =   6.3939205734009E-02
(PID.TID 0000.0001) %MON forcing_fv_del2              =   5.4504829810837E-04
(PID.TID 0000.0001) %MON trAdv_CFL_u_max              =   2.5755861238209E-05
(PID.TID 0000.0001) %MON trAdv_CFL_v_max              =   3.1303202529388E-05
(PID.TID 0000.0001) %MON trAdv_CFL_w_max              =   5.2883367946347E-04
(PID.TID 0000.0001) %MON advcfl_uvel_max              =   2.7357392724038E-05
(PID.TID 0000.0001) %MON advcfl_vvel_max              =   2.1901460280695E-05
(PID.TID 0000.0001) %MON advcfl_wvel_max              =   1.1402644972870E-03
(PID.TID 0000.0001) %MON advcfl_W_hf_max              =   5.2883367946347E-04
(PID.TID 0000.0001) %MON pe_b_mean                    =   5.6589217135266E-04
(PID.TID 0000.0001) %MON ke_max                       =   4.0473058263634E-02
(PID.TID 0000.0001) %MON ke_mean                      =   1.4201045278412E-04
(PID.TID 0000.0001) %MON ke_vol                       =   1.3398055579111E+18
(PID.TID 0000.0001) %MON vort_r_min                   =  -1.1873165038012E-06
(PID.TID 0000.0001) %MON vort_r_max                   =   1.2204831632000E-06
(PID.TID 0000.0001) %MON vort_a_mean                  =  -2.0549865324846E-05
(PID.TID 0000.0001) %MON vort_a_sd                    =   7.5259518334672E-05
(PID.TID 0000.0001) %MON vort_p_mean                  =  -2.4783430713329E-05
(PID.TID 0000.0001) %MON vort_p_sd                    =   1.2811971787772E-04
(PID.TID 0000.0001) %MON surfExpan_theta_mean         =  -5.2035053598408E-06
(PID.TID 0000.0001) %MON surfExpan_salt_mean          =   6.3975044615666E-07
(PID.TID 0000.0001) // =======================================================
(PID.TID 0000.0001) // End MONITOR dynamic field statistics
(PID.TID 0000.0001) // =======================================================
 cg2d: Sum(rhs),rhsMax =  -4.06898968915240E+00  2.35517951051321E+05
(PID.TID 0000.0001)      cg2d_init_res =   3.91892426164126E-03
(PID.TID 0000.0001)      cg2d_iters(min,last) =      -1       1
(PID.TID 0000.0001)      cg2d_last_res =   2.60701413018251E-08
(PID.TID 0000.0001) // =======================================================
(PID.TID 0000.0001) // Begin MONITOR dynamic field statistics
(PID.TID 0000.0001) // =======================================================
(PID.TID 0000.0001) %MON time_tsnumber                =                 72030
(PID.TID 0000.0001) %MON time_secondsf                =   1.8007500000000E+06
(PID.TID 0000.0001) %MON dynstat_eta_max              =   8.9329144862737E+00
(PID.TID 0000.0001) %MON dynstat_eta_min              =  -1.7548934334128E+00
(PID.TID 0000.0001) %MON dynstat_eta_mean             =   8.5922474418389E-03
(PID.TID 0000.0001) %MON dynstat_eta_sd               =   6.5165280960652E-01
(PID.TID 0000.0001) %MON dynstat_eta_del2             =   8.5708869715390E-03
(PID.TID 0000.0001) %MON dynstat_uvel_max             =   2.8774119691226E-01
(PID.TID 0000.0001) %MON dynstat_uvel_min             =  -2.8739313520757E-01
(PID.TID 0000.0001) %MON dynstat_uvel_mean            =  -4.7814429134209E-04
(PID.TID 0000.0001) %MON dynstat_uvel_sd              =   1.2085956747198E-02
(PID.TID 0000.0001) %MON dynstat_uvel_del2            =   5.5759927607854E-05
(PID.TID 0000.0001) %MON dynstat_vvel_max             =   2.0817179966614E-01
(PID.TID 0000.0001) %MON dynstat_vvel_min             =  -2.2464809069457E-01
(PID.TID 0000.0001) %MON dynstat_vvel_mean            =  -3.9696659847676E-04
(PID.TID 0000.0001) %MON dynstat_vvel_sd              =   1.2700491684925E-02
(PID.TID 0000.0001) %MON dynstat_vvel_del2            =   5.9931004197982E-05
(PID.TID 0000.0001) %MON dynstat_wvel_max             =   1.0326415159871E-04
(PID.TID 0000.0001) %MON dynstat_wvel_min             =  -1.1361237309405E-03
(PID.TID 0000.0001) %MON dynstat_wvel_mean            =  -9.4206402043272E-08
(PID.TID 0000.0001) %MON dynstat_wvel_sd              =   6.9614094419875E-06
(PID.TID 0000.0001) %MON dynstat_wvel_del2            =   9.6745138441352E-08
(PID.TID 0000.0001) %MON dynstat_theta_max            =   3.0925776675464E+01
(PID.TID 0000.0001) %MON dynstat_theta_min            =  -3.0176379110802E+00
(PID.TID 0000.0001) %MON dynstat_theta_mean           =   3.9089169282447E+00
(PID.TID 0000.0001) %MON dynstat_theta_sd             =   4.5705466443011E+00
(PID.TID 0000.0001) %MON dynstat_theta_del2           =   2.6562469676157E-03
(PID.TID 0000.0001) %MON dynstat_salt_max             =   4.1377525460260E+01
(PID.TID 0000.0001) %MON dynstat_salt_min             =   1.8518389478939E+01
(PID.TID 0000.0001) %MON dynstat_salt_mean            =   3.4772204284888E+01
(PID.TID 0000.0001) %MON dynstat_salt_sd              =   5.3092064732267E-01
(PID.TID 0000.0001) %MON dynstat_salt_del2            =   8.0236285823437E-04
(PID.TID 0000.0001) %MON dynstat_sst_max              =   3.0925776675464E+01
(PID.TID 0000.0001) %MON dynstat_sst_min              =  -1.8999681548414E+00
(PID.TID 0000.0001) %MON dynstat_sst_mean             =   1.8098035679266E+01
(PID.TID 0000.0001) %MON dynstat_sst_sd               =   9.8004968462354E+00
(PID.TID 0000.0001) %MON dynstat_sst_del2             =   1.5373279685196E-02
(PID.TID 0000.0001) %MON dynstat_sss_max              =   4.1377525460260E+01
(PID.TID 0000.0001) %MON dynstat_sss_min              =   1.8753356203213E+01
(PID.TID 0000.0001) %MON dynstat_sss_mean             =   3.4642423980662E+01
(PID.TID 0000.0001) %MON dynstat_sss_sd               =   1.4567129320718E+00
(PID.TID 0000.0001) %MON dynstat_sss_del2             =   8.0067342114716E-03
(PID.TID 0000.0001) %MON forcing_qnet_max             =   1.1305920898438E+04
(PID.TID 0000.0001) %MON forcing_qnet_min             =  -2.1265343750000E+04
(PID.TID 0000.0001) %MON forcing_qnet_mean            =  -3.5318702970521E+02
(PID.TID 0000.0001) %MON forcing_qnet_sd              =   1.6731654412715E+03
(PID.TID 0000.0001) %MON forcing_qnet_del2            =   4.3551306306733E+01
(PID.TID 0000.0001) %MON forcing_qsw_max              =   0.0000000000000E+00
(PID.TID 0000.0001) %MON forcing_qsw_min              =   0.0000000000000E+00
(PID.TID 0000.0001) %MON forcing_qsw_mean             =   0.0000000000000E+00
(PID.TID 0000.0001) %MON forcing_qsw_sd               =   0.0000000000000E+00
(PID.TID 0000.0001) %MON forcing_qsw_del2             =   0.0000000000000E+00
(PID.TID 0000.0001) %MON forcing_empmr_max            =   5.0366852432489E-02
(PID.TID 0000.0001) %MON forcing_empmr_min            =  -1.1758880615234E+00
(PID.TID 0000.0001) %MON forcing_empmr_mean           =  -7.9815423732177E-04
(PID.TID 0000.0001) %MON forcing_empmr_sd             =   1.9742843319035E-02
(PID.TID 0000.0001) %MON forcing_empmr_del2           =   7.6618843865450E-04
(PID.TID 0000.0001) %MON forcing_fu_max               =   5.1186009419184E-01
(PID.TID 0000.0001) %MON forcing_fu_min               =  -4.4117910165761E-01
(PID.TID 0000.0001) %MON forcing_fu_mean              =  -3.8651212768904E-03
(PID.TID 0000.0001) %MON forcing_fu_sd                =   6.8499635080254E-02
(PID.TID 0000.0001) %MON forcing_fu_del2              =   6.7731597154273E-04
(PID.TID 0000.0001) %MON forcing_fv_max               =   2.7291049847005E-01
(PID.TID 0000.0001) %MON forcing_fv_min               =  -4.5601609633007E-01
(PID.TID 0000.0001) %MON forcing_fv_mean              =  -1.4145467047841E-02
(PID.TID 0000.0001) %MON forcing_fv_sd                =   6.3939205734009E-02
(PID.TID 0000.0001) %MON forcing_fv_del2              =   5.4504829810837E-04
(PID.TID 0000.0001) %MON trAdv_CFL_u_max              =   2.6403884307329E-05
(PID.TID 0000.0001) %MON trAdv_CFL_v_max              =   3.2576660969284E-05
(PID.TID 0000.0001) %MON trAdv_CFL_w_max              =   5.2682906938319E-04
(PID.TID 0000.0001) %MON advcfl_uvel_max              =   2.8044780937870E-05
(PID.TID 0000.0001) %MON advcfl_vvel_max              =   2.1902318815765E-05
(PID.TID 0000.0001) %MON advcfl_wvel_max              =   1.1361237309405E-03
(PID.TID 0000.0001) %MON advcfl_W_hf_max              =   5.2682906938319E-04
(PID.TID 0000.0001) %MON pe_b_mean                    =   5.6581115115764E-04
(PID.TID 0000.0001) %MON ke_max                       =   4.0465352005646E-02
(PID.TID 0000.0001) %MON ke_mean                      =   1.4211627819909E-04
(PID.TID 0000.0001) %MON ke_vol                       =   1.3398055649522E+18
(PID.TID 0000.0001) %MON vort_r_min                   =  -1.1874220128284E-06
(PID.TID 0000.0001) %MON vort_r_max                   =   1.2206815946454E-06
(PID.TID 0000.0001) %MON vort_a_mean                  =  -2.0549865324846E-05
(PID.TID 0000.0001) %MON vort_a_sd                    =   7.5259518390803E-05
(PID.TID 0000.0001) %MON vort_p_mean                  =  -2.4783430590170E-05
(PID.TID 0000.0001) %MON vort_p_sd                    =   1.2811971597079E-04
(PID.TID 0000.0001) %MON surfExpan_theta_mean         =  -5.2185123727509E-06
(PID.TID 0000.0001) %MON surfExpan_salt_mean          =   6.4113121022116E-07
(PID.TID 0000.0001) // =======================================================
(PID.TID 0000.0001) // End MONITOR dynamic field statistics
(PID.TID 0000.0001) // =======================================================
 cg2d: Sum(rhs),rhsMax =  -4.07934461538902E+00  2.35445659569438E+05
(PID.TID 0000.0001)      cg2d_init_res =   3.93963092098353E-03
(PID.TID 0000.0001)      cg2d_iters(min,last) =      -1       1
(PID.TID 0000.0001)      cg2d_last_res =   2.66911823209698E-08
(PID.TID 0000.0001) // =======================================================
(PID.TID 0000.0001) // Begin MONITOR dynamic field statistics
(PID.TID 0000.0001) // =======================================================
(PID.TID 0000.0001) %MON time_tsnumber                =                 72031
(PID.TID 0000.0001) %MON time_secondsf                =   1.8007750000000E+06
(PID.TID 0000.0001) %MON dynstat_eta_max              =   8.9296130727514E+00
(PID.TID 0000.0001) %MON dynstat_eta_min              =  -1.7534754231888E+00
(PID.TID 0000.0001) %MON dynstat_eta_mean             =   8.6114692591458E-03
(PID.TID 0000.0001) %MON dynstat_eta_sd               =   6.5160363719552E-01
(PID.TID 0000.0001) %MON dynstat_eta_del2             =   8.5635800122829E-03
(PID.TID 0000.0001) %MON dynstat_uvel_max             =   2.9478293963058E-01
(PID.TID 0000.0001) %MON dynstat_uvel_min             =  -2.8737207784034E-01
(PID.TID 0000.0001) %MON dynstat_uvel_mean            =  -4.7772052367377E-04
(PID.TID 0000.0001) %MON dynstat_uvel_sd              =   1.2090730080137E-02
(PID.TID 0000.0001) %MON dynstat_uvel_del2            =   5.6080081678220E-05
(PID.TID 0000.0001) %MON dynstat_vvel_max             =   2.1593257447094E-01
(PID.TID 0000.0001) %MON dynstat_vvel_min             =  -2.2822655959024E-01
(PID.TID 0000.0001) %MON dynstat_vvel_mean            =  -3.9671405963026E-04
(PID.TID 0000.0001) %MON dynstat_vvel_sd              =   1.2705309071116E-02
(PID.TID 0000.0001) %MON dynstat_vvel_del2            =   6.0591764108083E-05
(PID.TID 0000.0001) %MON dynstat_wvel_max             =   1.0326824996569E-04
(PID.TID 0000.0001) %MON dynstat_wvel_min             =  -1.1320589821120E-03
(PID.TID 0000.0001) %MON dynstat_wvel_mean            =  -9.5613178883099E-08
(PID.TID 0000.0001) %MON dynstat_wvel_sd              =   7.0078512319317E-06
(PID.TID 0000.0001) %MON dynstat_wvel_del2            =   9.6772415008370E-08
(PID.TID 0000.0001) %MON dynstat_theta_max            =   3.0925770609568E+01
(PID.TID 0000.0001) %MON dynstat_theta_min            =  -3.0176401501152E+00
(PID.TID 0000.0001) %MON dynstat_theta_mean           =   3.9089175856133E+00
(PID.TID 0000.0001) %MON dynstat_theta_sd             =   4.5705482722232E+00
(PID.TID 0000.0001) %MON dynstat_theta_del2           =   2.6562431849441E-03
(PID.TID 0000.0001) %MON dynstat_salt_max             =   4.1377522001973E+01
(PID.TID 0000.0001) %MON dynstat_salt_min             =   1.8518389739743E+01
(PID.TID 0000.0001) %MON dynstat_salt_mean            =   3.4772204066270E+01
(PID.TID 0000.0001) %MON dynstat_salt_sd              =   5.3092093957407E-01
(PID.TID 0000.0001) %MON dynstat_salt_del2            =   8.0237041076551E-04
(PID.TID 0000.0001) %MON dynstat_sst_max              =   3.0925770609568E+01
(PID.TID 0000.0001) %MON dynstat_sst_min              =  -1.8999670875621E+00
(PID.TID 0000.0001) %MON dynstat_sst_mean             =   1.8098079005495E+01
(PID.TID 0000.0001) %MON dynstat_sst_sd               =   9.8004856177788E+00
(PID.TID 0000.0001) %MON dynstat_sst_del2             =   1.5372979739127E-02
(PID.TID 0000.0001) %MON dynstat_sss_max              =   4.1377522001973E+01
(PID.TID 0000.0001) %MON dynstat_sss_min              =   1.8753358569199E+01
(PID.TID 0000.0001) %MON dynstat_sss_mean             =   3.4642407514153E+01
(PID.TID 0000.0001) %MON dynstat_sss_sd               =   1.4567311240905E+00
(PID.TID 0000.0001) %MON dynstat_sss_del2             =   8.0068180905896E-03
(PID.TID 0000.0001) %MON forcing_qnet_max             =   1.1072000976562E+04
(PID.TID 0000.0001) %MON forcing_qnet_min             =  -2.0787824218750E+04
(PID.TID 0000.0001) %MON forcing_qnet_mean            =  -3.4810657624875E+02
(PID.TID 0000.0001) %MON forcing_qnet_sd              =   1.6366123147253E+03
(PID.TID 0000.0001) %MON forcing_qnet_del2            =   4.2650779867385E+01
(PID.TID 0000.0001) %MON forcing_qsw_max              =   0.0000000000000E+00
(PID.TID 0000.0001) %MON forcing_qsw_min              =   0.0000000000000E+00
(PID.TID 0000.0001) %MON forcing_qsw_mean             =   0.0000000000000E+00
(PID.TID 0000.0001) %MON forcing_qsw_sd               =   0.0000000000000E+00
(PID.TID 0000.0001) %MON forcing_qsw_del2             =   0.0000000000000E+00
(PID.TID 0000.0001) %MON forcing_empmr_max            =   5.0072830170393E-02
(PID.TID 0000.0001) %MON forcing_empmr_min            =  -1.1716810464859E+00
(PID.TID 0000.0001) %MON forcing_empmr_mean           =  -7.9578323650293E-04
(PID.TID 0000.0001) %MON forcing_empmr_sd             =   1.9681162370820E-02
(PID.TID 0000.0001) %MON forcing_empmr_del2           =   7.6381544589118E-04
(PID.TID 0000.0001) %MON forcing_fu_max               =   5.1186009419184E-01
(PID.TID 0000.0001) %MON forcing_fu_min               =  -4.4117910165761E-01
(PID.TID 0000.0001) %MON forcing_fu_mean              =  -3.8651212768904E-03
(PID.TID 0000.0001) %MON forcing_fu_sd                =   6.8499635080254E-02
(PID.TID 0000.0001) %MON forcing_fu_del2              =   6.7731597154273E-04
(PID.TID 0000.0001) %MON forcing_fv_max               =   2.7291049847005E-01
(PID.TID 0000.0001) %MON forcing_fv_min               =  -4.5601609633007E-01
(PID.TID 0000.0001) %MON forcing_fv_mean              =  -1.4145467047841E-02
(PID.TID 0000.0001) %MON forcing_fv_sd                =   6.3939205734009E-02
(PID.TID 0000.0001) %MON forcing_fv_del2              =   5.4504829810837E-04
(PID.TID 0000.0001) %MON trAdv_CFL_u_max              =   2.7050988864305E-05
(PID.TID 0000.0001) %MON trAdv_CFL_v_max              =   3.3847485814650E-05
(PID.TID 0000.0001) %MON trAdv_CFL_w_max              =   5.2485780078356E-04
(PID.TID 0000.0001) %MON advcfl_uvel_max              =   2.8731106476498E-05
(PID.TID 0000.0001) %MON advcfl_vvel_max              =   2.1903180697778E-05
(PID.TID 0000.0001) %MON advcfl_wvel_max              =   1.1320589821120E-03
(PID.TID 0000.0001) %MON advcfl_W_hf_max              =   5.2485780078356E-04
(PID.TID 0000.0001) %MON pe_b_mean                    =   5.6572621684995E-04
(PID.TID 0000.0001) %MON ke_max                       =   4.0457647309048E-02
(PID.TID 0000.0001) %MON ke_mean                      =   1.4222577582735E-04
(PID.TID 0000.0001) %MON ke_vol                       =   1.3398055719676E+18
(PID.TID 0000.0001) %MON vort_r_min                   =  -1.1875278181220E-06
(PID.TID 0000.0001) %MON vort_r_max                   =   1.2208805498792E-06
(PID.TID 0000.0001) %MON vort_a_mean                  =  -2.0549865324846E-05
(PID.TID 0000.0001) %MON vort_a_sd                    =   7.5259518447712E-05
(PID.TID 0000.0001) %MON vort_p_mean                  =  -2.4783430466887E-05
(PID.TID 0000.0001) %MON vort_p_sd                    =   1.2811971407403E-04
(PID.TID 0000.0001) %MON surfExpan_theta_mean         =  -5.2336173801735E-06
(PID.TID 0000.0001) %MON surfExpan_salt_mean          =   6.4257224067294E-07
(PID.TID 0000.0001) // =======================================================
(PID.TID 0000.0001) // End MONITOR dynamic field statistics
(PID.TID 0000.0001) // =======================================================
 cg2d: Sum(rhs),rhsMax =  -4.08973714430381E+00  2.35370211712196E+05
(PID.TID 0000.0001)      cg2d_init_res =   3.96048135612010E-03
(PID.TID 0000.0001)      cg2d_iters(min,last) =      -1       1
(PID.TID 0000.0001)      cg2d_last_res =   2.72979279193239E-08
(PID.TID 0000.0001) // =======================================================
(PID.TID 0000.0001) // Begin MONITOR dynamic field statistics
(PID.TID 0000.0001) // =======================================================
(PID.TID 0000.0001) %MON time_tsnumber                =                 72032
(PID.TID 0000.0001) %MON time_secondsf                =   1.8008000000000E+06
(PID.TID 0000.0001) %MON dynstat_eta_max              =   8.9261717445365E+00
(PID.TID 0000.0001) %MON dynstat_eta_min              =  -1.7520098444550E+00
(PID.TID 0000.0001) %MON dynstat_eta_mean             =   8.6306412686225E-03
(PID.TID 0000.0001) %MON dynstat_eta_sd               =   6.5155232979370E-01
(PID.TID 0000.0001) %MON dynstat_eta_del2             =   8.5560204374028E-03
(PID.TID 0000.0001) %MON dynstat_uvel_max             =   3.0181353894414E-01
(PID.TID 0000.0001) %MON dynstat_uvel_min             =  -2.8735102225662E-01
(PID.TID 0000.0001) %MON dynstat_uvel_mean            =  -4.7729405334032E-04
(PID.TID 0000.0001) %MON dynstat_uvel_sd              =   1.2095658717767E-02
(PID.TID 0000.0001) %MON dynstat_uvel_del2            =   5.6408853526680E-05
(PID.TID 0000.0001) %MON dynstat_vvel_max             =   2.2367979607766E-01
(PID.TID 0000.0001) %MON dynstat_vvel_min             =  -2.3513388921716E-01
(PID.TID 0000.0001) %MON dynstat_vvel_mean            =  -3.9646095569312E-04
(PID.TID 0000.0001) %MON dynstat_vvel_sd              =   1.2710284484175E-02
(PID.TID 0000.0001) %MON dynstat_vvel_del2            =   6.1267843871652E-05
(PID.TID 0000.0001) %MON dynstat_wvel_max             =   1.0327236979140E-04
(PID.TID 0000.0001) %MON dynstat_wvel_min             =  -1.1279562245245E-03
(PID.TID 0000.0001) %MON dynstat_wvel_mean            =  -9.7037493998059E-08
(PID.TID 0000.0001) %MON dynstat_wvel_sd              =   7.0554936982172E-06
(PID.TID 0000.0001) %MON dynstat_wvel_del2            =   9.6803983159955E-08
(PID.TID 0000.0001) %MON dynstat_theta_max            =   3.0925764544225E+01
(PID.TID 0000.0001) %MON dynstat_theta_min            =  -3.0176422563196E+00
(PID.TID 0000.0001) %MON dynstat_theta_mean           =   3.9089182348224E+00
(PID.TID 0000.0001) %MON dynstat_theta_sd             =   4.5705498893987E+00
(PID.TID 0000.0001) %MON dynstat_theta_del2           =   2.6562377544263E-03
(PID.TID 0000.0001) %MON dynstat_salt_max             =   4.1377518525719E+01
(PID.TID 0000.0001) %MON dynstat_salt_min             =   1.8518390001028E+01
(PID.TID 0000.0001) %MON dynstat_salt_mean            =   3.4772203847379E+01
(PID.TID 0000.0001) %MON dynstat_salt_sd              =   5.3092123711096E-01
(PID.TID 0000.0001) %MON dynstat_salt_del2            =   8.0237805999591E-04
(PID.TID 0000.0001) %MON dynstat_sst_max              =   3.0925764544225E+01
(PID.TID 0000.0001) %MON dynstat_sst_min              =  -1.8999660200321E+00
(PID.TID 0000.0001) %MON dynstat_sst_mean             =   1.8098121839762E+01
(PID.TID 0000.0001) %MON dynstat_sst_sd               =   9.8004747787951E+00
(PID.TID 0000.0001) %MON dynstat_sst_del2             =   1.5372654797415E-02
(PID.TID 0000.0001) %MON dynstat_sss_max              =   4.1377518525719E+01
(PID.TID 0000.0001) %MON dynstat_sss_min              =   1.8753360236738E+01
(PID.TID 0000.0001) %MON dynstat_sss_mean             =   3.4642391155399E+01
(PID.TID 0000.0001) %MON dynstat_sss_sd               =   1.4567480062848E+00
(PID.TID 0000.0001) %MON dynstat_sss_del2             =   8.0069071365168E-03
(PID.TID 0000.0001) %MON forcing_qnet_max             =   1.0838081054688E+04
(PID.TID 0000.0001) %MON forcing_qnet_min             =  -2.0310304687500E+04
(PID.TID 0000.0001) %MON forcing_qnet_mean            =  -3.4315453510452E+02
(PID.TID 0000.0001) %MON forcing_qnet_sd              =   1.6013138690633E+03
(PID.TID 0000.0001) %MON forcing_qnet_del2            =   4.1788088614423E+01
(PID.TID 0000.0001) %MON forcing_qsw_max              =   0.0000000000000E+00
(PID.TID 0000.0001) %MON forcing_qsw_min              =   0.0000000000000E+00
(PID.TID 0000.0001) %MON forcing_qsw_mean             =   0.0000000000000E+00
(PID.TID 0000.0001) %MON forcing_qsw_sd               =   0.0000000000000E+00
(PID.TID 0000.0001) %MON forcing_qsw_del2             =   0.0000000000000E+00
(PID.TID 0000.0001) %MON forcing_empmr_max            =   4.9782831221819E-02
(PID.TID 0000.0001) %MON forcing_empmr_min            =  -1.1674346923828E+00
(PID.TID 0000.0001) %MON forcing_empmr_mean           =  -7.9372119233251E-04
(PID.TID 0000.0001) %MON forcing_empmr_sd             =   1.9618842698779E-02
(PID.TID 0000.0001) %MON forcing_empmr_del2           =   7.6141610725936E-04
(PID.TID 0000.0001) %MON forcing_fu_max               =   5.1186009419184E-01
(PID.TID 0000.0001) %MON forcing_fu_min               =  -4.4117910165761E-01
(PID.TID 0000.0001) %MON forcing_fu_mean              =  -3.8651212768904E-03
(PID.TID 0000.0001) %MON forcing_fu_sd                =   6.8499635080254E-02
(PID.TID 0000.0001) %MON forcing_fu_del2              =   6.7731597154273E-04
(PID.TID 0000.0001) %MON forcing_fv_max               =   2.7291049847005E-01
(PID.TID 0000.0001) %MON forcing_fv_min               =  -4.5601609633007E-01
(PID.TID 0000.0001) %MON forcing_fv_mean              =  -1.4145467047841E-02
(PID.TID 0000.0001) %MON forcing_fv_sd                =   6.3939205734009E-02
(PID.TID 0000.0001) %MON forcing_fv_del2              =   5.4504829810837E-04
(PID.TID 0000.0001) %MON trAdv_CFL_u_max              =   2.7697153881224E-05
(PID.TID 0000.0001) %MON trAdv_CFL_v_max              =   3.5115634934864E-05
(PID.TID 0000.0001) %MON trAdv_CFL_w_max              =   5.2286713560586E-04
(PID.TID 0000.0001) %MON advcfl_uvel_max              =   2.9416345919881E-05
(PID.TID 0000.0001) %MON advcfl_vvel_max              =   2.1904045875803E-05
(PID.TID 0000.0001) %MON advcfl_wvel_max              =   1.1279562245245E-03
(PID.TID 0000.0001) %MON advcfl_W_hf_max              =   5.2286713560586E-04
(PID.TID 0000.0001) %MON pe_b_mean                    =   5.6563758254256E-04
(PID.TID 0000.0001) %MON ke_max                       =   4.0449944179880E-02
(PID.TID 0000.0001) %MON ke_mean                      =   1.4233890382336E-04
(PID.TID 0000.0001) %MON ke_vol                       =   1.3398055789622E+18
(PID.TID 0000.0001) %MON vort_r_min                   =  -1.1876339127411E-06
(PID.TID 0000.0001) %MON vort_r_max                   =   1.2210800302867E-06
(PID.TID 0000.0001) %MON vort_a_mean                  =  -2.0549865324846E-05
(PID.TID 0000.0001) %MON vort_a_sd                    =   7.5259518505403E-05
(PID.TID 0000.0001) %MON vort_p_mean                  =  -2.4783430343418E-05
(PID.TID 0000.0001) %MON vort_p_sd                    =   1.2811971218595E-04
(PID.TID 0000.0001) %MON surfExpan_theta_mean         =  -5.2483580859701E-06
(PID.TID 0000.0001) %MON surfExpan_salt_mean          =   6.4400977531218E-07
(PID.TID 0000.0001) // =======================================================
(PID.TID 0000.0001) // End MONITOR dynamic field statistics
(PID.TID 0000.0001) // =======================================================
 cg2d: Sum(rhs),rhsMax =  -4.10016781002356E+00  2.35291785408105E+05
(PID.TID 0000.0001)      cg2d_init_res =   3.98178494384701E-03
(PID.TID 0000.0001)      cg2d_iters(min,last) =      -1       1
(PID.TID 0000.0001)      cg2d_last_res =   2.78906496838192E-08
(PID.TID 0000.0001) // =======================================================
(PID.TID 0000.0001) // Begin MONITOR dynamic field statistics
(PID.TID 0000.0001) // =======================================================
(PID.TID 0000.0001) %MON time_tsnumber                =                 72033
(PID.TID 0000.0001) %MON time_secondsf                =   1.8008250000000E+06
(PID.TID 0000.0001) %MON dynstat_eta_max              =   8.9225972758639E+00
(PID.TID 0000.0001) %MON dynstat_eta_min              =  -1.7504969866769E+00
(PID.TID 0000.0001) %MON dynstat_eta_mean             =   8.6497701794228E-03
(PID.TID 0000.0001) %MON dynstat_eta_sd               =   6.5149898378617E-01
(PID.TID 0000.0001) %MON dynstat_eta_del2             =   8.5482175569735E-03
(PID.TID 0000.0001) %MON dynstat_uvel_max             =   3.0883276038676E-01
(PID.TID 0000.0001) %MON dynstat_uvel_min             =  -2.8732996848447E-01
(PID.TID 0000.0001) %MON dynstat_uvel_mean            =  -4.7686479844338E-04
(PID.TID 0000.0001) %MON dynstat_uvel_sd              =   1.2100740860018E-02
(PID.TID 0000.0001) %MON dynstat_uvel_del2            =   5.6745997575804E-05
(PID.TID 0000.0001) %MON dynstat_vvel_max             =   2.3141331179049E-01
(PID.TID 0000.0001) %MON dynstat_vvel_min             =  -2.4203768393807E-01
(PID.TID 0000.0001) %MON dynstat_vvel_mean            =  -3.9620723270074E-04
(PID.TID 0000.0001) %MON dynstat_vvel_sd              =   1.2715415657325E-02
(PID.TID 0000.0001) %MON dynstat_vvel_del2            =   6.1958537146204E-05
(PID.TID 0000.0001) %MON dynstat_wvel_max             =   1.0327651098019E-04
(PID.TID 0000.0001) %MON dynstat_wvel_min             =  -1.1238914756959E-03
(PID.TID 0000.0001) %MON dynstat_wvel_mean            =  -9.8462442831257E-08
(PID.TID 0000.0001) %MON dynstat_wvel_sd              =   7.1044488934155E-06
(PID.TID 0000.0001) %MON dynstat_wvel_del2            =   9.6845645925027E-08
(PID.TID 0000.0001) %MON dynstat_theta_max            =   3.0925758479435E+01
(PID.TID 0000.0001) %MON dynstat_theta_min            =  -3.0176442258777E+00
(PID.TID 0000.0001) %MON dynstat_theta_mean           =   3.9089188760590E+00
(PID.TID 0000.0001) %MON dynstat_theta_sd             =   4.5705514959057E+00
(PID.TID 0000.0001) %MON dynstat_theta_del2           =   2.6562308733444E-03
(PID.TID 0000.0001) %MON dynstat_salt_max             =   4.1377514942352E+01
(PID.TID 0000.0001) %MON dynstat_salt_min             =   1.8518390262739E+01
(PID.TID 0000.0001) %MON dynstat_salt_mean            =   3.4772203628323E+01
(PID.TID 0000.0001) %MON dynstat_salt_sd              =   5.3092153923839E-01
(PID.TID 0000.0001) %MON dynstat_salt_del2            =   8.0238585529193E-04
(PID.TID 0000.0001) %MON dynstat_sst_max              =   3.0925758479435E+01
(PID.TID 0000.0001) %MON dynstat_sst_min              =  -1.8999649522529E+00
(PID.TID 0000.0001) %MON dynstat_sst_mean             =   1.8098164172850E+01
(PID.TID 0000.0001) %MON dynstat_sst_sd               =   9.8004643322614E+00
(PID.TID 0000.0001) %MON dynstat_sst_del2             =   1.5372308288382E-02
(PID.TID 0000.0001) %MON dynstat_sss_max              =   4.1377514942352E+01
(PID.TID 0000.0001) %MON dynstat_sss_min              =   1.8753361399822E+01
(PID.TID 0000.0001) %MON dynstat_sss_mean             =   3.4642374895755E+01
(PID.TID 0000.0001) %MON dynstat_sss_sd               =   1.4567637370598E+00
(PID.TID 0000.0001) %MON dynstat_sss_del2             =   8.0070017298859E-03
(PID.TID 0000.0001) %MON forcing_qnet_max             =   1.0613909179688E+04
(PID.TID 0000.0001) %MON forcing_qnet_min             =  -1.9852273437500E+04
(PID.TID 0000.0001) %MON forcing_qnet_mean            =  -3.3832441575835E+02
(PID.TID 0000.0001) %MON forcing_qnet_sd              =   1.5678648960298E+03
(PID.TID 0000.0001) %MON forcing_qnet_del2            =   4.0976635390210E+01
(PID.TID 0000.0001) %MON forcing_qsw_max              =   0.0000000000000E+00
(PID.TID 0000.0001) %MON forcing_qsw_min              =   0.0000000000000E+00
(PID.TID 0000.0001) %MON forcing_qsw_mean             =   0.0000000000000E+00
(PID.TID 0000.0001) %MON forcing_qsw_sd               =   0.0000000000000E+00
(PID.TID 0000.0001) %MON forcing_qsw_del2             =   0.0000000000000E+00
(PID.TID 0000.0001) %MON forcing_empmr_max            =   4.9492835998535E-02
(PID.TID 0000.0001) %MON forcing_empmr_min            =  -1.1632276773453E+00
(PID.TID 0000.0001) %MON forcing_empmr_mean           =  -7.9193690714486E-04
(PID.TID 0000.0001) %MON forcing_empmr_sd             =   1.9557377122655E-02
(PID.TID 0000.0001) %MON forcing_empmr_del2           =   7.5905393806183E-04
(PID.TID 0000.0001) %MON forcing_fu_max               =   5.1186009419184E-01
(PID.TID 0000.0001) %MON forcing_fu_min               =  -4.4117910165761E-01
(PID.TID 0000.0001) %MON forcing_fu_mean              =  -3.8651212768904E-03
(PID.TID 0000.0001) %MON forcing_fu_sd                =   6.8499635080254E-02
(PID.TID 0000.0001) %MON forcing_fu_del2              =   6.7731597154273E-04
(PID.TID 0000.0001) %MON forcing_fv_max               =   2.7291049847005E-01
(PID.TID 0000.0001) %MON forcing_fv_min               =  -4.5601609633007E-01
(PID.TID 0000.0001) %MON forcing_fv_mean              =  -1.4145467047841E-02
(PID.TID 0000.0001) %MON forcing_fv_sd                =   6.3939205734009E-02
(PID.TID 0000.0001) %MON forcing_fv_del2              =   5.4504829810837E-04
(PID.TID 0000.0001) %MON trAdv_CFL_u_max              =   2.8342359201721E-05
(PID.TID 0000.0001) %MON trAdv_CFL_v_max              =   3.6381067681580E-05
(PID.TID 0000.0001) %MON trAdv_CFL_w_max              =   5.2089225701509E-04
(PID.TID 0000.0001) %MON advcfl_uvel_max              =   3.0100476415706E-05
(PID.TID 0000.0001) %MON advcfl_vvel_max              =   2.2356045890189E-05
(PID.TID 0000.0001) %MON advcfl_wvel_max              =   1.1238914756959E-03
(PID.TID 0000.0001) %MON advcfl_W_hf_max              =   5.2089225701509E-04
(PID.TID 0000.0001) %MON pe_b_mean                    =   5.6554541656510E-04
(PID.TID 0000.0001) %MON ke_max                       =   4.1290981298720E-02
(PID.TID 0000.0001) %MON ke_mean                      =   1.4245561969038E-04
(PID.TID 0000.0001) %MON ke_vol                       =   1.3398055859386E+18
(PID.TID 0000.0001) %MON vort_r_min                   =  -1.1877402902781E-06
(PID.TID 0000.0001) %MON vort_r_max                   =   1.2212800373025E-06
(PID.TID 0000.0001) %MON vort_a_mean                  =  -2.0549865324846E-05
(PID.TID 0000.0001) %MON vort_a_sd                    =   7.5259518563884E-05
(PID.TID 0000.0001) %MON vort_p_mean                  =  -2.4783430219734E-05
(PID.TID 0000.0001) %MON vort_p_sd                    =   1.2811971030559E-04
(PID.TID 0000.0001) %MON surfExpan_theta_mean         =  -5.2630709319443E-06
(PID.TID 0000.0001) %MON surfExpan_salt_mean          =   6.4545785442800E-07
(PID.TID 0000.0001) // =======================================================
(PID.TID 0000.0001) // End MONITOR dynamic field statistics
(PID.TID 0000.0001) // =======================================================
 cg2d: Sum(rhs),rhsMax =  -4.11061274620840E+00  2.35209803482771E+05
(PID.TID 0000.0001)      cg2d_init_res =   3.54876600878230E-03
(PID.TID 0000.0001)      cg2d_iters(min,last) =      -1       1
(PID.TID 0000.0001)      cg2d_last_res =   2.84247424750868E-08
(PID.TID 0000.0001) // =======================================================
(PID.TID 0000.0001) // Begin MONITOR dynamic field statistics
(PID.TID 0000.0001) // =======================================================
(PID.TID 0000.0001) %MON time_tsnumber                =                 72034
(PID.TID 0000.0001) %MON time_secondsf                =   1.8008500000000E+06
(PID.TID 0000.0001) %MON dynstat_eta_max              =   8.9188672555247E+00
(PID.TID 0000.0001) %MON dynstat_eta_min              =  -1.7489754929482E+00
(PID.TID 0000.0001) %MON dynstat_eta_mean             =   8.6687834720487E-03
(PID.TID 0000.0001) %MON dynstat_eta_sd               =   6.5144394705602E-01
(PID.TID 0000.0001) %MON dynstat_eta_del2             =   8.5399202893073E-03
(PID.TID 0000.0001) %MON dynstat_uvel_max             =   3.1584035242551E-01
(PID.TID 0000.0001) %MON dynstat_uvel_min             =  -2.8730586532965E-01
(PID.TID 0000.0001) %MON dynstat_uvel_mean            =  -4.7643602012218E-04
(PID.TID 0000.0001) %MON dynstat_uvel_sd              =   1.2105972736502E-02
(PID.TID 0000.0001) %MON dynstat_uvel_del2            =   5.7091396652664E-05
(PID.TID 0000.0001) %MON dynstat_vvel_max             =   2.3913294986884E-01
(PID.TID 0000.0001) %MON dynstat_vvel_min             =  -2.4893782186229E-01
(PID.TID 0000.0001) %MON dynstat_vvel_mean            =  -3.9594735580044E-04
(PID.TID 0000.0001) %MON dynstat_vvel_sd              =   1.2720758109253E-02
(PID.TID 0000.0001) %MON dynstat_vvel_del2            =   6.2663111351225E-05
(PID.TID 0000.0001) %MON dynstat_wvel_max             =   1.0328066101093E-04
(PID.TID 0000.0001) %MON dynstat_wvel_min             =  -8.9140145674996E-04
(PID.TID 0000.0001) %MON dynstat_wvel_mean            =  -1.3308149792599E-07
(PID.TID 0000.0001) %MON dynstat_wvel_sd              =   6.6677887687111E-06
(PID.TID 0000.0001) %MON dynstat_wvel_del2            =   8.4811138628489E-08
(PID.TID 0000.0001) %MON dynstat_theta_max            =   3.0925752425710E+01
(PID.TID 0000.0001) %MON dynstat_theta_min            =  -3.0176458853978E+00
(PID.TID 0000.0001) %MON dynstat_theta_mean           =   3.9089191311336E+00
(PID.TID 0000.0001) %MON dynstat_theta_sd             =   4.5705500829587E+00
(PID.TID 0000.0001) %MON dynstat_theta_del2           =   2.6561915499356E-03
(PID.TID 0000.0001) %MON dynstat_salt_max             =   4.1377511405335E+01
(PID.TID 0000.0001) %MON dynstat_salt_min             =   1.8518390527945E+01
(PID.TID 0000.0001) %MON dynstat_salt_mean            =   3.4772203413144E+01
(PID.TID 0000.0001) %MON dynstat_salt_sd              =   5.3092182584823E-01
(PID.TID 0000.0001) %MON dynstat_salt_del2            =   8.0238783043149E-04
(PID.TID 0000.0001) %MON dynstat_sst_max              =   3.0925752425710E+01
(PID.TID 0000.0001) %MON dynstat_sst_min              =  -1.8999639022386E+00
(PID.TID 0000.0001) %MON dynstat_sst_mean             =   1.8098176903207E+01
(PID.TID 0000.0001) %MON dynstat_sst_sd               =   9.8003918409344E+00
(PID.TID 0000.0001) %MON dynstat_sst_del2             =   1.5371098429653E-02
(PID.TID 0000.0001) %MON dynstat_sss_max              =   4.1377511405335E+01
(PID.TID 0000.0001) %MON dynstat_sss_min              =   1.8753356125151E+01
(PID.TID 0000.0001) %MON dynstat_sss_mean             =   3.4642358921659E+01
(PID.TID 0000.0001) %MON dynstat_sss_sd               =   1.4567780604270E+00
(PID.TID 0000.0001) %MON dynstat_sss_del2             =   8.0070080393486E-03
(PID.TID 0000.0001) %MON forcing_qnet_max             =   1.4695414062500E+05
(PID.TID 0000.0001) %MON forcing_qnet_min             =  -1.4623614062500E+05
(PID.TID 0000.0001) %MON forcing_qnet_mean            =  -8.9316711137513E+01
(PID.TID 0000.0001) %MON forcing_qnet_sd              =   5.2428945723257E+03
(PID.TID 0000.0001) %MON forcing_qnet_del2            =   2.0941611381182E+02
(PID.TID 0000.0001) %MON forcing_qsw_max              =   0.0000000000000E+00
(PID.TID 0000.0001) %MON forcing_qsw_min              =   0.0000000000000E+00
(PID.TID 0000.0001) %MON forcing_qsw_mean             =   0.0000000000000E+00
(PID.TID 0000.0001) %MON forcing_qsw_sd               =   0.0000000000000E+00
(PID.TID 0000.0001) %MON forcing_qsw_del2             =   0.0000000000000E+00
(PID.TID 0000.0001) %MON forcing_empmr_max            =   7.4545361101627E-02
(PID.TID 0000.0001) %MON forcing_empmr_min            =  -9.2260050773621E-01
(PID.TID 0000.0001) %MON forcing_empmr_mean           =  -7.8715031470823E-04
(PID.TID 0000.0001) %MON forcing_empmr_sd             =   1.6263963315187E-02
(PID.TID 0000.0001) %MON forcing_empmr_del2           =   6.3454619162486E-04
(PID.TID 0000.0001) %MON forcing_fu_max               =   5.2677829465581E-01
(PID.TID 0000.0001) %MON forcing_fu_min               =  -4.5880423782345E-01
(PID.TID 0000.0001) %MON forcing_fu_mean              =  -4.1814237346585E-03
(PID.TID 0000.0001) %MON forcing_fu_sd                =   6.9375254978744E-02
(PID.TID 0000.0001) %MON forcing_fu_del2              =   6.8235245862431E-04
(PID.TID 0000.0001) %MON forcing_fv_max               =   2.9868584949626E-01
(PID.TID 0000.0001) %MON forcing_fv_min               =  -3.9323508454932E-01
(PID.TID 0000.0001) %MON forcing_fv_mean              =  -1.3672568887233E-02
(PID.TID 0000.0001) %MON forcing_fv_sd                =   6.6233499231519E-02
(PID.TID 0000.0001) %MON forcing_fv_del2              =   5.5204045430852E-04
(PID.TID 0000.0001) %MON trAdv_CFL_u_max              =   2.8986583352105E-05
(PID.TID 0000.0001) %MON trAdv_CFL_v_max              =   3.7643740600008E-05
(PID.TID 0000.0001) %MON trAdv_CFL_w_max              =   4.1325536477782E-04
(PID.TID 0000.0001) %MON advcfl_uvel_max              =   3.0783473448239E-05
(PID.TID 0000.0001) %MON advcfl_vvel_max              =   2.2928613587731E-05
(PID.TID 0000.0001) %MON advcfl_wvel_max              =   8.9140145674996E-04
(PID.TID 0000.0001) %MON advcfl_W_hf_max              =   4.1325536477782E-04
(PID.TID 0000.0001) %MON pe_b_mean                    =   5.6545032191904E-04
(PID.TID 0000.0001) %MON ke_max                       =   4.3622107463612E-02
(PID.TID 0000.0001) %MON ke_mean                      =   1.4257654052800E-04
(PID.TID 0000.0001) %MON ke_vol                       =   1.3398055928994E+18
(PID.TID 0000.0001) %MON vort_r_min                   =  -1.1878577005886E-06
(PID.TID 0000.0001) %MON vort_r_max                   =   1.2214634382224E-06
(PID.TID 0000.0001) %MON vort_a_mean                  =  -2.0549865324846E-05
(PID.TID 0000.0001) %MON vort_a_sd                    =   7.5259518622870E-05
(PID.TID 0000.0001) %MON vort_p_mean                  =  -2.4783430095802E-05
(PID.TID 0000.0001) %MON vort_p_sd                    =   1.2811970843410E-04
(PID.TID 0000.0001) %MON surfExpan_theta_mean         =  -7.3836607607684E-06
(PID.TID 0000.0001) %MON surfExpan_salt_mean          =   5.2605880949496E-07
(PID.TID 0000.0001) // =======================================================
(PID.TID 0000.0001) // End MONITOR dynamic field statistics
(PID.TID 0000.0001) // =======================================================
 cg2d: Sum(rhs),rhsMax =  -4.12095796891194E+00  2.35125264837631E+05
(PID.TID 0000.0001)      cg2d_init_res =   3.57843288702109E-03
(PID.TID 0000.0001)      cg2d_iters(min,last) =      -1       1
(PID.TID 0000.0001)      cg2d_last_res =   2.88438333160402E-08
(PID.TID 0000.0001) // =======================================================
(PID.TID 0000.0001) // Begin MONITOR dynamic field statistics
(PID.TID 0000.0001) // =======================================================
(PID.TID 0000.0001) %MON time_tsnumber                =                 72035
(PID.TID 0000.0001) %MON time_secondsf                =   1.8008750000000E+06
(PID.TID 0000.0001) %MON dynstat_eta_max              =   8.9150205687464E+00
(PID.TID 0000.0001) %MON dynstat_eta_min              =  -1.7473966079584E+00
(PID.TID 0000.0001) %MON dynstat_eta_mean             =   8.6874767329006E-03
(PID.TID 0000.0001) %MON dynstat_eta_sd               =   6.5138618109290E-01
(PID.TID 0000.0001) %MON dynstat_eta_del2             =   8.5313925774994E-03
(PID.TID 0000.0001) %MON dynstat_uvel_max             =   3.2283609654528E-01
(PID.TID 0000.0001) %MON dynstat_uvel_min             =  -2.8728290906765E-01
(PID.TID 0000.0001) %MON dynstat_uvel_mean            =  -4.7600289840956E-04
(PID.TID 0000.0001) %MON dynstat_uvel_sd              =   1.2111354874155E-02
(PID.TID 0000.0001) %MON dynstat_uvel_del2            =   5.7444626158213E-05
(PID.TID 0000.0001) %MON dynstat_vvel_max             =   2.4683857817505E-01
(PID.TID 0000.0001) %MON dynstat_vvel_min             =  -2.5583417084529E-01
(PID.TID 0000.0001) %MON dynstat_vvel_mean            =  -3.9568841323753E-04
(PID.TID 0000.0001) %MON dynstat_vvel_sd              =   1.2726229959983E-02
(PID.TID 0000.0001) %MON dynstat_vvel_del2            =   6.3380946154217E-05
(PID.TID 0000.0001) %MON dynstat_wvel_max             =   1.0328482986678E-04
(PID.TID 0000.0001) %MON dynstat_wvel_min             =  -8.8881824327552E-04
(PID.TID 0000.0001) %MON dynstat_wvel_mean            =  -1.2496874702408E-07
(PID.TID 0000.0001) %MON dynstat_wvel_sd              =   6.7205009463420E-06
(PID.TID 0000.0001) %MON dynstat_wvel_del2            =   8.4970092031584E-08
(PID.TID 0000.0001) %MON dynstat_theta_max            =   3.0925746368582E+01
(PID.TID 0000.0001) %MON dynstat_theta_min            =  -3.0176475153611E+00
(PID.TID 0000.0001) %MON dynstat_theta_mean           =   3.9089195341240E+00
(PID.TID 0000.0001) %MON dynstat_theta_sd             =   4.5705496225742E+00
(PID.TID 0000.0001) %MON dynstat_theta_del2           =   2.6561568547266E-03
(PID.TID 0000.0001) %MON dynstat_salt_max             =   4.1377507678282E+01
(PID.TID 0000.0001) %MON dynstat_salt_min             =   1.8518390791488E+01
(PID.TID 0000.0001) %MON dynstat_salt_mean            =   3.4772203192971E+01
(PID.TID 0000.0001) %MON dynstat_salt_sd              =   5.3092212056572E-01
(PID.TID 0000.0001) %MON dynstat_salt_del2            =   8.0239099106384E-04
(PID.TID 0000.0001) %MON dynstat_sst_max              =   3.0925746368582E+01
(PID.TID 0000.0001) %MON dynstat_sst_min              =  -1.8999628741274E+00
(PID.TID 0000.0001) %MON dynstat_sst_mean             =   1.8098201705559E+01
(PID.TID 0000.0001) %MON dynstat_sst_sd               =   9.8003357481746E+00
(PID.TID 0000.0001) %MON dynstat_sst_del2             =   1.5370029113304E-02
(PID.TID 0000.0001) %MON dynstat_sss_max              =   4.1377507678282E+01
(PID.TID 0000.0001) %MON dynstat_sss_min              =   1.8753352436038E+01
(PID.TID 0000.0001) %MON dynstat_sss_mean             =   3.4642342720342E+01
(PID.TID 0000.0001) %MON dynstat_sss_sd               =   1.4567915348470E+00
(PID.TID 0000.0001) %MON dynstat_sss_del2             =   8.0070352337273E-03
(PID.TID 0000.0001) %MON forcing_qnet_max             =   1.0206272656250E+05
(PID.TID 0000.0001) %MON forcing_qnet_min             =  -1.0155311718750E+05
(PID.TID 0000.0001) %MON forcing_qnet_mean            =  -1.8886834034984E+02
(PID.TID 0000.0001) %MON forcing_qnet_sd              =   4.1937967439884E+03
(PID.TID 0000.0001) %MON forcing_qnet_del2            =   1.5597701198013E+02
(PID.TID 0000.0001) %MON forcing_qsw_max              =   0.0000000000000E+00
(PID.TID 0000.0001) %MON forcing_qsw_min              =   0.0000000000000E+00
(PID.TID 0000.0001) %MON forcing_qsw_mean             =   0.0000000000000E+00
(PID.TID 0000.0001) %MON forcing_qsw_sd               =   0.0000000000000E+00
(PID.TID 0000.0001) %MON forcing_qsw_del2             =   0.0000000000000E+00
(PID.TID 0000.0001) %MON forcing_empmr_max            =   7.3884807527065E-02
(PID.TID 0000.0001) %MON forcing_empmr_min            =  -9.1992688179016E-01
(PID.TID 0000.0001) %MON forcing_empmr_mean           =  -7.7390099925960E-04
(PID.TID 0000.0001) %MON forcing_empmr_sd             =   1.6215944967447E-02
(PID.TID 0000.0001) %MON forcing_empmr_del2           =   6.3298049390402E-04
(PID.TID 0000.0001) %MON forcing_fu_max               =   5.2677829465581E-01
(PID.TID 0000.0001) %MON forcing_fu_min               =  -4.5880423782345E-01
(PID.TID 0000.0001) %MON forcing_fu_mean              =  -4.1814237346585E-03
(PID.TID 0000.0001) %MON forcing_fu_sd                =   6.9375254978744E-02
(PID.TID 0000.0001) %MON forcing_fu_del2              =   6.8235245862431E-04
(PID.TID 0000.0001) %MON forcing_fv_max               =   2.9868584949626E-01
(PID.TID 0000.0001) %MON forcing_fv_min               =  -3.9323508454932E-01
(PID.TID 0000.0001) %MON forcing_fv_mean              =  -1.3672568887233E-02
(PID.TID 0000.0001) %MON forcing_fv_sd                =   6.6233499231519E-02
(PID.TID 0000.0001) %MON forcing_fv_del2              =   5.5204045430852E-04
(PID.TID 0000.0001) %MON trAdv_CFL_u_max              =   2.9629811437092E-05
(PID.TID 0000.0001) %MON trAdv_CFL_v_max              =   3.8903621449013E-05
(PID.TID 0000.0001) %MON trAdv_CFL_w_max              =   4.1197081653767E-04
(PID.TID 0000.0001) %MON advcfl_uvel_max              =   3.1465315719842E-05
(PID.TID 0000.0001) %MON advcfl_vvel_max              =   2.3497076438833E-05
(PID.TID 0000.0001) %MON advcfl_wvel_max              =   8.8881824327552E-04
(PID.TID 0000.0001) %MON advcfl_W_hf_max              =   4.1197081653767E-04
(PID.TID 0000.0001) %MON pe_b_mean                    =   5.6535049224348E-04
(PID.TID 0000.0001) %MON ke_max                       =   4.6015908665876E-02
(PID.TID 0000.0001) %MON ke_mean                      =   1.4270071123568E-04
(PID.TID 0000.0001) %MON ke_vol                       =   1.3398055998181E+18
(PID.TID 0000.0001) %MON vort_r_min                   =  -1.1879713366019E-06
(PID.TID 0000.0001) %MON vort_r_max                   =   1.2216538484475E-06
(PID.TID 0000.0001) %MON vort_a_mean                  =  -2.0549865324846E-05
(PID.TID 0000.0001) %MON vort_a_sd                    =   7.5259518682855E-05
(PID.TID 0000.0001) %MON vort_p_mean                  =  -2.4783429968219E-05
(PID.TID 0000.0001) %MON vort_p_sd                    =   1.2811970696822E-04
(PID.TID 0000.0001) %MON surfExpan_theta_mean         =  -6.7826167013053E-06
(PID.TID 0000.0001) %MON surfExpan_salt_mean          =   5.4825706480758E-07
(PID.TID 0000.0001) // =======================================================
(PID.TID 0000.0001) // End MONITOR dynamic field statistics
(PID.TID 0000.0001) // =======================================================
 cg2d: Sum(rhs),rhsMax =  -4.13124310937241E+00  2.35038172197858E+05
(PID.TID 0000.0001)      cg2d_init_res =   3.60930698084844E-03
(PID.TID 0000.0001)      cg2d_iters(min,last) =      -1       1
(PID.TID 0000.0001)      cg2d_last_res =   2.93341397003964E-08
(PID.TID 0000.0001) // =======================================================
(PID.TID 0000.0001) // Begin MONITOR dynamic field statistics
(PID.TID 0000.0001) // =======================================================
(PID.TID 0000.0001) %MON time_tsnumber                =                 72036
(PID.TID 0000.0001) %MON time_secondsf                =   1.8009000000000E+06
(PID.TID 0000.0001) %MON dynstat_eta_max              =   8.9110573363137E+00
(PID.TID 0000.0001) %MON dynstat_eta_min              =  -1.7457638684059E+00
(PID.TID 0000.0001) %MON dynstat_eta_mean             =   8.7059330946993E-03
(PID.TID 0000.0001) %MON dynstat_eta_sd               =   6.5132594964296E-01
(PID.TID 0000.0001) %MON dynstat_eta_del2             =   8.5226373507921E-03
(PID.TID 0000.0001) %MON dynstat_uvel_max             =   3.2981976962321E-01
(PID.TID 0000.0001) %MON dynstat_uvel_min             =  -2.8725995457702E-01
(PID.TID 0000.0001) %MON dynstat_uvel_mean            =  -4.7556666965287E-04
(PID.TID 0000.0001) %MON dynstat_uvel_sd              =   1.2116884555608E-02
(PID.TID 0000.0001) %MON dynstat_uvel_del2            =   5.7805490523161E-05
(PID.TID 0000.0001) %MON dynstat_vvel_max             =   2.5453005385761E-01
(PID.TID 0000.0001) %MON dynstat_vvel_min             =  -2.6272663096590E-01
(PID.TID 0000.0001) %MON dynstat_vvel_mean            =  -3.9542840018420E-04
(PID.TID 0000.0001) %MON dynstat_vvel_sd              =   1.2731850228624E-02
(PID.TID 0000.0001) %MON dynstat_vvel_del2            =   6.4111372873046E-05
(PID.TID 0000.0001) %MON dynstat_wvel_max             =   1.0328901868203E-04
(PID.TID 0000.0001) %MON dynstat_wvel_min             =  -8.8627303856007E-04
(PID.TID 0000.0001) %MON dynstat_wvel_mean            =  -1.1959747763184E-07
(PID.TID 0000.0001) %MON dynstat_wvel_sd              =   6.7779807998433E-06
(PID.TID 0000.0001) %MON dynstat_wvel_del2            =   8.5157478194633E-08
(PID.TID 0000.0001) %MON dynstat_theta_max            =   3.0925740312146E+01
(PID.TID 0000.0001) %MON dynstat_theta_min            =  -3.0176490188107E+00
(PID.TID 0000.0001) %MON dynstat_theta_mean           =   3.9089200406963E+00
(PID.TID 0000.0001) %MON dynstat_theta_sd             =   4.5705498361340E+00
(PID.TID 0000.0001) %MON dynstat_theta_del2           =   2.6561249647059E-03
(PID.TID 0000.0001) %MON dynstat_salt_max             =   4.1377503920726E+01
(PID.TID 0000.0001) %MON dynstat_salt_min             =   1.8518391054920E+01
(PID.TID 0000.0001) %MON dynstat_salt_mean            =   3.4772202970100E+01
(PID.TID 0000.0001) %MON dynstat_salt_sd              =   5.3092242009793E-01
(PID.TID 0000.0001) %MON dynstat_salt_del2            =   8.0239500917714E-04
(PID.TID 0000.0001) %MON dynstat_sst_max              =   3.0925740312146E+01
(PID.TID 0000.0001) %MON dynstat_sst_min              =  -1.8999618456133E+00
(PID.TID 0000.0001) %MON dynstat_sst_mean             =   1.8098234409939E+01
(PID.TID 0000.0001) %MON dynstat_sst_sd               =   9.8002916064461E+00
(PID.TID 0000.0001) %MON dynstat_sst_del2             =   1.5369049936221E-02
(PID.TID 0000.0001) %MON dynstat_sss_max              =   4.1377503920726E+01
(PID.TID 0000.0001) %MON dynstat_sss_min              =   1.8753349861675E+01
(PID.TID 0000.0001) %MON dynstat_sss_mean             =   3.4642326402812E+01
(PID.TID 0000.0001) %MON dynstat_sss_sd               =   1.4568042510706E+00
(PID.TID 0000.0001) %MON dynstat_sss_del2             =   8.0070782289194E-03
(PID.TID 0000.0001) %MON forcing_qnet_max             =   7.0874742187500E+04
(PID.TID 0000.0001) %MON forcing_qnet_min             =  -7.0542187500000E+04
(PID.TID 0000.0001) %MON forcing_qnet_mean            =  -2.5356552592317E+02
(PID.TID 0000.0001) %MON forcing_qnet_sd              =   3.4943014452284E+03
(PID.TID 0000.0001) %MON forcing_qnet_del2            =   1.2109842854144E+02
(PID.TID 0000.0001) %MON forcing_qsw_max              =   0.0000000000000E+00
(PID.TID 0000.0001) %MON forcing_qsw_min              =   0.0000000000000E+00
(PID.TID 0000.0001) %MON forcing_qsw_mean             =   0.0000000000000E+00
(PID.TID 0000.0001) %MON forcing_qsw_sd               =   0.0000000000000E+00
(PID.TID 0000.0001) %MON forcing_qsw_del2             =   0.0000000000000E+00
(PID.TID 0000.0001) %MON forcing_empmr_max            =   7.3232322931290E-02
(PID.TID 0000.0001) %MON forcing_empmr_min            =  -9.1729259490967E-01
(PID.TID 0000.0001) %MON forcing_empmr_mean           =  -7.6409337848025E-04
(PID.TID 0000.0001) %MON forcing_empmr_sd             =   1.6173151597922E-02
(PID.TID 0000.0001) %MON forcing_empmr_del2           =   6.3148323925377E-04
(PID.TID 0000.0001) %MON forcing_fu_max               =   5.2677829465581E-01
(PID.TID 0000.0001) %MON forcing_fu_min               =  -4.5880423782345E-01
(PID.TID 0000.0001) %MON forcing_fu_mean              =  -4.1814237346585E-03
(PID.TID 0000.0001) %MON forcing_fu_sd                =   6.9375254978744E-02
(PID.TID 0000.0001) %MON forcing_fu_del2              =   6.8235245862431E-04
(PID.TID 0000.0001) %MON forcing_fv_max               =   2.9868584949626E-01
(PID.TID 0000.0001) %MON forcing_fv_min               =  -3.9323508454932E-01
(PID.TID 0000.0001) %MON forcing_fv_mean              =  -1.3672568887233E-02
(PID.TID 0000.0001) %MON forcing_fv_sd                =   6.6233499231519E-02
(PID.TID 0000.0001) %MON forcing_fv_del2              =   5.5204045430852E-04
(PID.TID 0000.0001) %MON trAdv_CFL_u_max              =   3.0272020545549E-05
(PID.TID 0000.0001) %MON trAdv_CFL_v_max              =   4.0160666030913E-05
(PID.TID 0000.0001) %MON trAdv_CFL_w_max              =   4.1070245876770E-04
(PID.TID 0000.0001) %MON advcfl_uvel_max              =   3.2145981483778E-05
(PID.TID 0000.0001) %MON advcfl_vvel_max              =   2.4061347302616E-05
(PID.TID 0000.0001) %MON advcfl_wvel_max              =   8.8627303856007E-04
(PID.TID 0000.0001) %MON advcfl_W_hf_max              =   4.1070245876770E-04
(PID.TID 0000.0001) %MON pe_b_mean                    =   5.6524638840730E-04
(PID.TID 0000.0001) %MON ke_max                       =   4.8471887895969E-02
(PID.TID 0000.0001) %MON ke_mean                      =   1.4282833022330E-04
(PID.TID 0000.0001) %MON ke_vol                       =   1.3398056066203E+18
(PID.TID 0000.0001) %MON vort_r_min                   =  -1.1880852331485E-06
(PID.TID 0000.0001) %MON vort_r_max                   =   1.2218448067967E-06
(PID.TID 0000.0001) %MON vort_a_mean                  =  -2.0549865324846E-05
(PID.TID 0000.0001) %MON vort_a_sd                    =   7.5259518743704E-05
(PID.TID 0000.0001) %MON vort_p_mean                  =  -2.4783429842751E-05
(PID.TID 0000.0001) %MON vort_p_sd                    =   1.2811970546443E-04
(PID.TID 0000.0001) %MON surfExpan_theta_mean         =  -6.3604496371426E-06
(PID.TID 0000.0001) %MON surfExpan_salt_mean          =   5.6435182181760E-07
(PID.TID 0000.0001) // =======================================================
(PID.TID 0000.0001) // End MONITOR dynamic field statistics
(PID.TID 0000.0001) // =======================================================
 cg2d: Sum(rhs),rhsMax =  -4.14149651272906E+00  2.34948528331290E+05
(PID.TID 0000.0001)      cg2d_init_res =   3.64097841035116E-03
(PID.TID 0000.0001)      cg2d_iters(min,last) =      -1       1
(PID.TID 0000.0001)      cg2d_last_res =   2.98502081435104E-08
(PID.TID 0000.0001) // =======================================================
(PID.TID 0000.0001) // Begin MONITOR dynamic field statistics
(PID.TID 0000.0001) // =======================================================
(PID.TID 0000.0001) %MON time_tsnumber                =                 72037
(PID.TID 0000.0001) %MON time_secondsf                =   1.8009250000000E+06
(PID.TID 0000.0001) %MON dynstat_eta_max              =   8.9069776816976E+00
(PID.TID 0000.0001) %MON dynstat_eta_min              =  -1.7440802435802E+00
(PID.TID 0000.0001) %MON dynstat_eta_mean             =   8.7242118044728E-03
(PID.TID 0000.0001) %MON dynstat_eta_sd               =   6.5126344434473E-01
(PID.TID 0000.0001) %MON dynstat_eta_del2             =   8.5136575589519E-03
(PID.TID 0000.0001) %MON dynstat_uvel_max             =   3.3679115312924E-01
(PID.TID 0000.0001) %MON dynstat_uvel_min             =  -2.8723700211870E-01
(PID.TID 0000.0001) %MON dynstat_uvel_mean            =  -4.7512723718558E-04
(PID.TID 0000.0001) %MON dynstat_uvel_sd              =   1.2122559896152E-02
(PID.TID 0000.0001) %MON dynstat_uvel_del2            =   5.8173748985201E-05
(PID.TID 0000.0001) %MON dynstat_vvel_max             =   2.6220724443685E-01
(PID.TID 0000.0001) %MON dynstat_vvel_min             =  -2.6961509410764E-01
(PID.TID 0000.0001) %MON dynstat_vvel_mean            =  -3.9516731805624E-04
(PID.TID 0000.0001) %MON dynstat_vvel_sd              =   1.2737616590031E-02
(PID.TID 0000.0001) %MON dynstat_vvel_del2            =   6.4853760802003E-05
(PID.TID 0000.0001) %MON dynstat_wvel_max             =   1.0329322612025E-04
(PID.TID 0000.0001) %MON dynstat_wvel_min             =  -8.8372777625558E-04
(PID.TID 0000.0001) %MON dynstat_wvel_mean            =  -1.1613617522590E-07
(PID.TID 0000.0001) %MON dynstat_wvel_sd              =   6.8381674489663E-06
(PID.TID 0000.0001) %MON dynstat_wvel_del2            =   8.5362380493911E-08
(PID.TID 0000.0001) %MON dynstat_theta_max            =   3.0925734256398E+01
(PID.TID 0000.0001) %MON dynstat_theta_min            =  -3.0176503819892E+00
(PID.TID 0000.0001) %MON dynstat_theta_mean           =   3.9089206131087E+00
(PID.TID 0000.0001) %MON dynstat_theta_sd             =   4.5705505127060E+00
(PID.TID 0000.0001) %MON dynstat_theta_del2           =   2.6560948969870E-03
(PID.TID 0000.0001) %MON dynstat_salt_max             =   4.1377499961242E+01
(PID.TID 0000.0001) %MON dynstat_salt_min             =   1.8518391318488E+01
(PID.TID 0000.0001) %MON dynstat_salt_mean            =   3.4772202745654E+01
(PID.TID 0000.0001) %MON dynstat_salt_sd              =   5.3092272345486E-01
(PID.TID 0000.0001) %MON dynstat_salt_del2            =   8.0239973118568E-04
(PID.TID 0000.0001) %MON dynstat_sst_max              =   3.0925734256398E+01
(PID.TID 0000.0001) %MON dynstat_sst_min              =  -1.8999608166838E+00
(PID.TID 0000.0001) %MON dynstat_sst_mean             =   1.8098272135323E+01
(PID.TID 0000.0001) %MON dynstat_sst_sd               =   9.8002562379210E+00
(PID.TID 0000.0001) %MON dynstat_sst_del2             =   1.5368132450561E-02
(PID.TID 0000.0001) %MON dynstat_sss_max              =   4.1377499961242E+01
(PID.TID 0000.0001) %MON dynstat_sss_min              =   1.8753348094094E+01
(PID.TID 0000.0001) %MON dynstat_sss_mean             =   3.4642310038098E+01
(PID.TID 0000.0001) %MON dynstat_sss_sd               =   1.4568162966019E+00
(PID.TID 0000.0001) %MON dynstat_sss_del2             =   8.0071343513744E-03
(PID.TID 0000.0001) %MON forcing_qnet_max             =   4.9233238281250E+04
(PID.TID 0000.0001) %MON forcing_qnet_min             =  -4.8984222656250E+04
(PID.TID 0000.0001) %MON forcing_qnet_mean            =  -2.9482970285035E+02
(PID.TID 0000.0001) %MON forcing_qnet_sd              =   3.0225982905763E+03
(PID.TID 0000.0001) %MON forcing_qnet_del2            =   9.8839520663856E+01
(PID.TID 0000.0001) %MON forcing_qsw_max              =   0.0000000000000E+00
(PID.TID 0000.0001) %MON forcing_qsw_min              =   0.0000000000000E+00
(PID.TID 0000.0001) %MON forcing_qsw_mean             =   0.0000000000000E+00
(PID.TID 0000.0001) %MON forcing_qsw_sd               =   0.0000000000000E+00
(PID.TID 0000.0001) %MON forcing_qsw_del2             =   0.0000000000000E+00
(PID.TID 0000.0001) %MON forcing_empmr_max            =   7.2583846747875E-02
(PID.TID 0000.0001) %MON forcing_empmr_min            =  -9.1465824842453E-01
(PID.TID 0000.0001) %MON forcing_empmr_mean           =  -7.5673858461744E-04
(PID.TID 0000.0001) %MON forcing_empmr_sd             =   1.6133102551807E-02
(PID.TID 0000.0001) %MON forcing_empmr_del2           =   6.3003131787258E-04
(PID.TID 0000.0001) %MON forcing_fu_max               =   5.2677829465581E-01
(PID.TID 0000.0001) %MON forcing_fu_min               =  -4.5880423782345E-01
(PID.TID 0000.0001) %MON forcing_fu_mean              =  -4.1814237346585E-03
(PID.TID 0000.0001) %MON forcing_fu_sd                =   6.9375254978744E-02
(PID.TID 0000.0001) %MON forcing_fu_del2              =   6.8235245862431E-04
(PID.TID 0000.0001) %MON forcing_fv_max               =   2.9868584949626E-01
(PID.TID 0000.0001) %MON forcing_fv_min               =  -3.9323508454932E-01
(PID.TID 0000.0001) %MON forcing_fv_mean              =  -1.3672568887233E-02
(PID.TID 0000.0001) %MON forcing_fv_sd                =   6.6233499231519E-02
(PID.TID 0000.0001) %MON forcing_fv_del2              =   5.5204045430852E-04
(PID.TID 0000.0001) %MON trAdv_CFL_u_max              =   3.0913192817118E-05
(PID.TID 0000.0001) %MON trAdv_CFL_v_max              =   4.1414837982642E-05
(PID.TID 0000.0001) %MON trAdv_CFL_w_max              =   4.0943266341460E-04
(PID.TID 0000.0001) %MON advcfl_uvel_max              =   3.2825449440951E-05
(PID.TID 0000.0001) %MON advcfl_vvel_max              =   2.4621340221006E-05
(PID.TID 0000.0001) %MON advcfl_wvel_max              =   8.8372777625558E-04
(PID.TID 0000.0001) %MON advcfl_W_hf_max              =   4.0943266341460E-04
(PID.TID 0000.0001) %MON pe_b_mean                    =   5.6513834545858E-04
(PID.TID 0000.0001) %MON ke_max                       =   5.0989550512565E-02
(PID.TID 0000.0001) %MON ke_mean                      =   1.4295935356768E-04
(PID.TID 0000.0001) %MON ke_vol                       =   1.3398056133364E+18
(PID.TID 0000.0001) %MON vort_r_min                   =  -1.1881993819722E-06
(PID.TID 0000.0001) %MON vort_r_max                   =   1.2220363203121E-06
(PID.TID 0000.0001) %MON vort_a_mean                  =  -2.0549865324846E-05
(PID.TID 0000.0001) %MON vort_a_sd                    =   7.5259518805414E-05
(PID.TID 0000.0001) %MON vort_p_mean                  =  -2.4783429718710E-05
(PID.TID 0000.0001) %MON vort_p_sd                    =   1.2811970393504E-04
(PID.TID 0000.0001) %MON surfExpan_theta_mean         =  -6.0634862062823E-06
(PID.TID 0000.0001) %MON surfExpan_salt_mean          =   5.7634156539310E-07
(PID.TID 0000.0001) // =======================================================
(PID.TID 0000.0001) // End MONITOR dynamic field statistics
(PID.TID 0000.0001) // =======================================================
 cg2d: Sum(rhs),rhsMax =  -4.15173735748600E+00  2.34856336049095E+05
(PID.TID 0000.0001)      cg2d_init_res =   3.67323905332024E-03
(PID.TID 0000.0001)      cg2d_iters(min,last) =      -1       1
(PID.TID 0000.0001)      cg2d_last_res =   3.03735844712521E-08
(PID.TID 0000.0001) // =======================================================
(PID.TID 0000.0001) // Begin MONITOR dynamic field statistics
(PID.TID 0000.0001) // =======================================================
(PID.TID 0000.0001) %MON time_tsnumber                =                 72038
(PID.TID 0000.0001) %MON time_secondsf                =   1.8009500000000E+06
(PID.TID 0000.0001) %MON dynstat_eta_max              =   8.9027817310569E+00
(PID.TID 0000.0001) %MON dynstat_eta_min              =  -1.7428625236394E+00
(PID.TID 0000.0001) %MON dynstat_eta_mean             =   8.7423527241316E-03
(PID.TID 0000.0001) %MON dynstat_eta_sd               =   6.5119880572849E-01
(PID.TID 0000.0001) %MON dynstat_eta_del2             =   8.5044563252102E-03
(PID.TID 0000.0001) %MON dynstat_uvel_max             =   3.4375002802600E-01
(PID.TID 0000.0001) %MON dynstat_uvel_min             =  -2.8721405170874E-01
(PID.TID 0000.0001) %MON dynstat_uvel_mean            =  -4.7468452384337E-04
(PID.TID 0000.0001) %MON dynstat_uvel_sd              =   1.2128378927285E-02
(PID.TID 0000.0001) %MON dynstat_uvel_del2            =   5.8549163033124E-05
(PID.TID 0000.0001) %MON dynstat_vvel_max             =   2.6987001589027E-01
(PID.TID 0000.0001) %MON dynstat_vvel_min             =  -2.7649945260794E-01
(PID.TID 0000.0001) %MON dynstat_vvel_mean            =  -3.9490514317699E-04
(PID.TID 0000.0001) %MON dynstat_vvel_sd              =   1.2743526596952E-02
(PID.TID 0000.0001) %MON dynstat_vvel_del2            =   6.5607497454045E-05
(PID.TID 0000.0001) %MON dynstat_wvel_max             =   1.0329745210922E-04
(PID.TID 0000.0001) %MON dynstat_wvel_min             =  -8.8122058029912E-04
(PID.TID 0000.0001) %MON dynstat_wvel_mean            =  -1.1401206206282E-07
(PID.TID 0000.0001) %MON dynstat_wvel_sd              =   6.9002026169900E-06
(PID.TID 0000.0001) %MON dynstat_wvel_del2            =   8.5580627455653E-08
(PID.TID 0000.0001) %MON dynstat_theta_max            =   3.0925728201339E+01
(PID.TID 0000.0001) %MON dynstat_theta_min            =  -3.0176515960248E+00
(PID.TID 0000.0001) %MON dynstat_theta_mean           =   3.9089212251457E+00
(PID.TID 0000.0001) %MON dynstat_theta_sd             =   4.5705515036743E+00
(PID.TID 0000.0001) %MON dynstat_theta_del2           =   2.6560660435538E-03
(PID.TID 0000.0001) %MON dynstat_salt_max             =   4.1377495829417E+01
(PID.TID 0000.0001) %MON dynstat_salt_min             =   1.8518391582150E+01
(PID.TID 0000.0001) %MON dynstat_salt_mean            =   3.4772202520437E+01
(PID.TID 0000.0001) %MON dynstat_salt_sd              =   5.3092302993758E-01
(PID.TID 0000.0001) %MON dynstat_salt_del2            =   8.0240507618338E-04
(PID.TID 0000.0001) %MON dynstat_sst_max              =   3.0925728201339E+01
(PID.TID 0000.0001) %MON dynstat_sst_min              =  -1.8999597873261E+00
(PID.TID 0000.0001) %MON dynstat_sst_mean             =   1.8098312879705E+01
(PID.TID 0000.0001) %MON dynstat_sst_sd               =   9.8002273648328E+00
(PID.TID 0000.0001) %MON dynstat_sst_del2             =   1.5367258684795E-02
(PID.TID 0000.0001) %MON dynstat_sss_max              =   4.1377495829417E+01
(PID.TID 0000.0001) %MON dynstat_sss_min              =   1.8753346822364E+01
(PID.TID 0000.0001) %MON dynstat_sss_mean             =   3.4642293673875E+01
(PID.TID 0000.0001) %MON dynstat_sss_sd               =   1.4568277513887E+00
(PID.TID 0000.0001) %MON dynstat_sss_del2             =   8.0072021002434E-03
(PID.TID 0000.0001) %MON forcing_qnet_max             =   3.4182613281250E+04
(PID.TID 0000.0001) %MON forcing_qnet_min             =  -4.1370859375000E+04
(PID.TID 0000.0001) %MON forcing_qnet_mean            =  -3.1981029488980E+02
(PID.TID 0000.0001) %MON forcing_qnet_sd              =   2.6954032735251E+03
(PID.TID 0000.0001) %MON forcing_qnet_del2            =   8.4808000917190E+01
(PID.TID 0000.0001) %MON forcing_qsw_max              =   0.0000000000000E+00
(PID.TID 0000.0001) %MON forcing_qsw_min              =   0.0000000000000E+00
(PID.TID 0000.0001) %MON forcing_qsw_mean             =   0.0000000000000E+00
(PID.TID 0000.0001) %MON forcing_qsw_sd               =   0.0000000000000E+00
(PID.TID 0000.0001) %MON forcing_qsw_del2             =   0.0000000000000E+00
(PID.TID 0000.0001) %MON forcing_empmr_max            =   7.1943446993828E-02
(PID.TID 0000.0001) %MON forcing_empmr_min            =  -9.1206330060959E-01
(PID.TID 0000.0001) %MON forcing_empmr_mean           =  -7.5103407386493E-04
(PID.TID 0000.0001) %MON forcing_empmr_sd             =   1.6094643574729E-02
(PID.TID 0000.0001) %MON forcing_empmr_del2           =   6.2860621095519E-04
(PID.TID 0000.0001) %MON forcing_fu_max               =   5.2677829465581E-01
(PID.TID 0000.0001) %MON forcing_fu_min               =  -4.5880423782345E-01
(PID.TID 0000.0001) %MON forcing_fu_mean              =  -4.1814237346585E-03
(PID.TID 0000.0001) %MON forcing_fu_sd                =   6.9375254978744E-02
(PID.TID 0000.0001) %MON forcing_fu_del2              =   6.8235245862431E-04
(PID.TID 0000.0001) %MON forcing_fv_max               =   2.9868584949626E-01
(PID.TID 0000.0001) %MON forcing_fv_min               =  -3.9323508454932E-01
(PID.TID 0000.0001) %MON forcing_fv_mean              =  -1.3672568887233E-02
(PID.TID 0000.0001) %MON forcing_fv_sd                =   6.6233499231519E-02
(PID.TID 0000.0001) %MON forcing_fv_del2              =   5.5204045430852E-04
(PID.TID 0000.0001) %MON trAdv_CFL_u_max              =   3.1553310328673E-05
(PID.TID 0000.0001) %MON trAdv_CFL_v_max              =   4.2666100670624E-05
(PID.TID 0000.0001) %MON trAdv_CFL_w_max              =   4.0817907691472E-04
(PID.TID 0000.0001) %MON advcfl_uvel_max              =   3.3503698242819E-05
(PID.TID 0000.0001) %MON advcfl_vvel_max              =   2.5176970418177E-05
(PID.TID 0000.0001) %MON advcfl_wvel_max              =   8.8122058029912E-04
(PID.TID 0000.0001) %MON advcfl_W_hf_max              =   4.0817907691472E-04
(PID.TID 0000.0001) %MON pe_b_mean                    =   5.6502660925109E-04
(PID.TID 0000.0001) %MON ke_max                       =   5.3568394434568E-02
(PID.TID 0000.0001) %MON ke_mean                      =   1.4309373499722E-04
(PID.TID 0000.0001) %MON ke_vol                       =   1.3398056199877E+18
(PID.TID 0000.0001) %MON vort_r_min                   =  -1.1883137754908E-06
(PID.TID 0000.0001) %MON vort_r_max                   =   1.2222283901839E-06
(PID.TID 0000.0001) %MON vort_a_mean                  =  -2.0549865324846E-05
(PID.TID 0000.0001) %MON vort_a_sd                    =   7.5259518867984E-05
(PID.TID 0000.0001) %MON vort_p_mean                  =  -2.4783429595608E-05
(PID.TID 0000.0001) %MON vort_p_sd                    =   1.2811970238858E-04
(PID.TID 0000.0001) %MON surfExpan_theta_mean         =  -5.8544607818782E-06
(PID.TID 0000.0001) %MON surfExpan_salt_mean          =   5.8529971622344E-07
(PID.TID 0000.0001) // =======================================================
(PID.TID 0000.0001) // End MONITOR dynamic field statistics
(PID.TID 0000.0001) // =======================================================
 cg2d: Sum(rhs),rhsMax =  -4.16197998693535E+00  2.34761598205790E+05
(PID.TID 0000.0001)      cg2d_init_res =   3.70586601688289E-03
(PID.TID 0000.0001)      cg2d_iters(min,last) =      -1       1
(PID.TID 0000.0001)      cg2d_last_res =   3.08922896501135E-08
(PID.TID 0000.0001) // =======================================================
(PID.TID 0000.0001) // Begin MONITOR dynamic field statistics
(PID.TID 0000.0001) // =======================================================
(PID.TID 0000.0001) %MON time_tsnumber                =                 72039
(PID.TID 0000.0001) %MON time_secondsf                =   1.8009750000000E+06
(PID.TID 0000.0001) %MON dynstat_eta_max              =   8.8984696132302E+00
(PID.TID 0000.0001) %MON dynstat_eta_min              =  -1.7416234040108E+00
(PID.TID 0000.0001) %MON dynstat_eta_mean             =   8.7603854799820E-03
(PID.TID 0000.0001) %MON dynstat_eta_sd               =   6.5113214449291E-01
(PID.TID 0000.0001) %MON dynstat_eta_del2             =   8.4950365831535E-03
(PID.TID 0000.0001) %MON dynstat_uvel_max             =   3.5069617575153E-01
(PID.TID 0000.0001) %MON dynstat_uvel_min             =  -2.8719110336808E-01
(PID.TID 0000.0001) %MON dynstat_uvel_mean            =  -4.7423845663374E-04
(PID.TID 0000.0001) %MON dynstat_uvel_sd              =   1.2134339654557E-02
(PID.TID 0000.0001) %MON dynstat_uvel_del2            =   5.8931497072413E-05
(PID.TID 0000.0001) %MON dynstat_vvel_max             =   2.7751823495904E-01
(PID.TID 0000.0001) %MON dynstat_vvel_min             =  -2.8337959890185E-01
(PID.TID 0000.0001) %MON dynstat_vvel_mean            =  -3.9464185058344E-04
(PID.TID 0000.0001) %MON dynstat_vvel_sd              =   1.2749577779688E-02
(PID.TID 0000.0001) %MON dynstat_vvel_del2            =   6.6371989947575E-05
(PID.TID 0000.0001) %MON dynstat_wvel_max             =   1.0330169657216E-04
(PID.TID 0000.0001) %MON dynstat_wvel_min             =  -8.7867537558367E-04
(PID.TID 0000.0001) %MON dynstat_wvel_mean            =  -1.1285919272468E-07
(PID.TID 0000.0001) %MON dynstat_wvel_sd              =   6.9633487848409E-06
(PID.TID 0000.0001) %MON dynstat_wvel_del2            =   8.5804736091767E-08
(PID.TID 0000.0001) %MON dynstat_theta_max            =   3.0925722146968E+01
(PID.TID 0000.0001) %MON dynstat_theta_min            =  -3.0176526648436E+00
(PID.TID 0000.0001) %MON dynstat_theta_mean           =   3.9089218594694E+00
(PID.TID 0000.0001) %MON dynstat_theta_sd             =   4.5705527080955E+00
(PID.TID 0000.0001) %MON dynstat_theta_del2           =   2.6560380675954E-03
(PID.TID 0000.0001) %MON dynstat_salt_max             =   4.1377491690868E+01
(PID.TID 0000.0001) %MON dynstat_salt_min             =   1.8518391846056E+01
(PID.TID 0000.0001) %MON dynstat_salt_mean            =   3.4772202294951E+01
(PID.TID 0000.0001) %MON dynstat_salt_sd              =   5.3092333909256E-01
(PID.TID 0000.0001) %MON dynstat_salt_del2            =   8.0241100283819E-04
(PID.TID 0000.0001) %MON dynstat_sst_max              =   3.0925722146968E+01
(PID.TID 0000.0001) %MON dynstat_sst_min              =  -1.8999587575278E+00
(PID.TID 0000.0001) %MON dynstat_sst_mean             =   1.8098355316520E+01
(PID.TID 0000.0001) %MON dynstat_sst_sd               =   9.8002033934244E+00
(PID.TID 0000.0001) %MON dynstat_sst_del2             =   1.5366418246737E-02
(PID.TID 0000.0001) %MON dynstat_sss_max              =   4.1377491690868E+01
(PID.TID 0000.0001) %MON dynstat_sss_min              =   1.8753345965240E+01
(PID.TID 0000.0001) %MON dynstat_sss_mean             =   3.4642277337958E+01
(PID.TID 0000.0001) %MON dynstat_sss_sd               =   1.4568386882951E+00
(PID.TID 0000.0001) %MON dynstat_sss_del2             =   8.0072806244237E-03
(PID.TID 0000.0001) %MON forcing_qnet_max             =   2.5925691406250E+04
(PID.TID 0000.0001) %MON forcing_qnet_min             =  -3.9950710937500E+04
(PID.TID 0000.0001) %MON forcing_qnet_mean            =  -3.3399934158272E+02
(PID.TID 0000.0001) %MON forcing_qnet_sd              =   2.4588116985386E+03
(PID.TID 0000.0001) %MON forcing_qnet_del2            =   7.5881120910422E+01
(PID.TID 0000.0001) %MON forcing_qsw_max              =   0.0000000000000E+00
(PID.TID 0000.0001) %MON forcing_qsw_min              =   0.0000000000000E+00
(PID.TID 0000.0001) %MON forcing_qsw_mean             =   0.0000000000000E+00
(PID.TID 0000.0001) %MON forcing_qsw_sd               =   0.0000000000000E+00
(PID.TID 0000.0001) %MON forcing_qsw_del2             =   0.0000000000000E+00
(PID.TID 0000.0001) %MON forcing_empmr_max            =   7.1307063102722E-02
(PID.TID 0000.0001) %MON forcing_empmr_min            =  -9.0942901372910E-01
(PID.TID 0000.0001) %MON forcing_empmr_mean           =  -7.4655609221633E-04
(PID.TID 0000.0001) %MON forcing_empmr_sd             =   1.6056238787435E-02
(PID.TID 0000.0001) %MON forcing_empmr_del2           =   6.2717130560183E-04
(PID.TID 0000.0001) %MON forcing_fu_max               =   5.2677829465581E-01
(PID.TID 0000.0001) %MON forcing_fu_min               =  -4.5880423782345E-01
(PID.TID 0000.0001) %MON forcing_fu_mean              =  -4.1814237346585E-03
(PID.TID 0000.0001) %MON forcing_fu_sd                =   6.9375254978744E-02
(PID.TID 0000.0001) %MON forcing_fu_del2              =   6.8235245862431E-04
(PID.TID 0000.0001) %MON forcing_fv_max               =   2.9868584949626E-01
(PID.TID 0000.0001) %MON forcing_fv_min               =  -3.9323508454932E-01
(PID.TID 0000.0001) %MON forcing_fv_mean              =  -1.3672568887233E-02
(PID.TID 0000.0001) %MON forcing_fv_sd                =   6.6233499231519E-02
(PID.TID 0000.0001) %MON forcing_fv_del2              =   5.5204045430852E-04
(PID.TID 0000.0001) %MON trAdv_CFL_u_max              =   3.2192355184218E-05
(PID.TID 0000.0001) %MON trAdv_CFL_v_max              =   4.3914417575986E-05
(PID.TID 0000.0001) %MON trAdv_CFL_w_max              =   4.0690652701194E-04
(PID.TID 0000.0001) %MON advcfl_uvel_max              =   3.4180706587175E-05
(PID.TID 0000.0001) %MON advcfl_vvel_max              =   2.5728154267769E-05
(PID.TID 0000.0001) %MON advcfl_wvel_max              =   8.7867537558367E-04
(PID.TID 0000.0001) %MON advcfl_W_hf_max              =   4.0690652701194E-04
(PID.TID 0000.0001) %MON pe_b_mean                    =   5.6491137359831E-04
(PID.TID 0000.0001) %MON ke_max                       =   5.6207910800888E-02
(PID.TID 0000.0001) %MON ke_mean                      =   1.4323142770667E-04
(PID.TID 0000.0001) %MON ke_vol                       =   1.3398056265890E+18
(PID.TID 0000.0001) %MON vort_r_min                   =  -1.1884284067518E-06
(PID.TID 0000.0001) %MON vort_r_max                   =   1.2224210176969E-06
(PID.TID 0000.0001) %MON vort_a_mean                  =  -2.0549865324846E-05
(PID.TID 0000.0001) %MON vort_a_sd                    =   7.5259518931414E-05
(PID.TID 0000.0001) %MON vort_p_mean                  =  -2.4783429473111E-05
(PID.TID 0000.0001) %MON vort_p_sd                    =   1.2811970083110E-04
(PID.TID 0000.0001) %MON surfExpan_theta_mean         =  -5.7090532192642E-06
(PID.TID 0000.0001) %MON surfExpan_salt_mean          =   5.9221333604709E-07
(PID.TID 0000.0001) // =======================================================
(PID.TID 0000.0001) // End MONITOR dynamic field statistics
(PID.TID 0000.0001) // =======================================================
 cg2d: Sum(rhs),rhsMax =  -4.17223494267037E+00  2.34664317699018E+05
(PID.TID 0000.0001)      cg2d_init_res =   3.73890329886735E-03
(PID.TID 0000.0001)      cg2d_iters(min,last) =      -1       1
(PID.TID 0000.0001)      cg2d_last_res =   3.14041164975027E-08
(PID.TID 0000.0001) // =======================================================
(PID.TID 0000.0001) // Begin MONITOR dynamic field statistics
(PID.TID 0000.0001) // =======================================================
(PID.TID 0000.0001) %MON time_tsnumber                =                 72040
(PID.TID 0000.0001) %MON time_secondsf                =   1.8010000000000E+06
(PID.TID 0000.0001) %MON dynstat_eta_max              =   8.8940414597263E+00
(PID.TID 0000.0001) %MON dynstat_eta_min              =  -1.7403470367138E+00
(PID.TID 0000.0001) %MON dynstat_eta_mean             =   8.7783316539433E-03
(PID.TID 0000.0001) %MON dynstat_eta_sd               =   6.5106354275714E-01
(PID.TID 0000.0001) %MON dynstat_eta_del2             =   8.4854014302880E-03
(PID.TID 0000.0001) %MON dynstat_uvel_max             =   3.5762937822673E-01
(PID.TID 0000.0001) %MON dynstat_uvel_min             =  -2.8716815710707E-01
(PID.TID 0000.0001) %MON dynstat_uvel_mean            =  -4.7378896610723E-04
(PID.TID 0000.0001) %MON dynstat_uvel_sd              =   1.2140440060690E-02
(PID.TID 0000.0001) %MON dynstat_uvel_del2            =   5.9320518743774E-05
(PID.TID 0000.0001) %MON dynstat_vvel_max             =   2.8515176915555E-01
(PID.TID 0000.0001) %MON dynstat_vvel_min             =  -2.9025542552154E-01
(PID.TID 0000.0001) %MON dynstat_vvel_mean            =  -3.9437741481516E-04
(PID.TID 0000.0001) %MON dynstat_vvel_sd              =   1.2755767646599E-02
(PID.TID 0000.0001) %MON dynstat_vvel_del2            =   6.7146664962465E-05
(PID.TID 0000.0001) %MON dynstat_wvel_max             =   1.0330595943717E-04
(PID.TID 0000.0001) %MON dynstat_wvel_min             =  -8.7616806444914E-04
(PID.TID 0000.0001) %MON dynstat_wvel_mean            =  -1.1241736381445E-07
(PID.TID 0000.0001) %MON dynstat_wvel_sd              =   7.0274853564137E-06
(PID.TID 0000.0001) %MON dynstat_wvel_del2            =   8.6036354744887E-08
(PID.TID 0000.0001) %MON dynstat_theta_max            =   3.0925716093281E+01
(PID.TID 0000.0001) %MON dynstat_theta_min            =  -3.0176535730694E+00
(PID.TID 0000.0001) %MON dynstat_theta_mean           =   3.9089225040962E+00
(PID.TID 0000.0001) %MON dynstat_theta_sd             =   4.5705540544908E+00
(PID.TID 0000.0001) %MON dynstat_theta_del2           =   2.6560107337556E-03
(PID.TID 0000.0001) %MON dynstat_salt_max             =   4.1377487445227E+01
(PID.TID 0000.0001) %MON dynstat_salt_min             =   1.8518392109998E+01
(PID.TID 0000.0001) %MON dynstat_salt_mean            =   3.4772202069584E+01
(PID.TID 0000.0001) %MON dynstat_salt_sd              =   5.3092365064288E-01
(PID.TID 0000.0001) %MON dynstat_salt_del2            =   8.0241749191100E-04
(PID.TID 0000.0001) %MON dynstat_sst_max              =   3.0925716093281E+01
(PID.TID 0000.0001) %MON dynstat_sst_min              =  -1.8999577272759E+00
(PID.TID 0000.0001) %MON dynstat_sst_mean             =   1.8098398528614E+01
(PID.TID 0000.0001) %MON dynstat_sst_sd               =   9.8001831644266E+00
(PID.TID 0000.0001) %MON dynstat_sst_del2             =   1.5365603674797E-02
(PID.TID 0000.0001) %MON dynstat_sss_max              =   4.1377487445227E+01
(PID.TID 0000.0001) %MON dynstat_sss_min              =   1.8753345347928E+01
(PID.TID 0000.0001) %MON dynstat_sss_mean             =   3.4642261050977E+01
(PID.TID 0000.0001) %MON dynstat_sss_sd               =   1.4568491740501E+00
(PID.TID 0000.0001) %MON dynstat_sss_del2             =   8.0073694432275E-03
(PID.TID 0000.0001) %MON forcing_qnet_max             =   2.3947125000000E+04
(PID.TID 0000.0001) %MON forcing_qnet_min             =  -3.8769707031250E+04
(PID.TID 0000.0001) %MON forcing_qnet_mean            =  -3.4072643041543E+02
(PID.TID 0000.0001) %MON forcing_qnet_sd              =   2.2792782925727E+03
(PID.TID 0000.0001) %MON forcing_qnet_del2            =   6.9945297626813E+01
(PID.TID 0000.0001) %MON forcing_qsw_max              =   0.0000000000000E+00
(PID.TID 0000.0001) %MON forcing_qsw_min              =   0.0000000000000E+00
(PID.TID 0000.0001) %MON forcing_qsw_mean             =   0.0000000000000E+00
(PID.TID 0000.0001) %MON forcing_qsw_sd               =   0.0000000000000E+00
(PID.TID 0000.0001) %MON forcing_qsw_del2             =   0.0000000000000E+00
(PID.TID 0000.0001) %MON forcing_empmr_max            =   7.0674702525139E-02
(PID.TID 0000.0001) %MON forcing_empmr_min            =  -9.0683394670486E-01
(PID.TID 0000.0001) %MON forcing_empmr_mean           =  -7.4297160198919E-04
(PID.TID 0000.0001) %MON forcing_empmr_sd             =   1.6018547947587E-02
(PID.TID 0000.0001) %MON forcing_empmr_del2           =   6.2574111362197E-04
(PID.TID 0000.0001) %MON forcing_fu_max               =   5.2677829465581E-01
(PID.TID 0000.0001) %MON forcing_fu_min               =  -4.5880423782345E-01
(PID.TID 0000.0001) %MON forcing_fu_mean              =  -4.1814237346585E-03
(PID.TID 0000.0001) %MON forcing_fu_sd                =   6.9375254978744E-02
(PID.TID 0000.0001) %MON forcing_fu_del2              =   6.8235245862431E-04
(PID.TID 0000.0001) %MON forcing_fv_max               =   2.9868584949626E-01
(PID.TID 0000.0001) %MON forcing_fv_min               =  -3.9323508454932E-01
(PID.TID 0000.0001) %MON forcing_fv_mean              =  -1.3672568887233E-02
(PID.TID 0000.0001) %MON forcing_fv_sd                =   6.6233499231519E-02
(PID.TID 0000.0001) %MON forcing_fv_del2              =   5.5204045430852E-04
(PID.TID 0000.0001) %MON trAdv_CFL_u_max              =   3.2830309515293E-05
(PID.TID 0000.0001) %MON trAdv_CFL_v_max              =   4.5159752295735E-05
(PID.TID 0000.0001) %MON trAdv_CFL_w_max              =   4.0565013322622E-04
(PID.TID 0000.0001) %MON advcfl_uvel_max              =   3.4856453218875E-05
(PID.TID 0000.0001) %MON advcfl_vvel_max              =   2.6274809297324E-05
(PID.TID 0000.0001) %MON advcfl_wvel_max              =   8.7616806444914E-04
(PID.TID 0000.0001) %MON advcfl_W_hf_max              =   4.0565013322622E-04
(PID.TID 0000.0001) %MON pe_b_mean                    =   5.6479278251226E-04
(PID.TID 0000.0001) %MON ke_max                       =   5.8907584050174E-02
(PID.TID 0000.0001) %MON ke_mean                      =   1.4337238439078E-04
(PID.TID 0000.0001) %MON ke_vol                       =   1.3398056331509E+18
(PID.TID 0000.0001) %MON vort_r_min                   =  -1.1885432686705E-06
(PID.TID 0000.0001) %MON vort_r_max                   =   1.2226142040946E-06
(PID.TID 0000.0001) %MON vort_a_mean                  =  -2.0549865324846E-05
(PID.TID 0000.0001) %MON vort_a_sd                    =   7.5259518995703E-05
(PID.TID 0000.0001) %MON vort_p_mean                  =  -2.4783429350976E-05
(PID.TID 0000.0001) %MON vort_p_sd                    =   1.2811969926695E-04
(PID.TID 0000.0001) %MON surfExpan_theta_mean         =  -5.6087206581578E-06
(PID.TID 0000.0001) %MON surfExpan_salt_mean          =   5.9754371547199E-07
(PID.TID 0000.0001) // =======================================================
(PID.TID 0000.0001) // End MONITOR dynamic field statistics
(PID.TID 0000.0001) // =======================================================
 cg2d: Sum(rhs),rhsMax =  -4.18251072857623E+00  2.34564497469553E+05
(PID.TID 0000.0001)      cg2d_init_res =   3.77229714798808E-03
(PID.TID 0000.0001)      cg2d_iters(min,last) =      -1       1
(PID.TID 0000.0001)      cg2d_last_res =   3.19064525284583E-08
(PID.TID 0000.0001) // =======================================================
(PID.TID 0000.0001) // Begin MONITOR dynamic field statistics
(PID.TID 0000.0001) // =======================================================
(PID.TID 0000.0001) %MON time_tsnumber                =                 72041
(PID.TID 0000.0001) %MON time_secondsf                =   1.8010250000000E+06
(PID.TID 0000.0001) %MON dynstat_eta_max              =   8.8894974047153E+00
(PID.TID 0000.0001) %MON dynstat_eta_min              =  -1.7390353416679E+00
(PID.TID 0000.0001) %MON dynstat_eta_mean             =   8.7962085071410E-03
(PID.TID 0000.0001) %MON dynstat_eta_sd               =   6.5099306629053E-01
(PID.TID 0000.0001) %MON dynstat_eta_del2             =   8.4755539434817E-03
(PID.TID 0000.0001) %MON dynstat_uvel_max             =   3.6454941784357E-01
(PID.TID 0000.0001) %MON dynstat_uvel_min             =  -2.8714521294099E-01
(PID.TID 0000.0001) %MON dynstat_uvel_mean            =  -4.7333598605100E-04
(PID.TID 0000.0001) %MON dynstat_uvel_sd              =   1.2146678107371E-02
(PID.TID 0000.0001) %MON dynstat_uvel_del2            =   5.9715999165525E-05
(PID.TID 0000.0001) %MON dynstat_vvel_max             =   2.9277048676449E-01
(PID.TID 0000.0001) %MON dynstat_vvel_min             =  -2.9712682509924E-01
(PID.TID 0000.0001) %MON dynstat_vvel_mean            =  -3.9411181090198E-04
(PID.TID 0000.0001) %MON dynstat_vvel_sd              =   1.2762093685954E-02
(PID.TID 0000.0001) %MON dynstat_vvel_del2            =   6.7930968648891E-05
(PID.TID 0000.0001) %MON dynstat_wvel_max             =   1.0331024062387E-04
(PID.TID 0000.0001) %MON dynstat_wvel_min             =  -8.7366081090365E-04
(PID.TID 0000.0001) %MON dynstat_wvel_mean            =  -1.1249288442650E-07
(PID.TID 0000.0001) %MON dynstat_wvel_sd              =   7.0923454099369E-06
(PID.TID 0000.0001) %MON dynstat_wvel_del2            =   8.6273747920497E-08
(PID.TID 0000.0001) %MON dynstat_theta_max            =   3.0925710040280E+01
(PID.TID 0000.0001) %MON dynstat_theta_min            =  -3.0176543212039E+00
(PID.TID 0000.0001) %MON dynstat_theta_mean           =   3.9089231514916E+00
(PID.TID 0000.0001) %MON dynstat_theta_sd             =   4.5705554948261E+00
(PID.TID 0000.0001) %MON dynstat_theta_del2           =   2.6559838975516E-03
(PID.TID 0000.0001) %MON dynstat_salt_max             =   4.1377483021581E+01
(PID.TID 0000.0001) %MON dynstat_salt_min             =   1.8518392374102E+01
(PID.TID 0000.0001) %MON dynstat_salt_mean            =   3.4772201844464E+01
(PID.TID 0000.0001) %MON dynstat_salt_sd              =   5.3092396429742E-01
(PID.TID 0000.0001) %MON dynstat_salt_del2            =   8.0242452961385E-04
(PID.TID 0000.0001) %MON dynstat_sst_max              =   3.0925710040280E+01
(PID.TID 0000.0001) %MON dynstat_sst_min              =  -1.8999566965581E+00
(PID.TID 0000.0001) %MON dynstat_sst_mean             =   1.8098441937163E+01
(PID.TID 0000.0001) %MON dynstat_sst_sd               =   9.8001658454737E+00
(PID.TID 0000.0001) %MON dynstat_sst_del2             =   1.5364810129064E-02
(PID.TID 0000.0001) %MON dynstat_sss_max              =   4.1377483021581E+01
(PID.TID 0000.0001) %MON dynstat_sss_min              =   1.8753344957300E+01
(PID.TID 0000.0001) %MON dynstat_sss_mean             =   3.4642244815980E+01
(PID.TID 0000.0001) %MON dynstat_sss_sd               =   1.4568592646057E+00
(PID.TID 0000.0001) %MON dynstat_sss_del2             =   8.0074681793733E-03
(PID.TID 0000.0001) %MON forcing_qnet_max             =   2.2124503906250E+04
(PID.TID 0000.0001) %MON forcing_qnet_min             =  -3.7627789062500E+04
(PID.TID 0000.0001) %MON forcing_qnet_mean            =  -3.4274791189449E+02
(PID.TID 0000.0001) %MON forcing_qnet_sd              =   2.1365915023139E+03
(PID.TID 0000.0001) %MON forcing_qnet_del2            =   6.5724353328594E+01
(PID.TID 0000.0001) %MON forcing_qsw_max              =   0.0000000000000E+00
(PID.TID 0000.0001) %MON forcing_qsw_min              =   0.0000000000000E+00
(PID.TID 0000.0001) %MON forcing_qsw_mean             =   0.0000000000000E+00
(PID.TID 0000.0001) %MON forcing_qsw_sd               =   0.0000000000000E+00
(PID.TID 0000.0001) %MON forcing_qsw_del2             =   0.0000000000000E+00
(PID.TID 0000.0001) %MON forcing_empmr_max            =   7.0050403475761E-02
(PID.TID 0000.0001) %MON forcing_empmr_min            =  -9.0423893928528E-01
(PID.TID 0000.0001) %MON forcing_empmr_mean           =  -7.4010172238085E-04
(PID.TID 0000.0001) %MON forcing_empmr_sd             =   1.5981274092922E-02
(PID.TID 0000.0001) %MON forcing_empmr_del2           =   6.2432156601070E-04
(PID.TID 0000.0001) %MON forcing_fu_max               =   5.2677829465581E-01
(PID.TID 0000.0001) %MON forcing_fu_min               =  -4.5880423782345E-01
(PID.TID 0000.0001) %MON forcing_fu_mean              =  -4.1814237346585E-03
(PID.TID 0000.0001) %MON forcing_fu_sd                =   6.9375254978744E-02
(PID.TID 0000.0001) %MON forcing_fu_del2              =   6.8235245862431E-04
(PID.TID 0000.0001) %MON forcing_fv_max               =   2.9868584949626E-01
(PID.TID 0000.0001) %MON forcing_fv_min               =  -3.9323508454932E-01
(PID.TID 0000.0001) %MON forcing_fv_mean              =  -1.3672568887233E-02
(PID.TID 0000.0001) %MON forcing_fv_sd                =   6.6233499231519E-02
(PID.TID 0000.0001) %MON forcing_fv_del2              =   5.5204045430852E-04
(PID.TID 0000.0001) %MON trAdv_CFL_u_max              =   3.3467155479608E-05
(PID.TID 0000.0001) %MON trAdv_CFL_v_max              =   4.6402068542574E-05
(PID.TID 0000.0001) %MON trAdv_CFL_w_max              =   4.0439240987643E-04
(PID.TID 0000.0001) %MON advcfl_uvel_max              =   3.5530916928688E-05
(PID.TID 0000.0001) %MON advcfl_vvel_max              =   2.6816854189241E-05
(PID.TID 0000.0001) %MON advcfl_wvel_max              =   8.7366081090365E-04
(PID.TID 0000.0001) %MON advcfl_W_hf_max              =   4.0439240987643E-04
(PID.TID 0000.0001) %MON pe_b_mean                    =   5.6467095152157E-04
(PID.TID 0000.0001) %MON ke_max                       =   6.1666891996304E-02
(PID.TID 0000.0001) %MON ke_mean                      =   1.4351655727950E-04
(PID.TID 0000.0001) %MON ke_vol                       =   1.3398056396812E+18
(PID.TID 0000.0001) %MON vort_r_min                   =  -1.1886583541082E-06
(PID.TID 0000.0001) %MON vort_r_max                   =   1.2228079507612E-06
(PID.TID 0000.0001) %MON vort_a_mean                  =  -2.0549865324846E-05
(PID.TID 0000.0001) %MON vort_a_sd                    =   7.5259519060849E-05
(PID.TID 0000.0001) %MON vort_p_mean                  =  -2.4783429229028E-05
(PID.TID 0000.0001) %MON vort_p_sd                    =   1.2811969769906E-04
(PID.TID 0000.0001) %MON surfExpan_theta_mean         =  -5.5407987873411E-06
(PID.TID 0000.0001) %MON surfExpan_salt_mean          =   6.0188157805394E-07
(PID.TID 0000.0001) // =======================================================
(PID.TID 0000.0001) // End MONITOR dynamic field statistics
(PID.TID 0000.0001) // =======================================================
 cg2d: Sum(rhs),rhsMax =  -4.19281264388889E+00  2.34462140501152E+05
(PID.TID 0000.0001)      cg2d_init_res =   3.80595616701721E-03
(PID.TID 0000.0001)      cg2d_iters(min,last) =      -1       1
(PID.TID 0000.0001)      cg2d_last_res =   3.23991553556295E-08
(PID.TID 0000.0001) // =======================================================
(PID.TID 0000.0001) // Begin MONITOR dynamic field statistics
(PID.TID 0000.0001) // =======================================================
(PID.TID 0000.0001) %MON time_tsnumber                =                 72042
(PID.TID 0000.0001) %MON time_secondsf                =   1.8010500000000E+06
(PID.TID 0000.0001) %MON dynstat_eta_max              =   8.8848375850193E+00
(PID.TID 0000.0001) %MON dynstat_eta_min              =  -1.7376897035765E+00
(PID.TID 0000.0001) %MON dynstat_eta_mean             =   8.8140265337670E-03
(PID.TID 0000.0001) %MON dynstat_eta_sd               =   6.5092076594086E-01
(PID.TID 0000.0001) %MON dynstat_eta_del2             =   8.4654971726393E-03
(PID.TID 0000.0001) %MON dynstat_uvel_max             =   3.7145607748941E-01
(PID.TID 0000.0001) %MON dynstat_uvel_min             =  -2.8712227088336E-01
(PID.TID 0000.0001) %MON dynstat_uvel_mean            =  -4.7287945234339E-04
(PID.TID 0000.0001) %MON dynstat_uvel_sd              =   1.2153051737105E-02
(PID.TID 0000.0001) %MON dynstat_uvel_del2            =   6.0117713170716E-05
(PID.TID 0000.0001) %MON dynstat_vvel_max             =   3.0037425686081E-01
(PID.TID 0000.0001) %MON dynstat_vvel_min             =  -3.0399369036829E-01
(PID.TID 0000.0001) %MON dynstat_vvel_mean            =  -3.9384501555091E-04
(PID.TID 0000.0001) %MON dynstat_vvel_sd              =   1.2768553366680E-02
(PID.TID 0000.0001) %MON dynstat_vvel_del2            =   6.8724366395644E-05
(PID.TID 0000.0001) %MON dynstat_wvel_max             =   1.0331454010274E-04
(PID.TID 0000.0001) %MON dynstat_wvel_min             =  -8.7115361494719E-04
(PID.TID 0000.0001) %MON dynstat_wvel_mean            =  -1.1293680738086E-07
(PID.TID 0000.0001) %MON dynstat_wvel_sd              =   7.1578164927140E-06
(PID.TID 0000.0001) %MON dynstat_wvel_del2            =   8.6517244800481E-08
(PID.TID 0000.0001) %MON dynstat_theta_max            =   3.0925703987962E+01
(PID.TID 0000.0001) %MON dynstat_theta_min            =  -3.0176549023178E+00
(PID.TID 0000.0001) %MON dynstat_theta_mean           =   3.9089237966568E+00
(PID.TID 0000.0001) %MON dynstat_theta_sd             =   4.5705569954136E+00
(PID.TID 0000.0001) %MON dynstat_theta_del2           =   2.6559574897910E-03
(PID.TID 0000.0001) %MON dynstat_salt_max             =   4.1377478485049E+01
(PID.TID 0000.0001) %MON dynstat_salt_min             =   1.8518392638207E+01
(PID.TID 0000.0001) %MON dynstat_salt_mean            =   3.4772201619791E+01
(PID.TID 0000.0001) %MON dynstat_salt_sd              =   5.3092427993259E-01
(PID.TID 0000.0001) %MON dynstat_salt_del2            =   8.0243210597290E-04
(PID.TID 0000.0001) %MON dynstat_sst_max              =   3.0925703987962E+01
(PID.TID 0000.0001) %MON dynstat_sst_min              =  -1.8999556653615E+00
(PID.TID 0000.0001) %MON dynstat_sst_mean             =   1.8098485158483E+01
(PID.TID 0000.0001) %MON dynstat_sst_sd               =   9.8001508230031E+00
(PID.TID 0000.0001) %MON dynstat_sst_del2             =   1.5364034916017E-02
(PID.TID 0000.0001) %MON dynstat_sss_max              =   4.1377478485049E+01
(PID.TID 0000.0001) %MON dynstat_sss_min              =   1.8753344686535E+01
(PID.TID 0000.0001) %MON dynstat_sss_mean             =   3.4642228642177E+01
(PID.TID 0000.0001) %MON dynstat_sss_sd               =   1.4568690130418E+00
(PID.TID 0000.0001) %MON dynstat_sss_del2             =   8.0075765330034E-03
(PID.TID 0000.0001) %MON forcing_qnet_max             =   2.0438343750000E+04
(PID.TID 0000.0001) %MON forcing_qnet_min             =  -3.6524953125000E+04
(PID.TID 0000.0001) %MON forcing_qnet_mean            =  -3.4164984520258E+02
(PID.TID 0000.0001) %MON forcing_qnet_sd              =   2.0187976978008E+03
(PID.TID 0000.0001) %MON forcing_qnet_del2            =   6.2486901267691E+01
(PID.TID 0000.0001) %MON forcing_qsw_max              =   0.0000000000000E+00
(PID.TID 0000.0001) %MON forcing_qsw_min              =   0.0000000000000E+00
(PID.TID 0000.0001) %MON forcing_qsw_mean             =   0.0000000000000E+00
(PID.TID 0000.0001) %MON forcing_qsw_sd               =   0.0000000000000E+00
(PID.TID 0000.0001) %MON forcing_qsw_del2             =   0.0000000000000E+00
(PID.TID 0000.0001) %MON forcing_empmr_max            =   6.9430135190487E-02
(PID.TID 0000.0001) %MON forcing_empmr_min            =  -9.0164399147034E-01
(PID.TID 0000.0001) %MON forcing_empmr_mean           =  -7.3766630232917E-04
(PID.TID 0000.0001) %MON forcing_empmr_sd             =   1.5944004290119E-02
(PID.TID 0000.0001) %MON forcing_empmr_del2           =   6.2290621360026E-04
(PID.TID 0000.0001) %MON forcing_fu_max               =   5.2677829465581E-01
(PID.TID 0000.0001) %MON forcing_fu_min               =  -4.5880423782345E-01
(PID.TID 0000.0001) %MON forcing_fu_mean              =  -4.1814237346585E-03
(PID.TID 0000.0001) %MON forcing_fu_sd                =   6.9375254978744E-02
(PID.TID 0000.0001) %MON forcing_fu_del2              =   6.8235245862431E-04
(PID.TID 0000.0001) %MON forcing_fv_max               =   2.9868584949626E-01
(PID.TID 0000.0001) %MON forcing_fv_min               =  -3.9323508454932E-01
(PID.TID 0000.0001) %MON forcing_fv_mean              =  -1.3672568887233E-02
(PID.TID 0000.0001) %MON forcing_fv_sd                =   6.6233499231519E-02
(PID.TID 0000.0001) %MON forcing_fv_del2              =   5.5204045430852E-04
(PID.TID 0000.0001) %MON trAdv_CFL_u_max              =   3.4102875262995E-05
(PID.TID 0000.0001) %MON trAdv_CFL_v_max              =   4.7641330148472E-05
(PID.TID 0000.0001) %MON trAdv_CFL_w_max              =   4.0313337135341E-04
(PID.TID 0000.0001) %MON advcfl_uvel_max              =   3.6204076555668E-05
(PID.TID 0000.0001) %MON advcfl_vvel_max              =   2.7354208777009E-05
(PID.TID 0000.0001) %MON advcfl_wvel_max              =   8.7115361494719E-04
(PID.TID 0000.0001) %MON advcfl_W_hf_max              =   4.0313337135341E-04
(PID.TID 0000.0001) %MON pe_b_mean                    =   5.6454597010102E-04
(PID.TID 0000.0001) %MON ke_max                       =   6.4485305915263E-02
(PID.TID 0000.0001) %MON ke_mean                      =   1.4366389816038E-04
(PID.TID 0000.0001) %MON ke_vol                       =   1.3398056461864E+18
(PID.TID 0000.0001) %MON vort_r_min                   =  -1.1887736558432E-06
(PID.TID 0000.0001) %MON vort_r_max                   =   1.2230022590186E-06
(PID.TID 0000.0001) %MON vort_a_mean                  =  -2.0549865324846E-05
(PID.TID 0000.0001) %MON vort_a_sd                    =   7.5259519126850E-05
(PID.TID 0000.0001) %MON vort_p_mean                  =  -2.4783429107127E-05
(PID.TID 0000.0001) %MON vort_p_sd                    =   1.2811969612928E-04
(PID.TID 0000.0001) %MON surfExpan_theta_mean         =  -5.4943596468750E-06
(PID.TID 0000.0001) %MON surfExpan_salt_mean          =   6.0557856599117E-07
(PID.TID 0000.0001) // =======================================================
(PID.TID 0000.0001) // End MONITOR dynamic field statistics
(PID.TID 0000.0001) // =======================================================
 cg2d: Sum(rhs),rhsMax =  -4.20314449190390E+00  2.34357249820429E+05
(PID.TID 0000.0001)      cg2d_init_res =   3.83985465607723E-03
(PID.TID 0000.0001)      cg2d_iters(min,last) =      -1       1
(PID.TID 0000.0001)      cg2d_last_res =   3.28813788674389E-08
(PID.TID 0000.0001) // =======================================================
(PID.TID 0000.0001) // Begin MONITOR dynamic field statistics
(PID.TID 0000.0001) // =======================================================
(PID.TID 0000.0001) %MON time_tsnumber                =                 72043
(PID.TID 0000.0001) %MON time_secondsf                =   1.8010750000000E+06
(PID.TID 0000.0001) %MON dynstat_eta_max              =   8.8800621401033E+00
(PID.TID 0000.0001) %MON dynstat_eta_min              =  -1.7363113570695E+00
(PID.TID 0000.0001) %MON dynstat_eta_mean             =   8.8317930646281E-03
(PID.TID 0000.0001) %MON dynstat_eta_sd               =   6.5084668848965E-01
(PID.TID 0000.0001) %MON dynstat_eta_del2             =   8.4552341614281E-03
(PID.TID 0000.0001) %MON dynstat_uvel_max             =   3.7834914054743E-01
(PID.TID 0000.0001) %MON dynstat_uvel_min             =  -2.8835719064166E-01
(PID.TID 0000.0001) %MON dynstat_uvel_mean            =  -4.7241930365054E-04
(PID.TID 0000.0001) %MON dynstat_uvel_sd              =   1.2159558875106E-02
(PID.TID 0000.0001) %MON dynstat_uvel_del2            =   6.0525439462335E-05
(PID.TID 0000.0001) %MON dynstat_vvel_max             =   3.0796294931897E-01
(PID.TID 0000.0001) %MON dynstat_vvel_min             =  -3.1085591416540E-01
(PID.TID 0000.0001) %MON dynstat_vvel_mean            =  -3.9357700675861E-04
(PID.TID 0000.0001) %MON dynstat_vvel_sd              =   1.2775144140543E-02
(PID.TID 0000.0001) %MON dynstat_vvel_del2            =   6.9526342562584E-05
(PID.TID 0000.0001) %MON dynstat_wvel_max             =   1.0331885780203E-04
(PID.TID 0000.0001) %MON dynstat_wvel_min             =  -8.6864636140169E-04
(PID.TID 0000.0001) %MON dynstat_wvel_mean            =  -1.1362689239748E-07
(PID.TID 0000.0001) %MON dynstat_wvel_sd              =   7.2237758580230E-06
(PID.TID 0000.0001) %MON dynstat_wvel_del2            =   8.6764596109995E-08
(PID.TID 0000.0001) %MON dynstat_theta_max            =   3.0925697936326E+01
(PID.TID 0000.0001) %MON dynstat_theta_min            =  -3.0176553108503E+00
(PID.TID 0000.0001) %MON dynstat_theta_mean           =   3.9089244362842E+00
(PID.TID 0000.0001) %MON dynstat_theta_sd             =   4.5705585330583E+00
(PID.TID 0000.0001) %MON dynstat_theta_del2           =   2.6559314485729E-03
(PID.TID 0000.0001) %MON dynstat_salt_max             =   4.1377473806318E+01
(PID.TID 0000.0001) %MON dynstat_salt_min             =   1.8518392902656E+01
(PID.TID 0000.0001) %MON dynstat_salt_mean            =   3.4772201395606E+01
(PID.TID 0000.0001) %MON dynstat_salt_sd              =   5.3092459733262E-01
(PID.TID 0000.0001) %MON dynstat_salt_del2            =   8.0244021892909E-04
(PID.TID 0000.0001) %MON dynstat_sst_max              =   3.0925697936326E+01
(PID.TID 0000.0001) %MON dynstat_sst_min              =  -1.8999546336732E+00
(PID.TID 0000.0001) %MON dynstat_sst_mean             =   1.8098527937341E+01
(PID.TID 0000.0001) %MON dynstat_sst_sd               =   9.8001376613387E+00
(PID.TID 0000.0001) %MON dynstat_sst_del2             =   1.5363275662275E-02
(PID.TID 0000.0001) %MON dynstat_sss_max              =   4.1377473806318E+01
(PID.TID 0000.0001) %MON dynstat_sss_min              =   1.8753344474082E+01
(PID.TID 0000.0001) %MON dynstat_sss_mean             =   3.4642212527898E+01
(PID.TID 0000.0001) %MON dynstat_sss_sd               =   1.4568784623127E+00
(PID.TID 0000.0001) %MON dynstat_sss_del2             =   8.0076943463587E-03
(PID.TID 0000.0001) %MON forcing_qnet_max             =   1.8869146484375E+04
(PID.TID 0000.0001) %MON forcing_qnet_min             =  -3.5431933593750E+04
(PID.TID 0000.0001) %MON forcing_qnet_mean            =  -3.3847268975036E+02
(PID.TID 0000.0001) %MON forcing_qnet_sd              =   1.9184790269862E+03
(PID.TID 0000.0001) %MON forcing_qnet_del2            =   5.9814543588768E+01
(PID.TID 0000.0001) %MON forcing_qsw_max              =   0.0000000000000E+00
(PID.TID 0000.0001) %MON forcing_qsw_min              =   0.0000000000000E+00
(PID.TID 0000.0001) %MON forcing_qsw_mean             =   0.0000000000000E+00
(PID.TID 0000.0001) %MON forcing_qsw_sd               =   0.0000000000000E+00
(PID.TID 0000.0001) %MON forcing_qsw_del2             =   0.0000000000000E+00
(PID.TID 0000.0001) %MON forcing_empmr_max            =   6.8817920982838E-02
(PID.TID 0000.0001) %MON forcing_empmr_min            =  -8.9904898405075E-01
(PID.TID 0000.0001) %MON forcing_empmr_mean           =  -7.3553437764393E-04
(PID.TID 0000.0001) %MON forcing_empmr_sd             =   1.5906666189549E-02
(PID.TID 0000.0001) %MON forcing_empmr_del2           =   6.2148334782402E-04
(PID.TID 0000.0001) %MON forcing_fu_max               =   5.2677829465581E-01
(PID.TID 0000.0001) %MON forcing_fu_min               =  -4.5880423782345E-01
(PID.TID 0000.0001) %MON forcing_fu_mean              =  -4.1814237346585E-03
(PID.TID 0000.0001) %MON forcing_fu_sd                =   6.9375254978744E-02
(PID.TID 0000.0001) %MON forcing_fu_del2              =   6.8235245862431E-04
(PID.TID 0000.0001) %MON forcing_fv_max               =   2.9868584949626E-01
(PID.TID 0000.0001) %MON forcing_fv_min               =  -3.9323508454932E-01
(PID.TID 0000.0001) %MON forcing_fv_mean              =  -1.3672568887233E-02
(PID.TID 0000.0001) %MON forcing_fv_sd                =   6.6233499231519E-02
(PID.TID 0000.0001) %MON forcing_fv_del2              =   5.5204045430852E-04
(PID.TID 0000.0001) %MON trAdv_CFL_u_max              =   3.4737451079161E-05
(PID.TID 0000.0001) %MON trAdv_CFL_v_max              =   4.8877501066166E-05
(PID.TID 0000.0001) %MON trAdv_CFL_w_max              =   4.0187297892524E-04
(PID.TID 0000.0001) %MON advcfl_uvel_max              =   3.6875910987190E-05
(PID.TID 0000.0001) %MON advcfl_vvel_max              =   2.7916539981894E-05
(PID.TID 0000.0001) %MON advcfl_wvel_max              =   8.6864636140169E-04
(PID.TID 0000.0001) %MON advcfl_W_hf_max              =   4.0187297892524E-04
(PID.TID 0000.0001) %MON pe_b_mean                    =   5.6441792059064E-04
(PID.TID 0000.0001) %MON ke_max                       =   6.7362290626475E-02
(PID.TID 0000.0001) %MON ke_mean                      =   1.4381435841896E-04
(PID.TID 0000.0001) %MON ke_vol                       =   1.3398056526701E+18
(PID.TID 0000.0001) %MON vort_r_min                   =  -1.1888891665878E-06
(PID.TID 0000.0001) %MON vort_r_max                   =   1.2231971302831E-06
(PID.TID 0000.0001) %MON vort_a_mean                  =  -2.0549865324846E-05
(PID.TID 0000.0001) %MON vort_a_sd                    =   7.5259519193703E-05
(PID.TID 0000.0001) %MON vort_p_mean                  =  -2.4783428985188E-05
(PID.TID 0000.0001) %MON vort_p_sd                    =   1.2811969455914E-04
(PID.TID 0000.0001) %MON surfExpan_theta_mean         =  -5.4648462074597E-06
(PID.TID 0000.0001) %MON surfExpan_salt_mean          =   6.0864180795994E-07
(PID.TID 0000.0001) // =======================================================
(PID.TID 0000.0001) // End MONITOR dynamic field statistics
(PID.TID 0000.0001) // =======================================================
 cg2d: Sum(rhs),rhsMax =  -4.21351059440826E+00  2.34249828496819E+05
(PID.TID 0000.0001)      cg2d_init_res =   3.87399214049092E-03
(PID.TID 0000.0001)      cg2d_iters(min,last) =      -1       1
(PID.TID 0000.0001)      cg2d_last_res =   3.33558061217010E-08
(PID.TID 0000.0001) // =======================================================
(PID.TID 0000.0001) // Begin MONITOR dynamic field statistics
(PID.TID 0000.0001) // =======================================================
(PID.TID 0000.0001) %MON time_tsnumber                =                 72044
(PID.TID 0000.0001) %MON time_secondsf                =   1.8011000000000E+06
(PID.TID 0000.0001) %MON dynstat_eta_max              =   8.8751712120650E+00
(PID.TID 0000.0001) %MON dynstat_eta_min              =  -1.7349011553819E+00
(PID.TID 0000.0001) %MON dynstat_eta_mean             =   8.8495165040292E-03
(PID.TID 0000.0001) %MON dynstat_eta_sd               =   6.5077087248034E-01
(PID.TID 0000.0001) %MON dynstat_eta_del2             =   8.4447679486726E-03
(PID.TID 0000.0001) %MON dynstat_uvel_max             =   3.8522839089366E-01
(PID.TID 0000.0001) %MON dynstat_uvel_min             =  -2.9138899919762E-01
(PID.TID 0000.0001) %MON dynstat_uvel_mean            =  -4.7195548042170E-04
(PID.TID 0000.0001) %MON dynstat_uvel_sd              =   1.2166197431503E-02
(PID.TID 0000.0001) %MON dynstat_uvel_del2            =   6.0938960811002E-05
(PID.TID 0000.0001) %MON dynstat_vvel_max             =   3.1553643481347E-01
(PID.TID 0000.0001) %MON dynstat_vvel_min             =  -3.1771338943269E-01
(PID.TID 0000.0001) %MON dynstat_vvel_mean            =  -3.9330776543977E-04
(PID.TID 0000.0001) %MON dynstat_vvel_sd              =   1.2781863442774E-02
(PID.TID 0000.0001) %MON dynstat_vvel_del2            =   7.0336400156170E-05
(PID.TID 0000.0001) %MON dynstat_wvel_max             =   1.0332319364956E-04
(PID.TID 0000.0001) %MON dynstat_wvel_min             =  -8.6613910785620E-04
(PID.TID 0000.0001) %MON dynstat_wvel_mean            =  -1.1455992388044E-07
(PID.TID 0000.0001) %MON dynstat_wvel_sd              =   7.2901748384328E-06
(PID.TID 0000.0001) %MON dynstat_wvel_del2            =   8.7015381295235E-08
(PID.TID 0000.0001) %MON dynstat_theta_max            =   3.0925691885371E+01
(PID.TID 0000.0001) %MON dynstat_theta_min            =  -3.0176555518432E+00
(PID.TID 0000.0001) %MON dynstat_theta_mean           =   3.9089250682594E+00
(PID.TID 0000.0001) %MON dynstat_theta_sd             =   4.5705600915675E+00
(PID.TID 0000.0001) %MON dynstat_theta_del2           =   2.6559057476612E-03
(PID.TID 0000.0001) %MON dynstat_salt_max             =   4.1377469079960E+01
(PID.TID 0000.0001) %MON dynstat_salt_min             =   1.8518393167106E+01
(PID.TID 0000.0001) %MON dynstat_salt_mean            =   3.4772201171986E+01
(PID.TID 0000.0001) %MON dynstat_salt_sd              =   5.3092491645110E-01
(PID.TID 0000.0001) %MON dynstat_salt_del2            =   8.0244886981933E-04
(PID.TID 0000.0001) %MON dynstat_sst_max              =   3.0925691885371E+01
(PID.TID 0000.0001) %MON dynstat_sst_min              =  -1.8999536014810E+00
(PID.TID 0000.0001) %MON dynstat_sst_mean             =   1.8098570110211E+01
(PID.TID 0000.0001) %MON dynstat_sst_sd               =   9.8001260366523E+00
(PID.TID 0000.0001) %MON dynstat_sst_del2             =   1.5362531043114E-02
(PID.TID 0000.0001) %MON dynstat_sss_max              =   4.1377469079960E+01
(PID.TID 0000.0001) %MON dynstat_sss_min              =   1.8753246774242E+01
(PID.TID 0000.0001) %MON dynstat_sss_mean             =   3.4642196474953E+01
(PID.TID 0000.0001) %MON dynstat_sss_sd               =   1.4568876538744E+00
(PID.TID 0000.0001) %MON dynstat_sss_del2             =   8.0078215291199E-03
(PID.TID 0000.0001) %MON forcing_qnet_max             =   1.7426654296875E+04
(PID.TID 0000.0001) %MON forcing_qnet_min             =  -3.4387734375000E+04
(PID.TID 0000.0001) %MON forcing_qnet_mean            =  -3.3396184763188E+02
(PID.TID 0000.0001) %MON forcing_qnet_sd              =   1.8315161808047E+03
(PID.TID 0000.0001) %MON forcing_qnet_del2            =   5.7525147770260E+01
(PID.TID 0000.0001) %MON forcing_qsw_max              =   0.0000000000000E+00
(PID.TID 0000.0001) %MON forcing_qsw_min              =   0.0000000000000E+00
(PID.TID 0000.0001) %MON forcing_qsw_mean             =   0.0000000000000E+00
(PID.TID 0000.0001) %MON forcing_qsw_sd               =   0.0000000000000E+00
(PID.TID 0000.0001) %MON forcing_qsw_del2             =   0.0000000000000E+00
(PID.TID 0000.0001) %MON forcing_empmr_max            =   6.8209730088711E-02
(PID.TID 0000.0001) %MON forcing_empmr_min            =  -8.9645397663116E-01
(PID.TID 0000.0001) %MON forcing_empmr_mean           =  -7.3375039118782E-04
(PID.TID 0000.0001) %MON forcing_empmr_sd             =   1.5869449686911E-02
(PID.TID 0000.0001) %MON forcing_empmr_del2           =   6.2006167336002E-04
(PID.TID 0000.0001) %MON forcing_fu_max               =   5.2677829465581E-01
(PID.TID 0000.0001) %MON forcing_fu_min               =  -4.5880423782345E-01
(PID.TID 0000.0001) %MON forcing_fu_mean              =  -4.1814237346585E-03
(PID.TID 0000.0001) %MON forcing_fu_sd                =   6.9375254978744E-02
(PID.TID 0000.0001) %MON forcing_fu_del2              =   6.8235245862431E-04
(PID.TID 0000.0001) %MON forcing_fv_max               =   2.9868584949626E-01
(PID.TID 0000.0001) %MON forcing_fv_min               =  -3.9323508454932E-01
(PID.TID 0000.0001) %MON forcing_fv_mean              =  -1.3672568887233E-02
(PID.TID 0000.0001) %MON forcing_fv_sd                =   6.6233499231519E-02
(PID.TID 0000.0001) %MON forcing_fv_del2              =   5.5204045430852E-04
(PID.TID 0000.0001) %MON trAdv_CFL_u_max              =   3.5370865169139E-05
(PID.TID 0000.0001) %MON trAdv_CFL_v_max              =   5.0110545369898E-05
(PID.TID 0000.0001) %MON trAdv_CFL_w_max              =   4.0061127386888E-04
(PID.TID 0000.0001) %MON advcfl_uvel_max              =   3.7546399158669E-05
(PID.TID 0000.0001) %MON advcfl_vvel_max              =   2.8603069030524E-05
(PID.TID 0000.0001) %MON advcfl_wvel_max              =   8.6613910785620E-04
(PID.TID 0000.0001) %MON advcfl_W_hf_max              =   4.0061127386888E-04
(PID.TID 0000.0001) %MON pe_b_mean                    =   5.6428687106250E-04
(PID.TID 0000.0001) %MON ke_max                       =   7.0297304573349E-02
(PID.TID 0000.0001) %MON ke_mean                      =   1.4396788906418E-04
(PID.TID 0000.0001) %MON ke_vol                       =   1.3398056591351E+18
(PID.TID 0000.0001) %MON vort_r_min                   =  -1.1890048789757E-06
(PID.TID 0000.0001) %MON vort_r_max                   =   1.2233925659991E-06
(PID.TID 0000.0001) %MON vort_a_mean                  =  -2.0549865324846E-05
(PID.TID 0000.0001) %MON vort_a_sd                    =   7.5259519261407E-05
(PID.TID 0000.0001) %MON vort_p_mean                  =  -2.4783428863151E-05
(PID.TID 0000.0001) %MON vort_p_sd                    =   1.2811969298967E-04
(PID.TID 0000.0001) %MON surfExpan_theta_mean         =  -5.4477978892815E-06
(PID.TID 0000.0001) %MON surfExpan_salt_mean          =   6.1143846311313E-07
(PID.TID 0000.0001) // =======================================================
(PID.TID 0000.0001) // End MONITOR dynamic field statistics
(PID.TID 0000.0001) // =======================================================
 cg2d: Sum(rhs),rhsMax =  -4.22391323869674E+00  2.34139879642426E+05
(PID.TID 0000.0001)      cg2d_init_res =   3.90835445113610E-03
(PID.TID 0000.0001)      cg2d_iters(min,last) =      -1       1
(PID.TID 0000.0001)      cg2d_last_res =   3.38215213721449E-08
(PID.TID 0000.0001) // =======================================================
(PID.TID 0000.0001) // Begin MONITOR dynamic field statistics
(PID.TID 0000.0001) // =======================================================
(PID.TID 0000.0001) %MON time_tsnumber                =                 72045
(PID.TID 0000.0001) %MON time_secondsf                =   1.8011250000000E+06
(PID.TID 0000.0001) %MON dynstat_eta_max              =   8.8701649456258E+00
(PID.TID 0000.0001) %MON dynstat_eta_min              =  -1.7334596473207E+00
(PID.TID 0000.0001) %MON dynstat_eta_mean             =   8.8672009669306E-03
(PID.TID 0000.0001) %MON dynstat_eta_sd               =   6.5069335306570E-01
(PID.TID 0000.0001) %MON dynstat_eta_del2             =   8.4341015275126E-03
(PID.TID 0000.0001) %MON dynstat_uvel_max             =   3.9209361291038E-01
(PID.TID 0000.0001) %MON dynstat_uvel_min             =  -2.9441777388469E-01
(PID.TID 0000.0001) %MON dynstat_uvel_mean            =  -4.7148792527574E-04
(PID.TID 0000.0001) %MON dynstat_uvel_sd              =   1.2172965302728E-02
(PID.TID 0000.0001) %MON dynstat_uvel_del2            =   6.1358064190837E-05
(PID.TID 0000.0001) %MON dynstat_vvel_max             =   3.2309458483625E-01
(PID.TID 0000.0001) %MON dynstat_vvel_min             =  -3.2456600921913E-01
(PID.TID 0000.0001) %MON dynstat_vvel_mean            =  -3.9303727438613E-04
(PID.TID 0000.0001) %MON dynstat_vvel_sd              =   1.2788708694319E-02
(PID.TID 0000.0001) %MON dynstat_vvel_del2            =   7.1154060435808E-05
(PID.TID 0000.0001) %MON dynstat_wvel_max             =   1.0332754762038E-04
(PID.TID 0000.0001) %MON dynstat_wvel_min             =  -8.6366986306969E-04
(PID.TID 0000.0001) %MON dynstat_wvel_mean            =  -1.1563661559887E-07
(PID.TID 0000.0001) %MON dynstat_wvel_sd              =   7.3569808586333E-06
(PID.TID 0000.0001) %MON dynstat_wvel_del2            =   8.7271405965844E-08
(PID.TID 0000.0001) %MON dynstat_theta_max            =   3.0925685835096E+01
(PID.TID 0000.0001) %MON dynstat_theta_min            =  -3.0176556088396E+00
(PID.TID 0000.0001) %MON dynstat_theta_mean           =   3.9089256915774E+00
(PID.TID 0000.0001) %MON dynstat_theta_sd             =   4.5705616602864E+00
(PID.TID 0000.0001) %MON dynstat_theta_del2           =   2.6558803801505E-03
(PID.TID 0000.0001) %MON dynstat_salt_max             =   4.1377464176164E+01
(PID.TID 0000.0001) %MON dynstat_salt_min             =   1.8518393431624E+01
(PID.TID 0000.0001) %MON dynstat_salt_mean            =   3.4772200948906E+01
(PID.TID 0000.0001) %MON dynstat_salt_sd              =   5.3092523716996E-01
(PID.TID 0000.0001) %MON dynstat_salt_del2            =   8.0245805154482E-04
(PID.TID 0000.0001) %MON dynstat_sst_max              =   3.0925685835096E+01
(PID.TID 0000.0001) %MON dynstat_sst_min              =  -1.8999525687722E+00
(PID.TID 0000.0001) %MON dynstat_sst_mean             =   1.8098611598104E+01
(PID.TID 0000.0001) %MON dynstat_sst_sd               =   9.8001156952227E+00
(PID.TID 0000.0001) %MON dynstat_sst_del2             =   1.5361800319599E-02
(PID.TID 0000.0001) %MON dynstat_sss_max              =   4.1377464176164E+01
(PID.TID 0000.0001) %MON dynstat_sss_min              =   1.8753017709452E+01
(PID.TID 0000.0001) %MON dynstat_sss_mean             =   3.4642180477997E+01
(PID.TID 0000.0001) %MON dynstat_sss_sd               =   1.4568966217091E+00
(PID.TID 0000.0001) %MON dynstat_sss_del2             =   8.0079578691863E-03
(PID.TID 0000.0001) %MON forcing_qnet_max             =   1.6101123046875E+04
(PID.TID 0000.0001) %MON forcing_qnet_min             =  -3.3372855468750E+04
(PID.TID 0000.0001) %MON forcing_qnet_mean            =  -3.2880696353454E+02
(PID.TID 0000.0001) %MON forcing_qnet_sd              =   1.7546759454021E+03
(PID.TID 0000.0001) %MON forcing_qnet_del2            =   5.5485845790805E+01
(PID.TID 0000.0001) %MON forcing_qsw_max              =   0.0000000000000E+00
(PID.TID 0000.0001) %MON forcing_qsw_min              =   0.0000000000000E+00
(PID.TID 0000.0001) %MON forcing_qsw_mean             =   0.0000000000000E+00
(PID.TID 0000.0001) %MON forcing_qsw_sd               =   0.0000000000000E+00
(PID.TID 0000.0001) %MON forcing_qsw_del2             =   0.0000000000000E+00
(PID.TID 0000.0001) %MON forcing_empmr_max            =   6.7605569958687E-02
(PID.TID 0000.0001) %MON forcing_empmr_min            =  -8.9389830827713E-01
(PID.TID 0000.0001) %MON forcing_empmr_mean           =  -7.3213676411171E-04
(PID.TID 0000.0001) %MON forcing_empmr_sd             =   1.5832517758645E-02
(PID.TID 0000.0001) %MON forcing_empmr_del2           =   6.1865139316313E-04
(PID.TID 0000.0001) %MON forcing_fu_max               =   5.2677829465581E-01
(PID.TID 0000.0001) %MON forcing_fu_min               =  -4.5880423782345E-01
(PID.TID 0000.0001) %MON forcing_fu_mean              =  -4.1814237346585E-03
(PID.TID 0000.0001) %MON forcing_fu_sd                =   6.9375254978744E-02
(PID.TID 0000.0001) %MON forcing_fu_del2              =   6.8235245862431E-04
(PID.TID 0000.0001) %MON forcing_fv_max               =   2.9868584949626E-01
(PID.TID 0000.0001) %MON forcing_fv_min               =  -3.9323508454932E-01
(PID.TID 0000.0001) %MON forcing_fv_mean              =  -1.3672568887233E-02
(PID.TID 0000.0001) %MON forcing_fv_sd                =   6.6233499231519E-02
(PID.TID 0000.0001) %MON forcing_fv_del2              =   5.5204045430852E-04
(PID.TID 0000.0001) %MON trAdv_CFL_u_max              =   3.6003099802224E-05
(PID.TID 0000.0001) %MON trAdv_CFL_v_max              =   5.1340427257231E-05
(PID.TID 0000.0001) %MON trAdv_CFL_w_max              =   3.9936584664934E-04
(PID.TID 0000.0001) %MON advcfl_uvel_max              =   3.8215520054859E-05
(PID.TID 0000.0001) %MON advcfl_vvel_max              =   2.9288207933651E-05
(PID.TID 0000.0001) %MON advcfl_wvel_max              =   8.6366986306969E-04
(PID.TID 0000.0001) %MON advcfl_W_hf_max              =   3.9936584664934E-04
(PID.TID 0000.0001) %MON pe_b_mean                    =   5.6415288360382E-04
(PID.TID 0000.0001) %MON ke_max                       =   7.3289799908720E-02
(PID.TID 0000.0001) %MON ke_mean                      =   1.4412444076391E-04
(PID.TID 0000.0001) %MON ke_vol                       =   1.3398056655844E+18
(PID.TID 0000.0001) %MON vort_r_min                   =  -1.1891207848900E-06
(PID.TID 0000.0001) %MON vort_r_max                   =   1.2235885675557E-06
(PID.TID 0000.0001) %MON vort_a_mean                  =  -2.0549865324846E-05
(PID.TID 0000.0001) %MON vort_a_sd                    =   7.5259519329956E-05
(PID.TID 0000.0001) %MON vort_p_mean                  =  -2.4783428740953E-05
(PID.TID 0000.0001) %MON vort_p_sd                    =   1.2811969142142E-04
(PID.TID 0000.0001) %MON surfExpan_theta_mean         =  -5.4395639051903E-06
(PID.TID 0000.0001) %MON surfExpan_salt_mean          =   6.1394087499235E-07
(PID.TID 0000.0001) // =======================================================
(PID.TID 0000.0001) // End MONITOR dynamic field statistics
(PID.TID 0000.0001) // =======================================================
 cg2d: Sum(rhs),rhsMax =  -4.23435565665032E+00  2.34027406411859E+05
(PID.TID 0000.0001)      cg2d_init_res =   3.94296788871318E-03
(PID.TID 0000.0001)      cg2d_iters(min,last) =      -1       1
(PID.TID 0000.0001)      cg2d_last_res =   3.42809393542909E-08
(PID.TID 0000.0001) // =======================================================
(PID.TID 0000.0001) // Begin MONITOR dynamic field statistics
(PID.TID 0000.0001) // =======================================================
(PID.TID 0000.0001) %MON time_tsnumber                =                 72046
(PID.TID 0000.0001) %MON time_secondsf                =   1.8011500000000E+06
(PID.TID 0000.0001) %MON dynstat_eta_max              =   8.8650434881204E+00
(PID.TID 0000.0001) %MON dynstat_eta_min              =  -1.7319875394953E+00
(PID.TID 0000.0001) %MON dynstat_eta_mean             =   8.8848525391859E-03
(PID.TID 0000.0001) %MON dynstat_eta_sd               =   6.5061416260947E-01
(PID.TID 0000.0001) %MON dynstat_eta_del2             =   8.4232379335705E-03
(PID.TID 0000.0001) %MON dynstat_uvel_max             =   3.9894459148871E-01
(PID.TID 0000.0001) %MON dynstat_uvel_min             =  -2.9744348576938E-01
(PID.TID 0000.0001) %MON dynstat_uvel_mean            =  -4.7101658278284E-04
(PID.TID 0000.0001) %MON dynstat_uvel_sd              =   1.2179860373123E-02
(PID.TID 0000.0001) %MON dynstat_uvel_del2            =   6.1782540916858E-05
(PID.TID 0000.0001) %MON dynstat_vvel_max             =   3.3063727170550E-01
(PID.TID 0000.0001) %MON dynstat_vvel_min             =  -3.3141366668262E-01
(PID.TID 0000.0001) %MON dynstat_vvel_mean            =  -3.9276551852143E-04
(PID.TID 0000.0001) %MON dynstat_vvel_sd              =   1.2795677302226E-02
(PID.TID 0000.0001) %MON dynstat_vvel_del2            =   7.1978862485164E-05
(PID.TID 0000.0001) %MON dynstat_wvel_max             =   1.0333191965250E-04
(PID.TID 0000.0001) %MON dynstat_wvel_min             =  -8.6120056069416E-04
(PID.TID 0000.0001) %MON dynstat_wvel_mean            =  -1.1683433652039E-07
(PID.TID 0000.0001) %MON dynstat_wvel_sd              =   7.4241431321164E-06
(PID.TID 0000.0001) %MON dynstat_wvel_del2            =   8.7532898745316E-08
(PID.TID 0000.0001) %MON dynstat_theta_max            =   3.0925679785500E+01
(PID.TID 0000.0001) %MON dynstat_theta_min            =  -3.0176554896155E+00
(PID.TID 0000.0001) %MON dynstat_theta_mean           =   3.9089263057446E+00
(PID.TID 0000.0001) %MON dynstat_theta_sd             =   4.5705632320538E+00
(PID.TID 0000.0001) %MON dynstat_theta_del2           =   2.6558553093018E-03
(PID.TID 0000.0001) %MON dynstat_salt_max             =   4.1377459195576E+01
(PID.TID 0000.0001) %MON dynstat_salt_min             =   1.8518393696308E+01
(PID.TID 0000.0001) %MON dynstat_salt_mean            =   3.4772200726386E+01
(PID.TID 0000.0001) %MON dynstat_salt_sd              =   5.3092555944706E-01
(PID.TID 0000.0001) %MON dynstat_salt_del2            =   8.0246776397313E-04
(PID.TID 0000.0001) %MON dynstat_sst_max              =   3.0925679785500E+01
(PID.TID 0000.0001) %MON dynstat_sst_min              =  -1.8999515355340E+00
(PID.TID 0000.0001) %MON dynstat_sst_mean             =   1.8098652362476E+01
(PID.TID 0000.0001) %MON dynstat_sst_sd               =   9.8001064469826E+00
(PID.TID 0000.0001) %MON dynstat_sst_del2             =   1.5361082023680E-02
(PID.TID 0000.0001) %MON dynstat_sss_max              =   4.1377459195576E+01
(PID.TID 0000.0001) %MON dynstat_sss_min              =   1.8752816472881E+01
(PID.TID 0000.0001) %MON dynstat_sss_mean             =   3.4642164535772E+01
(PID.TID 0000.0001) %MON dynstat_sss_sd               =   1.4569053974752E+00
(PID.TID 0000.0001) %MON dynstat_sss_del2             =   8.0081032769421E-03
(PID.TID 0000.0001) %MON forcing_qnet_max             =   1.4873059570312E+04
(PID.TID 0000.0001) %MON forcing_qnet_min             =  -3.2397033203125E+04
(PID.TID 0000.0001) %MON forcing_qnet_mean            =  -3.2333387448504E+02
(PID.TID 0000.0001) %MON forcing_qnet_sd              =   1.6862589105044E+03
(PID.TID 0000.0001) %MON forcing_qnet_del2            =   5.3633786309712E+01
(PID.TID 0000.0001) %MON forcing_qsw_max              =   0.0000000000000E+00
(PID.TID 0000.0001) %MON forcing_qsw_min              =   0.0000000000000E+00
(PID.TID 0000.0001) %MON forcing_qsw_mean             =   0.0000000000000E+00
(PID.TID 0000.0001) %MON forcing_qsw_sd               =   0.0000000000000E+00
(PID.TID 0000.0001) %MON forcing_qsw_del2             =   0.0000000000000E+00
(PID.TID 0000.0001) %MON forcing_empmr_max            =   6.7005440592766E-02
(PID.TID 0000.0001) %MON forcing_empmr_min            =  -8.9134258031845E-01
(PID.TID 0000.0001) %MON forcing_empmr_mean           =  -7.3077509140369E-04
(PID.TID 0000.0001) %MON forcing_empmr_sd             =   1.5796241650863E-02
(PID.TID 0000.0001) %MON forcing_empmr_del2           =   6.1726288897496E-04
(PID.TID 0000.0001) %MON forcing_fu_max               =   5.2677829465581E-01
(PID.TID 0000.0001) %MON forcing_fu_min               =  -4.5880423782345E-01
(PID.TID 0000.0001) %MON forcing_fu_mean              =  -4.1814237346585E-03
(PID.TID 0000.0001) %MON forcing_fu_sd                =   6.9375254978744E-02
(PID.TID 0000.0001) %MON forcing_fu_del2              =   6.8235245862431E-04
(PID.TID 0000.0001) %MON forcing_fv_max               =   2.9868584949626E-01
(PID.TID 0000.0001) %MON forcing_fv_min               =  -3.9323508454932E-01
(PID.TID 0000.0001) %MON forcing_fv_mean              =  -1.3672568887233E-02
(PID.TID 0000.0001) %MON forcing_fv_sd                =   6.6233499231519E-02
(PID.TID 0000.0001) %MON forcing_fv_del2              =   5.5204045430852E-04
(PID.TID 0000.0001) %MON trAdv_CFL_u_max              =   3.6634137275932E-05
(PID.TID 0000.0001) %MON trAdv_CFL_v_max              =   5.2567111050313E-05
(PID.TID 0000.0001) %MON trAdv_CFL_w_max              =   3.9811910817409E-04
(PID.TID 0000.0001) %MON advcfl_uvel_max              =   3.8883252710109E-05
(PID.TID 0000.0001) %MON advcfl_vvel_max              =   2.9971945117043E-05
(PID.TID 0000.0001) %MON advcfl_wvel_max              =   8.6120056069416E-04
(PID.TID 0000.0001) %MON advcfl_W_hf_max              =   3.9811910817409E-04
(PID.TID 0000.0001) %MON pe_b_mean                    =   5.6401601550968E-04
(PID.TID 0000.0001) %MON ke_max                       =   7.6339222578457E-02
(PID.TID 0000.0001) %MON ke_mean                      =   1.4428396386109E-04
(PID.TID 0000.0001) %MON ke_vol                       =   1.3398056720196E+18
(PID.TID 0000.0001) %MON vort_r_min                   =  -1.1892368768496E-06
(PID.TID 0000.0001) %MON vort_r_max                   =   1.2237851363829E-06
(PID.TID 0000.0001) %MON vort_a_mean                  =  -2.0549865324846E-05
(PID.TID 0000.0001) %MON vort_a_sd                    =   7.5259519399347E-05
(PID.TID 0000.0001) %MON vort_p_mean                  =  -2.4783428618560E-05
(PID.TID 0000.0001) %MON vort_p_sd                    =   1.2811968985483E-04
(PID.TID 0000.0001) %MON surfExpan_theta_mean         =  -5.4372640513601E-06
(PID.TID 0000.0001) %MON surfExpan_salt_mean          =   6.1646136444083E-07
(PID.TID 0000.0001) // =======================================================
(PID.TID 0000.0001) // End MONITOR dynamic field statistics
(PID.TID 0000.0001) // =======================================================
 cg2d: Sum(rhs),rhsMax =  -4.24483845024801E+00  2.33912412002278E+05
(PID.TID 0000.0001)      cg2d_init_res =   3.97768616092373E-03
(PID.TID 0000.0001)      cg2d_iters(min,last) =      -1       1
(PID.TID 0000.0001)      cg2d_last_res =   3.47313433637122E-08
(PID.TID 0000.0001) // =======================================================
(PID.TID 0000.0001) // Begin MONITOR dynamic field statistics
(PID.TID 0000.0001) // =======================================================
(PID.TID 0000.0001) %MON time_tsnumber                =                 72047
(PID.TID 0000.0001) %MON time_secondsf                =   1.8011750000000E+06
(PID.TID 0000.0001) %MON dynstat_eta_max              =   8.8598069894874E+00
(PID.TID 0000.0001) %MON dynstat_eta_min              =  -1.7304853109272E+00
(PID.TID 0000.0001) %MON dynstat_eta_mean             =   8.9024717756064E-03
(PID.TID 0000.0001) %MON dynstat_eta_sd               =   6.5053333133801E-01
(PID.TID 0000.0001) %MON dynstat_eta_del2             =   8.4121800732480E-03
(PID.TID 0000.0001) %MON dynstat_uvel_max             =   4.0578111204141E-01
(PID.TID 0000.0001) %MON dynstat_uvel_min             =  -3.0046610597258E-01
(PID.TID 0000.0001) %MON dynstat_uvel_mean            =  -4.7054140009201E-04
(PID.TID 0000.0001) %MON dynstat_uvel_sd              =   1.2186880515620E-02
(PID.TID 0000.0001) %MON dynstat_uvel_del2            =   6.2212186685424E-05
(PID.TID 0000.0001) %MON dynstat_vvel_max             =   3.3816436856553E-01
(PID.TID 0000.0001) %MON dynstat_vvel_min             =  -3.3825625509226E-01
(PID.TID 0000.0001) %MON dynstat_vvel_mean            =  -3.9249248653077E-04
(PID.TID 0000.0001) %MON dynstat_vvel_sd              =   1.2802766662513E-02
(PID.TID 0000.0001) %MON dynstat_vvel_del2            =   7.2810362799343E-05
(PID.TID 0000.0001) %MON dynstat_wvel_max             =   1.0333630968143E-04
(PID.TID 0000.0001) %MON dynstat_wvel_min             =  -8.5873131590765E-04
(PID.TID 0000.0001) %MON dynstat_wvel_mean            =  -1.1811548397439E-07
(PID.TID 0000.0001) %MON dynstat_wvel_sd              =   7.4915173235582E-06
(PID.TID 0000.0001) %MON dynstat_wvel_del2            =   8.7795706288715E-08
(PID.TID 0000.0001) %MON dynstat_theta_max            =   3.0925673736580E+01
(PID.TID 0000.0001) %MON dynstat_theta_min            =  -3.0176551883658E+00
(PID.TID 0000.0001) %MON dynstat_theta_mean           =   3.9089269105500E+00
(PID.TID 0000.0001) %MON dynstat_theta_sd             =   4.5705648015273E+00
(PID.TID 0000.0001) %MON dynstat_theta_del2           =   2.6558305449629E-03
(PID.TID 0000.0001) %MON dynstat_salt_max             =   4.1377454102818E+01
(PID.TID 0000.0001) %MON dynstat_salt_min             =   1.8518393961108E+01
(PID.TID 0000.0001) %MON dynstat_salt_mean            =   3.4772200504354E+01
(PID.TID 0000.0001) %MON dynstat_salt_sd              =   5.3092588316139E-01
(PID.TID 0000.0001) %MON dynstat_salt_del2            =   8.0247801126202E-04
(PID.TID 0000.0001) %MON dynstat_sst_max              =   3.0925673736580E+01
(PID.TID 0000.0001) %MON dynstat_sst_min              =  -1.8999505017542E+00
(PID.TID 0000.0001) %MON dynstat_sst_mean             =   1.8098692385240E+01
(PID.TID 0000.0001) %MON dynstat_sst_sd               =   9.8000981348737E+00
(PID.TID 0000.0001) %MON dynstat_sst_del2             =   1.5360375988695E-02
(PID.TID 0000.0001) %MON dynstat_sss_max              =   4.1377454102818E+01
(PID.TID 0000.0001) %MON dynstat_sss_min              =   1.8752639875445E+01
(PID.TID 0000.0001) %MON dynstat_sss_mean             =   3.4642148640337E+01
(PID.TID 0000.0001) %MON dynstat_sss_sd               =   1.4569140061563E+00
(PID.TID 0000.0001) %MON dynstat_sss_del2             =   8.0082577395896E-03
(PID.TID 0000.0001) %MON forcing_qnet_max             =   1.4340001953125E+04
(PID.TID 0000.0001) %MON forcing_qnet_min             =  -3.1440767578125E+04
(PID.TID 0000.0001) %MON forcing_qnet_mean            =  -3.1770767650709E+02
(PID.TID 0000.0001) %MON forcing_qnet_sd              =   1.6245759441355E+03
(PID.TID 0000.0001) %MON forcing_qnet_del2            =   5.1927152860668E+01
(PID.TID 0000.0001) %MON forcing_qsw_max              =   0.0000000000000E+00
(PID.TID 0000.0001) %MON forcing_qsw_min              =   0.0000000000000E+00
(PID.TID 0000.0001) %MON forcing_qsw_mean             =   0.0000000000000E+00
(PID.TID 0000.0001) %MON forcing_qsw_sd               =   0.0000000000000E+00
(PID.TID 0000.0001) %MON forcing_qsw_del2             =   0.0000000000000E+00
(PID.TID 0000.0001) %MON forcing_empmr_max            =   6.6413357853889E-02
(PID.TID 0000.0001) %MON forcing_empmr_min            =  -8.8878691196442E-01
(PID.TID 0000.0001) %MON forcing_empmr_mean           =  -7.2943638780019E-04
(PID.TID 0000.0001) %MON forcing_empmr_sd             =   1.5759536609859E-02
(PID.TID 0000.0001) %MON forcing_empmr_del2           =   6.1585933961529E-04
(PID.TID 0000.0001) %MON forcing_fu_max               =   5.2677829465581E-01
(PID.TID 0000.0001) %MON forcing_fu_min               =  -4.5880423782345E-01
(PID.TID 0000.0001) %MON forcing_fu_mean              =  -4.1814237346585E-03
(PID.TID 0000.0001) %MON forcing_fu_sd                =   6.9375254978744E-02
(PID.TID 0000.0001) %MON forcing_fu_del2              =   6.8235245862431E-04
(PID.TID 0000.0001) %MON forcing_fv_max               =   2.9868584949626E-01
(PID.TID 0000.0001) %MON forcing_fv_min               =  -3.9323508454932E-01
(PID.TID 0000.0001) %MON forcing_fv_mean              =  -1.3672568887233E-02
(PID.TID 0000.0001) %MON forcing_fv_sd                =   6.6233499231519E-02
(PID.TID 0000.0001) %MON forcing_fv_del2              =   5.5204045430852E-04
(PID.TID 0000.0001) %MON trAdv_CFL_u_max              =   3.7263959916891E-05
(PID.TID 0000.0001) %MON trAdv_CFL_v_max              =   5.3790561198830E-05
(PID.TID 0000.0001) %MON trAdv_CFL_w_max              =   3.9687112665455E-04
(PID.TID 0000.0001) %MON advcfl_uvel_max              =   3.9549576209613E-05
(PID.TID 0000.0001) %MON advcfl_vvel_max              =   3.0654269081355E-05
(PID.TID 0000.0001) %MON advcfl_wvel_max              =   8.5873131590765E-04
(PID.TID 0000.0001) %MON advcfl_W_hf_max              =   3.9687112665455E-04
(PID.TID 0000.0001) %MON pe_b_mean                    =   5.6387632023549E-04
(PID.TID 0000.0001) %MON ke_max                       =   7.9445012410373E-02
(PID.TID 0000.0001) %MON ke_mean                      =   1.4444640840981E-04
(PID.TID 0000.0001) %MON ke_vol                       =   1.3398056784428E+18
(PID.TID 0000.0001) %MON vort_r_min                   =  -1.2077608508694E-06
(PID.TID 0000.0001) %MON vort_r_max                   =   1.2239822740758E-06
(PID.TID 0000.0001) %MON vort_a_mean                  =  -2.0549865324846E-05
(PID.TID 0000.0001) %MON vort_a_sd                    =   7.5259519469575E-05
(PID.TID 0000.0001) %MON vort_p_mean                  =  -2.4783428495929E-05
(PID.TID 0000.0001) %MON vort_p_sd                    =   1.2811968828988E-04
(PID.TID 0000.0001) %MON surfExpan_theta_mean         =  -5.4398706370585E-06
(PID.TID 0000.0001) %MON surfExpan_salt_mean          =   6.1872622763753E-07
(PID.TID 0000.0001) // =======================================================
(PID.TID 0000.0001) // End MONITOR dynamic field statistics
(PID.TID 0000.0001) // =======================================================
 cg2d: Sum(rhs),rhsMax =  -4.25536517798371E+00  2.33794899653181E+05
(PID.TID 0000.0001)      cg2d_init_res =   4.01254578940625E-03
(PID.TID 0000.0001)      cg2d_iters(min,last) =      -1       1
(PID.TID 0000.0001)      cg2d_last_res =   3.51771574049499E-08
(PID.TID 0000.0001) // =======================================================
(PID.TID 0000.0001) // Begin MONITOR dynamic field statistics
(PID.TID 0000.0001) // =======================================================
(PID.TID 0000.0001) %MON time_tsnumber                =                 72048
(PID.TID 0000.0001) %MON time_secondsf                =   1.8012000000000E+06
(PID.TID 0000.0001) %MON dynstat_eta_max              =   8.8544556022586E+00
(PID.TID 0000.0001) %MON dynstat_eta_min              =  -1.7289532129692E+00
(PID.TID 0000.0001) %MON dynstat_eta_mean             =   8.9200654233082E-03
(PID.TID 0000.0001) %MON dynstat_eta_sd               =   6.5045088756459E-01
(PID.TID 0000.0001) %MON dynstat_eta_del2             =   8.4009309049509E-03
(PID.TID 0000.0001) %MON dynstat_uvel_max             =   4.1260296048647E-01
(PID.TID 0000.0001) %MON dynstat_uvel_min             =  -3.0348560566880E-01
(PID.TID 0000.0001) %MON dynstat_uvel_mean            =  -4.7006232560781E-04
(PID.TID 0000.0001) %MON dynstat_uvel_sd              =   1.2194023594092E-02
(PID.TID 0000.0001) %MON dynstat_uvel_del2            =   6.2646801706200E-05
(PID.TID 0000.0001) %MON dynstat_vvel_max             =   3.4567574940377E-01
(PID.TID 0000.0001) %MON dynstat_vvel_min             =  -3.4509366782861E-01
(PID.TID 0000.0001) %MON dynstat_vvel_mean            =  -3.9221816891168E-04
(PID.TID 0000.0001) %MON dynstat_vvel_sd              =   1.2809974159707E-02
(PID.TID 0000.0001) %MON dynstat_vvel_del2            =   7.3648134764817E-05
(PID.TID 0000.0001) %MON dynstat_wvel_max             =   1.0334071767807E-04
(PID.TID 0000.0001) %MON dynstat_wvel_min             =  -8.5626201353211E-04
(PID.TID 0000.0001) %MON dynstat_wvel_mean            =  -1.1955055596865E-07
(PID.TID 0000.0001) %MON dynstat_wvel_sd              =   7.5590897994992E-06
(PID.TID 0000.0001) %MON dynstat_wvel_del2            =   8.8061597605581E-08
(PID.TID 0000.0001) %MON dynstat_theta_max            =   3.0925667688337E+01
(PID.TID 0000.0001) %MON dynstat_theta_min            =  -3.0176546984560E+00
(PID.TID 0000.0001) %MON dynstat_theta_mean           =   3.9089275060964E+00
(PID.TID 0000.0001) %MON dynstat_theta_sd             =   4.5705663654749E+00
(PID.TID 0000.0001) %MON dynstat_theta_del2           =   2.6558061078508E-03
(PID.TID 0000.0001) %MON dynstat_salt_max             =   4.1377448998536E+01
(PID.TID 0000.0001) %MON dynstat_salt_min             =   1.8518394226017E+01
(PID.TID 0000.0001) %MON dynstat_salt_mean            =   3.4772200282879E+01
(PID.TID 0000.0001) %MON dynstat_salt_sd              =   5.3092620832404E-01
(PID.TID 0000.0001) %MON dynstat_salt_del2            =   8.0248878402533E-04
(PID.TID 0000.0001) %MON dynstat_sst_max              =   3.0925667688337E+01
(PID.TID 0000.0001) %MON dynstat_sst_min              =  -1.8999494674200E+00
(PID.TID 0000.0001) %MON dynstat_sst_mean             =   1.8098731672243E+01
(PID.TID 0000.0001) %MON dynstat_sst_sd               =   9.8000906395853E+00
(PID.TID 0000.0001) %MON dynstat_sst_del2             =   1.5359682406671E-02
(PID.TID 0000.0001) %MON dynstat_sss_max              =   4.1377448998536E+01
(PID.TID 0000.0001) %MON dynstat_sss_min              =   1.8752484806096E+01
(PID.TID 0000.0001) %MON dynstat_sss_mean             =   3.4642132794735E+01
(PID.TID 0000.0001) %MON dynstat_sss_sd               =   1.4569224734675E+00
(PID.TID 0000.0001) %MON dynstat_sss_del2             =   8.0084210394758E-03
(PID.TID 0000.0001) %MON forcing_qnet_max             =   1.3842729492188E+04
(PID.TID 0000.0001) %MON forcing_qnet_min             =  -3.0504056640625E+04
(PID.TID 0000.0001) %MON forcing_qnet_mean            =  -3.1212186574027E+02
(PID.TID 0000.0001) %MON forcing_qnet_sd              =   1.5686220855469E+03
(PID.TID 0000.0001) %MON forcing_qnet_del2            =   5.0338793192469E+01
(PID.TID 0000.0001) %MON forcing_qsw_max              =   0.0000000000000E+00
(PID.TID 0000.0001) %MON forcing_qsw_min              =   0.0000000000000E+00
(PID.TID 0000.0001) %MON forcing_qsw_mean             =   0.0000000000000E+00
(PID.TID 0000.0001) %MON forcing_qsw_sd               =   0.0000000000000E+00
(PID.TID 0000.0001) %MON forcing_qsw_del2             =   0.0000000000000E+00
(PID.TID 0000.0001) %MON forcing_empmr_max            =   6.5825305879116E-02
(PID.TID 0000.0001) %MON forcing_empmr_min            =  -8.8623118400574E-01
(PID.TID 0000.0001) %MON forcing_empmr_mean           =  -7.2837701484302E-04
(PID.TID 0000.0001) %MON forcing_empmr_sd             =   1.5722927613462E-02
(PID.TID 0000.0001) %MON forcing_empmr_del2           =   6.1446019186654E-04
(PID.TID 0000.0001) %MON forcing_fu_max               =   5.2677829465581E-01
(PID.TID 0000.0001) %MON forcing_fu_min               =  -4.5880423782345E-01
(PID.TID 0000.0001) %MON forcing_fu_mean              =  -4.1814237346585E-03
(PID.TID 0000.0001) %MON forcing_fu_sd                =   6.9375254978744E-02
(PID.TID 0000.0001) %MON forcing_fu_del2              =   6.8235245862431E-04
(PID.TID 0000.0001) %MON forcing_fv_max               =   2.9868584949626E-01
(PID.TID 0000.0001) %MON forcing_fv_min               =  -3.9323508454932E-01
(PID.TID 0000.0001) %MON forcing_fv_mean              =  -1.3672568887233E-02
(PID.TID 0000.0001) %MON forcing_fv_sd                =   6.6233499231519E-02
(PID.TID 0000.0001) %MON forcing_fv_del2              =   5.5204045430852E-04
(PID.TID 0000.0001) %MON trAdv_CFL_u_max              =   3.7892550079040E-05
(PID.TID 0000.0001) %MON trAdv_CFL_v_max              =   5.5010742278967E-05
(PID.TID 0000.0001) %MON trAdv_CFL_w_max              =   3.9562186390406E-04
(PID.TID 0000.0001) %MON advcfl_uvel_max              =   4.0214469687801E-05
(PID.TID 0000.0001) %MON advcfl_vvel_max              =   3.1335168403672E-05
(PID.TID 0000.0001) %MON advcfl_wvel_max              =   8.5626201353211E-04
(PID.TID 0000.0001) %MON advcfl_W_hf_max              =   3.9562186390406E-04
(PID.TID 0000.0001) %MON pe_b_mean                    =   5.6373384806504E-04
(PID.TID 0000.0001) %MON ke_max                       =   8.2606603192178E-02
(PID.TID 0000.0001) %MON ke_mean                      =   1.4461172418894E-04
(PID.TID 0000.0001) %MON ke_vol                       =   1.3398056848542E+18
(PID.TID 0000.0001) %MON vort_r_min                   =  -1.2322805999095E-06
(PID.TID 0000.0001) %MON vort_r_max                   =   1.2244123082416E-06
(PID.TID 0000.0001) %MON vort_a_mean                  =  -2.0549865324846E-05
(PID.TID 0000.0001) %MON vort_a_sd                    =   7.5259519540634E-05
(PID.TID 0000.0001) %MON vort_p_mean                  =  -2.4783428373053E-05
(PID.TID 0000.0001) %MON vort_p_sd                    =   1.2811968672695E-04
(PID.TID 0000.0001) %MON surfExpan_theta_mean         =  -5.4479789965751E-06
(PID.TID 0000.0001) %MON surfExpan_salt_mean          =   6.2098784341721E-07
(PID.TID 0000.0001) // =======================================================
(PID.TID 0000.0001) // End MONITOR dynamic field statistics
(PID.TID 0000.0001) // =======================================================
 cg2d: Sum(rhs),rhsMax =  -4.26593547991715E+00  2.33674872646306E+05
(PID.TID 0000.0001)      cg2d_init_res =   4.04749337108418E-03
(PID.TID 0000.0001)      cg2d_iters(min,last) =      -1       1
(PID.TID 0000.0001)      cg2d_last_res =   3.56176530590076E-08
(PID.TID 0000.0001) // =======================================================
(PID.TID 0000.0001) // Begin MONITOR dynamic field statistics
(PID.TID 0000.0001) // =======================================================
(PID.TID 0000.0001) %MON time_tsnumber                =                 72049
(PID.TID 0000.0001) %MON time_secondsf                =   1.8012250000000E+06
(PID.TID 0000.0001) %MON dynstat_eta_max              =   8.8489894815493E+00
(PID.TID 0000.0001) %MON dynstat_eta_min              =  -1.7273918086131E+00
(PID.TID 0000.0001) %MON dynstat_eta_mean             =   8.9376320018815E-03
(PID.TID 0000.0001) %MON dynstat_eta_sd               =   6.5036685995887E-01
(PID.TID 0000.0001) %MON dynstat_eta_del2             =   8.3894932023743E-03
(PID.TID 0000.0001) %MON dynstat_uvel_max             =   4.1940992327465E-01
(PID.TID 0000.0001) %MON dynstat_uvel_min             =  -3.0650195608553E-01
(PID.TID 0000.0001) %MON dynstat_uvel_mean            =  -4.6957931044580E-04
(PID.TID 0000.0001) %MON dynstat_uvel_sd              =   1.2201287464391E-02
(PID.TID 0000.0001) %MON dynstat_uvel_del2            =   6.3086190711706E-05
(PID.TID 0000.0001) %MON dynstat_vvel_max             =   3.5317128905886E-01
(PID.TID 0000.0001) %MON dynstat_vvel_min             =  -3.5192579838790E-01
(PID.TID 0000.0001) %MON dynstat_vvel_mean            =  -3.9194255852521E-04
(PID.TID 0000.0001) %MON dynstat_vvel_sd              =   1.2817297170285E-02
(PID.TID 0000.0001) %MON dynstat_vvel_del2            =   7.4491768171859E-05
(PID.TID 0000.0001) %MON dynstat_wvel_max             =   1.0334514357660E-04
(PID.TID 0000.0001) %MON dynstat_wvel_min             =  -8.5379282633464E-04
(PID.TID 0000.0001) %MON dynstat_wvel_mean            =  -1.2098731387035E-07
(PID.TID 0000.0001) %MON dynstat_wvel_sd              =   7.6268045978645E-06
(PID.TID 0000.0001) %MON dynstat_wvel_del2            =   8.8329074506558E-08
(PID.TID 0000.0001) %MON dynstat_theta_max            =   3.0925661640769E+01
(PID.TID 0000.0001) %MON dynstat_theta_min            =  -3.0176540181402E+00
(PID.TID 0000.0001) %MON dynstat_theta_mean           =   3.9089280925786E+00
(PID.TID 0000.0001) %MON dynstat_theta_sd             =   4.5705679224855E+00
(PID.TID 0000.0001) %MON dynstat_theta_del2           =   2.6557819670076E-03
(PID.TID 0000.0001) %MON dynstat_salt_max             =   4.1377443681878E+01
(PID.TID 0000.0001) %MON dynstat_salt_min             =   1.8518394491028E+01
(PID.TID 0000.0001) %MON dynstat_salt_mean            =   3.4772200061919E+01
(PID.TID 0000.0001) %MON dynstat_salt_sd              =   5.3092653483641E-01
(PID.TID 0000.0001) %MON dynstat_salt_del2            =   8.0250008554256E-04
(PID.TID 0000.0001) %MON dynstat_sst_max              =   3.0925661640769E+01
(PID.TID 0000.0001) %MON dynstat_sst_min              =  -1.8999484325187E+00
(PID.TID 0000.0001) %MON dynstat_sst_mean             =   1.8098770240972E+01
(PID.TID 0000.0001) %MON dynstat_sst_sd               =   9.8000838950617E+00
(PID.TID 0000.0001) %MON dynstat_sst_del2             =   1.5359000328900E-02
(PID.TID 0000.0001) %MON dynstat_sss_max              =   4.1377443681878E+01
(PID.TID 0000.0001) %MON dynstat_sss_min              =   1.8752348618773E+01
(PID.TID 0000.0001) %MON dynstat_sss_mean             =   3.4642116994764E+01
(PID.TID 0000.0001) %MON dynstat_sss_sd               =   1.4569308193700E+00
(PID.TID 0000.0001) %MON dynstat_sss_del2             =   8.0085932296193E-03
(PID.TID 0000.0001) %MON forcing_qnet_max             =   1.3364962890625E+04
(PID.TID 0000.0001) %MON forcing_qnet_min             =  -2.9616148437500E+04
(PID.TID 0000.0001) %MON forcing_qnet_mean            =  -3.0665627371001E+02
(PID.TID 0000.0001) %MON forcing_qnet_sd              =   1.5177003943792E+03
(PID.TID 0000.0001) %MON forcing_qnet_del2            =   4.8863254286726E+01
(PID.TID 0000.0001) %MON forcing_qsw_max              =   0.0000000000000E+00
(PID.TID 0000.0001) %MON forcing_qsw_min              =   0.0000000000000E+00
(PID.TID 0000.0001) %MON forcing_qsw_mean             =   0.0000000000000E+00
(PID.TID 0000.0001) %MON forcing_qsw_sd               =   0.0000000000000E+00
(PID.TID 0000.0001) %MON forcing_qsw_del2             =   0.0000000000000E+00
(PID.TID 0000.0001) %MON forcing_empmr_max            =   6.5245315432549E-02
(PID.TID 0000.0001) %MON forcing_empmr_min            =  -8.8367557525635E-01
(PID.TID 0000.0001) %MON forcing_empmr_mean           =  -7.2725635294953E-04
(PID.TID 0000.0001) %MON forcing_empmr_sd             =   1.5686148331015E-02
(PID.TID 0000.0001) %MON forcing_empmr_del2           =   6.1304884569246E-04
(PID.TID 0000.0001) %MON forcing_fu_max               =   5.2677829465581E-01
(PID.TID 0000.0001) %MON forcing_fu_min               =  -4.5880423782345E-01
(PID.TID 0000.0001) %MON forcing_fu_mean              =  -4.1814237346585E-03
(PID.TID 0000.0001) %MON forcing_fu_sd                =   6.9375254978744E-02
(PID.TID 0000.0001) %MON forcing_fu_del2              =   6.8235245862431E-04
(PID.TID 0000.0001) %MON forcing_fv_max               =   2.9868584949626E-01
(PID.TID 0000.0001) %MON forcing_fv_min               =  -3.9323508454932E-01
(PID.TID 0000.0001) %MON forcing_fv_mean              =  -1.3672568887233E-02
(PID.TID 0000.0001) %MON forcing_fv_sd                =   6.6233499231519E-02
(PID.TID 0000.0001) %MON forcing_fv_del2              =   5.5204045430852E-04
(PID.TID 0000.0001) %MON trAdv_CFL_u_max              =   3.8519890145881E-05
(PID.TID 0000.0001) %MON trAdv_CFL_v_max              =   5.6227618996962E-05
(PID.TID 0000.0001) %MON trAdv_CFL_w_max              =   3.9437141500387E-04
(PID.TID 0000.0001) %MON advcfl_uvel_max              =   4.0877912331035E-05
(PID.TID 0000.0001) %MON advcfl_vvel_max              =   3.2014631738238E-05
(PID.TID 0000.0001) %MON advcfl_wvel_max              =   8.5379282633464E-04
(PID.TID 0000.0001) %MON advcfl_W_hf_max              =   3.9437141500387E-04
(PID.TID 0000.0001) %MON pe_b_mean                    =   5.6358864970031E-04
(PID.TID 0000.0001) %MON ke_max                       =   8.5823422765479E-02
(PID.TID 0000.0001) %MON ke_mean                      =   1.4477986074938E-04
(PID.TID 0000.0001) %MON ke_vol                       =   1.3398056912563E+18
(PID.TID 0000.0001) %MON vort_r_min                   =  -1.2566055474204E-06
(PID.TID 0000.0001) %MON vort_r_max                   =   1.2447299559829E-06
(PID.TID 0000.0001) %MON vort_a_mean                  =  -2.0549865324846E-05
(PID.TID 0000.0001) %MON vort_a_sd                    =   7.5259519612519E-05
(PID.TID 0000.0001) %MON vort_p_mean                  =  -2.4783428249887E-05
(PID.TID 0000.0001) %MON vort_p_sd                    =   1.2811968516592E-04
(PID.TID 0000.0001) %MON surfExpan_theta_mean         =  -5.4577075691412E-06
(PID.TID 0000.0001) %MON surfExpan_salt_mean          =   6.2305253778892E-07
(PID.TID 0000.0001) // =======================================================
(PID.TID 0000.0001) // End MONITOR dynamic field statistics
(PID.TID 0000.0001) // =======================================================
 cg2d: Sum(rhs),rhsMax =  -4.27655027734235E+00  2.33552334305446E+05
(PID.TID 0000.0001)      cg2d_init_res =   4.08263862816335E-03
(PID.TID 0000.0001)      cg2d_iters(min,last) =      -1       1
(PID.TID 0000.0001)      cg2d_last_res =   3.60525865049590E-08
(PID.TID 0000.0001) // =======================================================
(PID.TID 0000.0001) // Begin MONITOR dynamic field statistics
(PID.TID 0000.0001) // =======================================================
(PID.TID 0000.0001) %MON time_tsnumber                =                 72050
(PID.TID 0000.0001) %MON time_secondsf                =   1.8012500000000E+06
(PID.TID 0000.0001) %MON dynstat_eta_max              =   8.8434087850475E+00
(PID.TID 0000.0001) %MON dynstat_eta_min              =  -1.7258012018317E+00
(PID.TID 0000.0001) %MON dynstat_eta_mean             =   8.9551727123373E-03
(PID.TID 0000.0001) %MON dynstat_eta_sd               =   6.5028127496563E-01
(PID.TID 0000.0001) %MON dynstat_eta_del2             =   8.3778699252029E-03
(PID.TID 0000.0001) %MON dynstat_uvel_max             =   4.2761682510044E-01
(PID.TID 0000.0001) %MON dynstat_uvel_min             =  -3.0951512850656E-01
(PID.TID 0000.0001) %MON dynstat_uvel_mean            =  -4.6909230725093E-04
(PID.TID 0000.0001) %MON dynstat_uvel_sd              =   1.2208669975324E-02
(PID.TID 0000.0001) %MON dynstat_uvel_del2            =   6.3530163041402E-05
(PID.TID 0000.0001) %MON dynstat_vvel_max             =   3.6065086322012E-01
(PID.TID 0000.0001) %MON dynstat_vvel_min             =  -3.5875254038261E-01
(PID.TID 0000.0001) %MON dynstat_vvel_mean            =  -3.9166565153785E-04
(PID.TID 0000.0001) %MON dynstat_vvel_sd              =   1.2824733062172E-02
(PID.TID 0000.0001) %MON dynstat_vvel_del2            =   7.5340868720929E-05
(PID.TID 0000.0001) %MON dynstat_wvel_max             =   1.0334958735730E-04
(PID.TID 0000.0001) %MON dynstat_wvel_min             =  -8.5136153271809E-04
(PID.TID 0000.0001) %MON dynstat_wvel_mean            =  -1.2243986295001E-07
(PID.TID 0000.0001) %MON dynstat_wvel_sd              =   7.6947010183804E-06
(PID.TID 0000.0001) %MON dynstat_wvel_del2            =   8.8601597976340E-08
(PID.TID 0000.0001) %MON dynstat_theta_max            =   3.0925655593875E+01
(PID.TID 0000.0001) %MON dynstat_theta_min            =  -3.0176531444012E+00
(PID.TID 0000.0001) %MON dynstat_theta_mean           =   3.9089286705316E+00
(PID.TID 0000.0001) %MON dynstat_theta_sd             =   4.5705694727055E+00
(PID.TID 0000.0001) %MON dynstat_theta_del2           =   2.6557581564291E-03
(PID.TID 0000.0001) %MON dynstat_salt_max             =   4.1377438253495E+01
(PID.TID 0000.0001) %MON dynstat_salt_min             =   1.8518394756135E+01
(PID.TID 0000.0001) %MON dynstat_salt_mean            =   3.4772199841471E+01
(PID.TID 0000.0001) %MON dynstat_salt_sd              =   5.3092686264858E-01
(PID.TID 0000.0001) %MON dynstat_salt_del2            =   8.0251191283870E-04
(PID.TID 0000.0001) %MON dynstat_sst_max              =   3.0925655593875E+01
(PID.TID 0000.0001) %MON dynstat_sst_min              =  -1.8999473970373E+00
(PID.TID 0000.0001) %MON dynstat_sst_mean             =   1.8098808129898E+01
(PID.TID 0000.0001) %MON dynstat_sst_sd               =   9.8000778481153E+00
(PID.TID 0000.0001) %MON dynstat_sst_del2             =   1.5358330146997E-02
(PID.TID 0000.0001) %MON dynstat_sss_max              =   4.1377438253495E+01
(PID.TID 0000.0001) %MON dynstat_sss_min              =   1.8752229008395E+01
(PID.TID 0000.0001) %MON dynstat_sss_mean             =   3.4642101237727E+01
(PID.TID 0000.0001) %MON dynstat_sss_sd               =   1.4569390611853E+00
(PID.TID 0000.0001) %MON dynstat_sss_del2             =   8.0087741386889E-03
(PID.TID 0000.0001) %MON forcing_qnet_max             =   1.2906703125000E+04
(PID.TID 0000.0001) %MON forcing_qnet_min             =  -2.8728279296875E+04
(PID.TID 0000.0001) %MON forcing_qnet_mean            =  -3.0151728599559E+02
(PID.TID 0000.0001) %MON forcing_qnet_sd              =   1.4708579253694E+03
(PID.TID 0000.0001) %MON forcing_qnet_del2            =   4.7471475572142E+01
(PID.TID 0000.0001) %MON forcing_qsw_max              =   0.0000000000000E+00
(PID.TID 0000.0001) %MON forcing_qsw_min              =   0.0000000000000E+00
(PID.TID 0000.0001) %MON forcing_qsw_mean             =   0.0000000000000E+00
(PID.TID 0000.0001) %MON forcing_qsw_sd               =   0.0000000000000E+00
(PID.TID 0000.0001) %MON forcing_qsw_del2             =   0.0000000000000E+00
(PID.TID 0000.0001) %MON forcing_empmr_max            =   6.4669348299503E-02
(PID.TID 0000.0001) %MON forcing_empmr_min            =  -8.8115918636322E-01
(PID.TID 0000.0001) %MON forcing_empmr_mean           =  -7.2618541286296E-04
(PID.TID 0000.0001) %MON forcing_empmr_sd             =   1.5650331651757E-02
(PID.TID 0000.0001) %MON forcing_empmr_del2           =   6.1167507230517E-04
(PID.TID 0000.0001) %MON forcing_fu_max               =   5.2677829465581E-01
(PID.TID 0000.0001) %MON forcing_fu_min               =  -4.5880423782345E-01
(PID.TID 0000.0001) %MON forcing_fu_mean              =  -4.1814237346585E-03
(PID.TID 0000.0001) %MON forcing_fu_sd                =   6.9375254978744E-02
(PID.TID 0000.0001) %MON forcing_fu_del2              =   6.8235245862431E-04
(PID.TID 0000.0001) %MON forcing_fv_max               =   2.9868584949626E-01
(PID.TID 0000.0001) %MON forcing_fv_min               =  -3.9323508454932E-01
(PID.TID 0000.0001) %MON forcing_fv_mean              =  -1.3672568887233E-02
(PID.TID 0000.0001) %MON forcing_fv_sd                =   6.6233499231519E-02
(PID.TID 0000.0001) %MON forcing_fv_del2              =   5.5204045430852E-04
(PID.TID 0000.0001) %MON trAdv_CFL_u_max              =   3.9145962530289E-05
(PID.TID 0000.0001) %MON trAdv_CFL_v_max              =   5.7441156190057E-05
(PID.TID 0000.0001) %MON trAdv_CFL_w_max              =   3.9313726201945E-04
(PID.TID 0000.0001) %MON advcfl_uvel_max              =   4.1539883377716E-05
(PID.TID 0000.0001) %MON advcfl_vvel_max              =   3.2692647816413E-05
(PID.TID 0000.0001) %MON advcfl_wvel_max              =   8.5136153271809E-04
(PID.TID 0000.0001) %MON advcfl_W_hf_max              =   3.9313726201945E-04
(PID.TID 0000.0001) %MON pe_b_mean                    =   5.6344077204798E-04
(PID.TID 0000.0001) %MON ke_max                       =   8.9094893111667E-02
(PID.TID 0000.0001) %MON ke_mean                      =   1.4495076741308E-04
(PID.TID 0000.0001) %MON ke_vol                       =   1.3398056976485E+18
(PID.TID 0000.0001) %MON vort_r_min                   =  -1.2807331474840E-06
(PID.TID 0000.0001) %MON vort_r_max                   =   1.2648674057404E-06
(PID.TID 0000.0001) %MON vort_a_mean                  =  -2.0549865324846E-05
(PID.TID 0000.0001) %MON vort_a_sd                    =   7.5259519685222E-05
(PID.TID 0000.0001) %MON vort_p_mean                  =  -2.4783428126440E-05
(PID.TID 0000.0001) %MON vort_p_sd                    =   1.2811968360694E-04
(PID.TID 0000.0001) %MON surfExpan_theta_mean         =  -5.4680044200132E-06
(PID.TID 0000.0001) %MON surfExpan_salt_mean          =   6.2509681539912E-07
(PID.TID 0000.0001) // =======================================================
(PID.TID 0000.0001) // End MONITOR dynamic field statistics
(PID.TID 0000.0001) // =======================================================
 cg2d: Sum(rhs),rhsMax =  -4.28720877927117E+00  2.33427287996512E+05
(PID.TID 0000.0001)      cg2d_init_res =   4.11778041430958E-03
(PID.TID 0000.0001)      cg2d_iters(min,last) =      -1       1
(PID.TID 0000.0001)      cg2d_last_res =   3.64834268272840E-08
(PID.TID 0000.0001) // =======================================================
(PID.TID 0000.0001) // Begin MONITOR dynamic field statistics
(PID.TID 0000.0001) // =======================================================
(PID.TID 0000.0001) %MON time_tsnumber                =                 72051
(PID.TID 0000.0001) %MON time_secondsf                =   1.8012750000000E+06
(PID.TID 0000.0001) %MON dynstat_eta_max              =   8.8377136730037E+00
(PID.TID 0000.0001) %MON dynstat_eta_min              =  -1.7241818851228E+00
(PID.TID 0000.0001) %MON dynstat_eta_mean             =   8.9726851649186E-03
(PID.TID 0000.0001) %MON dynstat_eta_sd               =   6.5019415687160E-01
(PID.TID 0000.0001) %MON dynstat_eta_del2             =   8.3660638268837E-03
(PID.TID 0000.0001) %MON dynstat_uvel_max             =   4.3593134158660E-01
(PID.TID 0000.0001) %MON dynstat_uvel_min             =  -3.1252509426829E-01
(PID.TID 0000.0001) %MON dynstat_uvel_mean            =  -4.6860127097038E-04
(PID.TID 0000.0001) %MON dynstat_uvel_sd              =   1.2216168970281E-02
(PID.TID 0000.0001) %MON dynstat_uvel_del2            =   6.3978532624741E-05
(PID.TID 0000.0001) %MON dynstat_vvel_max             =   3.6811434844385E-01
(PID.TID 0000.0001) %MON dynstat_vvel_min             =  -3.6557378754521E-01
(PID.TID 0000.0001) %MON dynstat_vvel_mean            =  -3.9138744670045E-04
(PID.TID 0000.0001) %MON dynstat_vvel_sd              =   1.2832279196803E-02
(PID.TID 0000.0001) %MON dynstat_vvel_del2            =   7.6195057499386E-05
(PID.TID 0000.0001) %MON dynstat_wvel_max             =   1.0335404894191E-04
(PID.TID 0000.0001) %MON dynstat_wvel_min             =  -8.4889228793158E-04
(PID.TID 0000.0001) %MON dynstat_wvel_mean            =  -1.2387040260722E-07
(PID.TID 0000.0001) %MON dynstat_wvel_sd              =   7.7626032570195E-06
(PID.TID 0000.0001) %MON dynstat_wvel_del2            =   8.8875165481874E-08
(PID.TID 0000.0001) %MON dynstat_theta_max            =   3.0925649547653E+01
(PID.TID 0000.0001) %MON dynstat_theta_min            =  -3.0176520742749E+00
(PID.TID 0000.0001) %MON dynstat_theta_mean           =   3.9089292399198E+00
(PID.TID 0000.0001) %MON dynstat_theta_sd             =   4.5705710132223E+00
(PID.TID 0000.0001) %MON dynstat_theta_del2           =   2.6557346512815E-03
(PID.TID 0000.0001) %MON dynstat_salt_max             =   4.1377432814036E+01
(PID.TID 0000.0001) %MON dynstat_salt_min             =   1.8518395021333E+01
(PID.TID 0000.0001) %MON dynstat_salt_mean            =   3.4772199621484E+01
(PID.TID 0000.0001) %MON dynstat_salt_sd              =   5.3092719185658E-01
(PID.TID 0000.0001) %MON dynstat_salt_del2            =   8.0252426759261E-04
(PID.TID 0000.0001) %MON dynstat_sst_max              =   3.0925649547653E+01
(PID.TID 0000.0001) %MON dynstat_sst_min              =  -1.8999463609637E+00
(PID.TID 0000.0001) %MON dynstat_sst_mean             =   1.8098845337724E+01
(PID.TID 0000.0001) %MON dynstat_sst_sd               =   9.8000724032242E+00
(PID.TID 0000.0001) %MON dynstat_sst_del2             =   1.5357670935465E-02
(PID.TID 0000.0001) %MON dynstat_sss_max              =   4.1377432814036E+01
(PID.TID 0000.0001) %MON dynstat_sss_min              =   1.8752124037328E+01
(PID.TID 0000.0001) %MON dynstat_sss_mean             =   3.4642085518658E+01
(PID.TID 0000.0001) %MON dynstat_sss_sd               =   1.4569472182681E+00
(PID.TID 0000.0001) %MON dynstat_sss_del2             =   8.0089637603285E-03
(PID.TID 0000.0001) %MON forcing_qnet_max             =   1.2448452148438E+04
(PID.TID 0000.0001) %MON forcing_qnet_min             =  -2.7889208984375E+04
(PID.TID 0000.0001) %MON forcing_qnet_mean            =  -2.9635653494744E+02
(PID.TID 0000.0001) %MON forcing_qnet_sd              =   1.4279477233691E+03
(PID.TID 0000.0001) %MON forcing_qnet_del2            =   4.6171449683601E+01
(PID.TID 0000.0001) %MON forcing_qsw_max              =   0.0000000000000E+00
(PID.TID 0000.0001) %MON forcing_qsw_min              =   0.0000000000000E+00
(PID.TID 0000.0001) %MON forcing_qsw_mean             =   0.0000000000000E+00
(PID.TID 0000.0001) %MON forcing_qsw_sd               =   0.0000000000000E+00
(PID.TID 0000.0001) %MON forcing_qsw_del2             =   0.0000000000000E+00
(PID.TID 0000.0001) %MON forcing_empmr_max            =   6.4097404479980E-02
(PID.TID 0000.0001) %MON forcing_empmr_min            =  -8.7860351800919E-01
(PID.TID 0000.0001) %MON forcing_empmr_mean           =  -7.2501553686651E-04
(PID.TID 0000.0001) %MON forcing_empmr_sd             =   1.5613818043476E-02
(PID.TID 0000.0001) %MON forcing_empmr_del2           =   6.1028392533336E-04
(PID.TID 0000.0001) %MON forcing_fu_max               =   5.2677829465581E-01
(PID.TID 0000.0001) %MON forcing_fu_min               =  -4.5880423782345E-01
(PID.TID 0000.0001) %MON forcing_fu_mean              =  -4.1814237346585E-03
(PID.TID 0000.0001) %MON forcing_fu_sd                =   6.9375254978744E-02
(PID.TID 0000.0001) %MON forcing_fu_del2              =   6.8235245862431E-04
(PID.TID 0000.0001) %MON forcing_fv_max               =   2.9868584949626E-01
(PID.TID 0000.0001) %MON forcing_fv_min               =  -3.9323508454932E-01
(PID.TID 0000.0001) %MON forcing_fv_mean              =  -1.3672568887233E-02
(PID.TID 0000.0001) %MON forcing_fv_sd                =   6.6233499231519E-02
(PID.TID 0000.0001) %MON forcing_fv_del2              =   5.5204045430852E-04
(PID.TID 0000.0001) %MON trAdv_CFL_u_max              =   3.9770749674025E-05
(PID.TID 0000.0001) %MON trAdv_CFL_v_max              =   5.8651318828029E-05
(PID.TID 0000.0001) %MON trAdv_CFL_w_max              =   3.9188435255202E-04
(PID.TID 0000.0001) %MON advcfl_uvel_max              =   4.2200362118064E-05
(PID.TID 0000.0001) %MON advcfl_vvel_max              =   3.3369205448145E-05
(PID.TID 0000.0001) %MON advcfl_wvel_max              =   8.4889228793158E-04
(PID.TID 0000.0001) %MON advcfl_W_hf_max              =   3.9188435255202E-04
(PID.TID 0000.0001) %MON pe_b_mean                    =   5.6329025818576E-04
(PID.TID 0000.0001) %MON ke_max                       =   9.2420430438632E-02
(PID.TID 0000.0001) %MON ke_mean                      =   1.4512439331035E-04
(PID.TID 0000.0001) %MON ke_vol                       =   1.3398057040313E+18
(PID.TID 0000.0001) %MON vort_r_min                   =  -1.3046609286872E-06
(PID.TID 0000.0001) %MON vort_r_max                   =   1.2848223597476E-06
(PID.TID 0000.0001) %MON vort_a_mean                  =  -2.0549865324846E-05
(PID.TID 0000.0001) %MON vort_a_sd                    =   7.5259519758737E-05
(PID.TID 0000.0001) %MON vort_p_mean                  =  -2.4783428002706E-05
(PID.TID 0000.0001) %MON vort_p_sd                    =   1.2811968204997E-04
(PID.TID 0000.0001) %MON surfExpan_theta_mean         =  -5.4778738498827E-06
(PID.TID 0000.0001) %MON surfExpan_salt_mean          =   6.2721614298701E-07
(PID.TID 0000.0001) // =======================================================
(PID.TID 0000.0001) // End MONITOR dynamic field statistics
(PID.TID 0000.0001) // =======================================================
 cg2d: Sum(rhs),rhsMax =  -4.29791250311615E+00  2.33299737127303E+05
(PID.TID 0000.0001)      cg2d_init_res =   4.15304093550899E-03
(PID.TID 0000.0001)      cg2d_iters(min,last) =      -1       1
(PID.TID 0000.0001)      cg2d_last_res =   3.69107329940507E-08
(PID.TID 0000.0001) // =======================================================
(PID.TID 0000.0001) // Begin MONITOR dynamic field statistics
(PID.TID 0000.0001) // =======================================================
(PID.TID 0000.0001) %MON time_tsnumber                =                 72052
(PID.TID 0000.0001) %MON time_secondsf                =   1.8013000000000E+06
(PID.TID 0000.0001) %MON dynstat_eta_max              =   8.8319043082202E+00
(PID.TID 0000.0001) %MON dynstat_eta_min              =  -1.7225341229643E+00
(PID.TID 0000.0001) %MON dynstat_eta_mean             =   8.9901717989870E-03
(PID.TID 0000.0001) %MON dynstat_eta_sd               =   6.5010553169498E-01
(PID.TID 0000.0001) %MON dynstat_eta_del2             =   8.3540776675891E-03
(PID.TID 0000.0001) %MON dynstat_uvel_max             =   4.4424168657257E-01
(PID.TID 0000.0001) %MON dynstat_uvel_min             =  -3.1553182476411E-01
(PID.TID 0000.0001) %MON dynstat_uvel_mean            =  -4.6810615794675E-04
(PID.TID 0000.0001) %MON dynstat_uvel_sd              =   1.2223782288368E-02
(PID.TID 0000.0001) %MON dynstat_uvel_del2            =   6.4431118011066E-05
(PID.TID 0000.0001) %MON dynstat_vvel_max             =   3.7556162216097E-01
(PID.TID 0000.0001) %MON dynstat_vvel_min             =  -3.7238943372530E-01
(PID.TID 0000.0001) %MON dynstat_vvel_mean            =  -3.9110794556281E-04
(PID.TID 0000.0001) %MON dynstat_vvel_sd              =   1.2839932930287E-02
(PID.TID 0000.0001) %MON dynstat_vvel_del2            =   7.7053970468658E-05
(PID.TID 0000.0001) %MON dynstat_wvel_max             =   1.0335852830816E-04
(PID.TID 0000.0001) %MON dynstat_wvel_min             =  -8.4646105190406E-04
(PID.TID 0000.0001) %MON dynstat_wvel_mean            =  -1.2532931705159E-07
(PID.TID 0000.0001) %MON dynstat_wvel_sd              =   7.8305683898993E-06
(PID.TID 0000.0001) %MON dynstat_wvel_del2            =   8.9150818631795E-08
(PID.TID 0000.0001) %MON dynstat_theta_max            =   3.0925643502102E+01
(PID.TID 0000.0001) %MON dynstat_theta_min            =  -3.0176508048494E+00
(PID.TID 0000.0001) %MON dynstat_theta_mean           =   3.9089298007238E+00
(PID.TID 0000.0001) %MON dynstat_theta_sd             =   4.5705725420807E+00
(PID.TID 0000.0001) %MON dynstat_theta_del2           =   2.6557114587920E-03
(PID.TID 0000.0001) %MON dynstat_salt_max             =   4.1377427162654E+01
(PID.TID 0000.0001) %MON dynstat_salt_min             =   1.8518395286618E+01
(PID.TID 0000.0001) %MON dynstat_salt_mean            =   3.4772199401990E+01
(PID.TID 0000.0001) %MON dynstat_salt_sd              =   5.3092752236904E-01
(PID.TID 0000.0001) %MON dynstat_salt_del2            =   8.0253714281074E-04
(PID.TID 0000.0001) %MON dynstat_sst_max              =   3.0925643502102E+01
(PID.TID 0000.0001) %MON dynstat_sst_min              =  -1.8999453242853E+00
(PID.TID 0000.0001) %MON dynstat_sst_mean             =   1.8098881864224E+01
(PID.TID 0000.0001) %MON dynstat_sst_sd               =   9.8000674959583E+00
(PID.TID 0000.0001) %MON dynstat_sst_del2             =   1.5357022642359E-02
(PID.TID 0000.0001) %MON dynstat_sss_max              =   4.1377427162654E+01
(PID.TID 0000.0001) %MON dynstat_sss_min              =   1.8752031884853E+01
(PID.TID 0000.0001) %MON dynstat_sss_mean             =   3.4642069838784E+01
(PID.TID 0000.0001) %MON dynstat_sss_sd               =   1.4569553033408E+00
(PID.TID 0000.0001) %MON dynstat_sss_del2             =   8.0091619284123E-03
(PID.TID 0000.0001) %MON forcing_qnet_max             =   1.2019455078125E+04
(PID.TID 0000.0001) %MON forcing_qnet_min             =  -2.7069683593750E+04
(PID.TID 0000.0001) %MON forcing_qnet_mean            =  -2.9118031348176E+02
(PID.TID 0000.0001) %MON forcing_qnet_sd              =   1.3884132730769E+03
(PID.TID 0000.0001) %MON forcing_qnet_del2            =   4.4956286272981E+01
(PID.TID 0000.0001) %MON forcing_qsw_max              =   0.0000000000000E+00
(PID.TID 0000.0001) %MON forcing_qsw_min              =   0.0000000000000E+00
(PID.TID 0000.0001) %MON forcing_qsw_mean             =   0.0000000000000E+00
(PID.TID 0000.0001) %MON forcing_qsw_sd               =   0.0000000000000E+00
(PID.TID 0000.0001) %MON forcing_qsw_del2             =   0.0000000000000E+00
(PID.TID 0000.0001) %MON forcing_empmr_max            =   6.3529498875141E-02
(PID.TID 0000.0001) %MON forcing_empmr_min            =  -8.7608718872070E-01
(PID.TID 0000.0001) %MON forcing_empmr_mean           =  -7.2394665042748E-04
(PID.TID 0000.0001) %MON forcing_empmr_sd             =   1.5577858830449E-02
(PID.TID 0000.0001) %MON forcing_empmr_del2           =   6.0890590999889E-04
(PID.TID 0000.0001) %MON forcing_fu_max               =   5.2677829465581E-01
(PID.TID 0000.0001) %MON forcing_fu_min               =  -4.5880423782345E-01
(PID.TID 0000.0001) %MON forcing_fu_mean              =  -4.1814237346585E-03
(PID.TID 0000.0001) %MON forcing_fu_sd                =   6.9375254978744E-02
(PID.TID 0000.0001) %MON forcing_fu_del2              =   6.8235245862431E-04
(PID.TID 0000.0001) %MON forcing_fv_max               =   2.9868584949626E-01
(PID.TID 0000.0001) %MON forcing_fv_min               =  -3.9323508454932E-01
(PID.TID 0000.0001) %MON forcing_fv_mean              =  -1.3672568887233E-02
(PID.TID 0000.0001) %MON forcing_fv_sd                =   6.6233499231519E-02
(PID.TID 0000.0001) %MON forcing_fv_del2              =   5.5204045430852E-04
(PID.TID 0000.0001) %MON trAdv_CFL_u_max              =   4.0394234048477E-05
(PID.TID 0000.0001) %MON trAdv_CFL_v_max              =   5.9858072014436E-05
(PID.TID 0000.0001) %MON trAdv_CFL_w_max              =   3.9064782219636E-04
(PID.TID 0000.0001) %MON advcfl_uvel_max              =   4.2859327895220E-05
(PID.TID 0000.0001) %MON advcfl_vvel_max              =   3.4044293522668E-05
(PID.TID 0000.0001) %MON advcfl_wvel_max              =   8.4646105190406E-04
(PID.TID 0000.0001) %MON advcfl_W_hf_max              =   3.9064782219636E-04
(PID.TID 0000.0001) %MON pe_b_mean                    =   5.6313715430266E-04
(PID.TID 0000.0001) %MON ke_max                       =   9.5799445270388E-02
(PID.TID 0000.0001) %MON ke_mean                      =   1.4530068740053E-04
(PID.TID 0000.0001) %MON ke_vol                       =   1.3398057104039E+18
(PID.TID 0000.0001) %MON vort_r_min                   =  -1.3283864937540E-06
(PID.TID 0000.0001) %MON vort_r_max                   =   1.3045925472460E-06
(PID.TID 0000.0001) %MON vort_a_mean                  =  -2.0549865324846E-05
(PID.TID 0000.0001) %MON vort_a_sd                    =   7.5259519833054E-05
(PID.TID 0000.0001) %MON vort_p_mean                  =  -2.4783427878700E-05
(PID.TID 0000.0001) %MON vort_p_sd                    =   1.2811968049509E-04
(PID.TID 0000.0001) %MON surfExpan_theta_mean         =  -5.4887126115581E-06
(PID.TID 0000.0001) %MON surfExpan_salt_mean          =   6.2941037930769E-07
(PID.TID 0000.0001) // =======================================================
(PID.TID 0000.0001) // End MONITOR dynamic field statistics
(PID.TID 0000.0001) // =======================================================
 cg2d: Sum(rhs),rhsMax =  -4.30866142822865E+00  2.33169685147363E+05
(PID.TID 0000.0001)      cg2d_init_res =   4.18832003528450E-03
(PID.TID 0000.0001)      cg2d_iters(min,last) =      -1       1
(PID.TID 0000.0001)      cg2d_last_res =   3.73351244184089E-08
(PID.TID 0000.0001) // =======================================================
(PID.TID 0000.0001) // Begin MONITOR dynamic field statistics
(PID.TID 0000.0001) // =======================================================
(PID.TID 0000.0001) %MON time_tsnumber                =                 72053
(PID.TID 0000.0001) %MON time_secondsf                =   1.8013250000000E+06
(PID.TID 0000.0001) %MON dynstat_eta_max              =   8.8259808560402E+00
(PID.TID 0000.0001) %MON dynstat_eta_min              =  -1.7208581829070E+00
(PID.TID 0000.0001) %MON dynstat_eta_mean             =   9.0076318284042E-03
(PID.TID 0000.0001) %MON dynstat_eta_sd               =   6.5001542732354E-01
(PID.TID 0000.0001) %MON dynstat_eta_del2             =   8.3419141142934E-03
(PID.TID 0000.0001) %MON dynstat_uvel_max             =   4.5254765725460E-01
(PID.TID 0000.0001) %MON dynstat_uvel_min             =  -3.1853529144062E-01
(PID.TID 0000.0001) %MON dynstat_uvel_mean            =  -4.6760692638359E-04
(PID.TID 0000.0001) %MON dynstat_uvel_sd              =   1.2231507765266E-02
(PID.TID 0000.0001) %MON dynstat_uvel_del2            =   6.4887742349428E-05
(PID.TID 0000.0001) %MON dynstat_vvel_max             =   3.8299256267581E-01
(PID.TID 0000.0001) %MON dynstat_vvel_min             =  -3.7919937289599E-01
(PID.TID 0000.0001) %MON dynstat_vvel_mean            =  -3.9082715257462E-04
(PID.TID 0000.0001) %MON dynstat_vvel_sd              =   1.2847691615253E-02
(PID.TID 0000.0001) %MON dynstat_vvel_del2            =   7.7917257925536E-05
(PID.TID 0000.0001) %MON dynstat_wvel_max             =   1.0336302543503E-04
(PID.TID 0000.0001) %MON dynstat_wvel_min             =  -8.4402970069848E-04
(PID.TID 0000.0001) %MON dynstat_wvel_mean            =  -1.2682600631471E-07
(PID.TID 0000.0001) %MON dynstat_wvel_sd              =   7.8985081334802E-06
(PID.TID 0000.0001) %MON dynstat_wvel_del2            =   8.9426907064595E-08
(PID.TID 0000.0001) %MON dynstat_theta_max            =   3.0925637457220E+01
(PID.TID 0000.0001) %MON dynstat_theta_min            =  -3.0176493332650E+00
(PID.TID 0000.0001) %MON dynstat_theta_mean           =   3.9089303532563E+00
(PID.TID 0000.0001) %MON dynstat_theta_sd             =   4.5705740586000E+00
(PID.TID 0000.0001) %MON dynstat_theta_del2           =   2.6556885806226E-03
(PID.TID 0000.0001) %MON dynstat_salt_max             =   4.1377421500502E+01
(PID.TID 0000.0001) %MON dynstat_salt_min             =   1.8518395551984E+01
(PID.TID 0000.0001) %MON dynstat_salt_mean            =   3.4772199182922E+01
(PID.TID 0000.0001) %MON dynstat_salt_sd              =   5.3092785406979E-01
(PID.TID 0000.0001) %MON dynstat_salt_del2            =   8.0255053747493E-04
(PID.TID 0000.0001) %MON dynstat_sst_max              =   3.0925637457220E+01
(PID.TID 0000.0001) %MON dynstat_sst_min              =  -1.8999442869895E+00
(PID.TID 0000.0001) %MON dynstat_sst_mean             =   1.8098917732661E+01
(PID.TID 0000.0001) %MON dynstat_sst_sd               =   9.8000630709681E+00
(PID.TID 0000.0001) %MON dynstat_sst_del2             =   1.5356385108481E-02
(PID.TID 0000.0001) %MON dynstat_sss_max              =   4.1377421500502E+01
(PID.TID 0000.0001) %MON dynstat_sss_min              =   1.8751950893992E+01
(PID.TID 0000.0001) %MON dynstat_sss_mean             =   3.4642054192079E+01
(PID.TID 0000.0001) %MON dynstat_sss_sd               =   1.4569633261461E+00
(PID.TID 0000.0001) %MON dynstat_sss_del2             =   8.0093685911257E-03
(PID.TID 0000.0001) %MON forcing_qnet_max             =   1.1590464843750E+04
(PID.TID 0000.0001) %MON forcing_qnet_min             =  -2.6269695312500E+04
(PID.TID 0000.0001) %MON forcing_qnet_mean            =  -2.8618299274055E+02
(PID.TID 0000.0001) %MON forcing_qnet_sd              =   1.3516596258689E+03
(PID.TID 0000.0001) %MON forcing_qnet_del2            =   4.3802897181340E+01
(PID.TID 0000.0001) %MON forcing_qsw_max              =   0.0000000000000E+00
(PID.TID 0000.0001) %MON forcing_qsw_min              =   0.0000000000000E+00
(PID.TID 0000.0001) %MON forcing_qsw_mean             =   0.0000000000000E+00
(PID.TID 0000.0001) %MON forcing_qsw_sd               =   0.0000000000000E+00
(PID.TID 0000.0001) %MON forcing_qsw_del2             =   0.0000000000000E+00
(PID.TID 0000.0001) %MON forcing_empmr_max            =   6.2965616583824E-02
(PID.TID 0000.0001) %MON forcing_empmr_min            =  -8.7357074022293E-01
(PID.TID 0000.0001) %MON forcing_empmr_mean           =  -7.2284521789329E-04
(PID.TID 0000.0001) %MON forcing_empmr_sd             =   1.5541703164109E-02
(PID.TID 0000.0001) %MON forcing_empmr_del2           =   6.0751652234349E-04
(PID.TID 0000.0001) %MON forcing_fu_max               =   5.2677829465581E-01
(PID.TID 0000.0001) %MON forcing_fu_min               =  -4.5880423782345E-01
(PID.TID 0000.0001) %MON forcing_fu_mean              =  -4.1814237346585E-03
(PID.TID 0000.0001) %MON forcing_fu_sd                =   6.9375254978744E-02
(PID.TID 0000.0001) %MON forcing_fu_del2              =   6.8235245862431E-04
(PID.TID 0000.0001) %MON forcing_fv_max               =   2.9868584949626E-01
(PID.TID 0000.0001) %MON forcing_fv_min               =  -3.9323508454932E-01
(PID.TID 0000.0001) %MON forcing_fv_mean              =  -1.3672568887233E-02
(PID.TID 0000.0001) %MON forcing_fv_sd                =   6.6233499231519E-02
(PID.TID 0000.0001) %MON forcing_fv_del2              =   5.5204045430852E-04
(PID.TID 0000.0001) %MON trAdv_CFL_u_max              =   4.1016398155852E-05
(PID.TID 0000.0001) %MON trAdv_CFL_v_max              =   6.1061380989814E-05
(PID.TID 0000.0001) %MON trAdv_CFL_w_max              =   3.8941005940655E-04
(PID.TID 0000.0001) %MON advcfl_uvel_max              =   4.3516760106810E-05
(PID.TID 0000.0001) %MON advcfl_vvel_max              =   3.4717901008388E-05
(PID.TID 0000.0001) %MON advcfl_wvel_max              =   8.4402970069848E-04
(PID.TID 0000.0001) %MON advcfl_W_hf_max              =   3.8941005940655E-04
(PID.TID 0000.0001) %MON pe_b_mean                    =   5.6298150974164E-04
(PID.TID 0000.0001) %MON ke_max                       =   9.9231342541630E-02
(PID.TID 0000.0001) %MON ke_mean                      =   1.4547959849862E-04
(PID.TID 0000.0001) %MON ke_vol                       =   1.3398057167670E+18
(PID.TID 0000.0001) %MON vort_r_min                   =  -1.3519075187312E-06
(PID.TID 0000.0001) %MON vort_r_max                   =   1.3241757245586E-06
(PID.TID 0000.0001) %MON vort_a_mean                  =  -2.0549865324846E-05
(PID.TID 0000.0001) %MON vort_a_sd                    =   7.5259519908166E-05
(PID.TID 0000.0001) %MON vort_p_mean                  =  -2.4783427754410E-05
(PID.TID 0000.0001) %MON vort_p_sd                    =   1.2811967894198E-04
(PID.TID 0000.0001) %MON surfExpan_theta_mean         =  -5.5014841321620E-06
(PID.TID 0000.0001) %MON surfExpan_salt_mean          =   6.3136751242736E-07
(PID.TID 0000.0001) // =======================================================
(PID.TID 0000.0001) // End MONITOR dynamic field statistics
(PID.TID 0000.0001) // =======================================================
 cg2d: Sum(rhs),rhsMax =  -4.31945779597812E+00  2.33037135547961E+05
(PID.TID 0000.0001)      cg2d_init_res =   4.22371221167557E-03
(PID.TID 0000.0001)      cg2d_iters(min,last) =      -1       1
(PID.TID 0000.0001)      cg2d_last_res =   3.77569412828645E-08
(PID.TID 0000.0001) // =======================================================
(PID.TID 0000.0001) // Begin MONITOR dynamic field statistics
(PID.TID 0000.0001) // =======================================================
(PID.TID 0000.0001) %MON time_tsnumber                =                 72054
(PID.TID 0000.0001) %MON time_secondsf                =   1.8013500000000E+06
(PID.TID 0000.0001) %MON dynstat_eta_max              =   8.8199434843371E+00
(PID.TID 0000.0001) %MON dynstat_eta_min              =  -1.7191543354934E+00
(PID.TID 0000.0001) %MON dynstat_eta_mean             =   9.0250691902488E-03
(PID.TID 0000.0001) %MON dynstat_eta_sd               =   6.4992386846852E-01
(PID.TID 0000.0001) %MON dynstat_eta_del2             =   8.3295758945961E-03
(PID.TID 0000.0001) %MON dynstat_uvel_max             =   4.6084905149436E-01
(PID.TID 0000.0001) %MON dynstat_uvel_min             =  -3.2153546580207E-01
(PID.TID 0000.0001) %MON dynstat_uvel_mean            =  -4.6710353687073E-04
(PID.TID 0000.0001) %MON dynstat_uvel_sd              =   1.2239343234419E-02
(PID.TID 0000.0001) %MON dynstat_uvel_del2            =   6.5348233372994E-05
(PID.TID 0000.0001) %MON dynstat_vvel_max             =   3.9040704918191E-01
(PID.TID 0000.0001) %MON dynstat_vvel_min             =  -3.8600349915452E-01
(PID.TID 0000.0001) %MON dynstat_vvel_mean            =  -3.9054507468821E-04
(PID.TID 0000.0001) %MON dynstat_vvel_sd              =   1.2855552601479E-02
(PID.TID 0000.0001) %MON dynstat_vvel_del2            =   7.8784584001793E-05
(PID.TID 0000.0001) %MON dynstat_wvel_max             =   1.0336754025159E-04
(PID.TID 0000.0001) %MON dynstat_wvel_min             =  -8.4163647342995E-04
(PID.TID 0000.0001) %MON dynstat_wvel_mean            =  -1.2837006540870E-07
(PID.TID 0000.0001) %MON dynstat_wvel_sd              =   7.9664453980261E-06
(PID.TID 0000.0001) %MON dynstat_wvel_del2            =   8.9706933448164E-08
(PID.TID 0000.0001) %MON dynstat_theta_max            =   3.0925631413008E+01
(PID.TID 0000.0001) %MON dynstat_theta_min            =  -3.0176476567120E+00
(PID.TID 0000.0001) %MON dynstat_theta_mean           =   3.9089308979156E+00
(PID.TID 0000.0001) %MON dynstat_theta_sd             =   4.5705755629792E+00
(PID.TID 0000.0001) %MON dynstat_theta_del2           =   2.6556660216585E-03
(PID.TID 0000.0001) %MON dynstat_salt_max             =   4.1377415626735E+01
(PID.TID 0000.0001) %MON dynstat_salt_min             =   1.8518395817428E+01
(PID.TID 0000.0001) %MON dynstat_salt_mean            =   3.4772198964274E+01
(PID.TID 0000.0001) %MON dynstat_salt_sd              =   5.3092818704790E-01
(PID.TID 0000.0001) %MON dynstat_salt_del2            =   8.0256444947409E-04
(PID.TID 0000.0001) %MON dynstat_sst_max              =   3.0925631413008E+01
(PID.TID 0000.0001) %MON dynstat_sst_min              =  -1.8999432490634E+00
(PID.TID 0000.0001) %MON dynstat_sst_mean             =   1.8098952974224E+01
(PID.TID 0000.0001) %MON dynstat_sst_sd               =   9.8000590921731E+00
(PID.TID 0000.0001) %MON dynstat_sst_del2             =   1.5355758279777E-02
(PID.TID 0000.0001) %MON dynstat_sss_max              =   4.1377415626735E+01
(PID.TID 0000.0001) %MON dynstat_sss_min              =   1.8751879893977E+01
(PID.TID 0000.0001) %MON dynstat_sss_mean             =   3.4642038577589E+01
(PID.TID 0000.0001) %MON dynstat_sss_sd               =   1.4569713004103E+00
(PID.TID 0000.0001) %MON dynstat_sss_del2             =   8.0095836828515E-03
(PID.TID 0000.0001) %MON forcing_qnet_max             =   1.1200474609375E+04
(PID.TID 0000.0001) %MON forcing_qnet_min             =  -2.5489240234375E+04
(PID.TID 0000.0001) %MON forcing_qnet_mean            =  -2.8143141140154E+02
(PID.TID 0000.0001) %MON forcing_qnet_sd              =   1.3174531131225E+03
(PID.TID 0000.0001) %MON forcing_qnet_del2            =   4.2711548802167E+01
(PID.TID 0000.0001) %MON forcing_qsw_max              =   0.0000000000000E+00
(PID.TID 0000.0001) %MON forcing_qsw_min              =   0.0000000000000E+00
(PID.TID 0000.0001) %MON forcing_qsw_mean             =   0.0000000000000E+00
(PID.TID 0000.0001) %MON forcing_qsw_sd               =   0.0000000000000E+00
(PID.TID 0000.0001) %MON forcing_qsw_del2             =   0.0000000000000E+00
(PID.TID 0000.0001) %MON forcing_empmr_max            =   6.2409784644842E-02
(PID.TID 0000.0001) %MON forcing_empmr_min            =  -8.7109375000000E-01
(PID.TID 0000.0001) %MON forcing_empmr_mean           =  -7.2190678033338E-04
(PID.TID 0000.0001) %MON forcing_empmr_sd             =   1.5506414478652E-02
(PID.TID 0000.0001) %MON forcing_empmr_del2           =   6.0616334624719E-04
(PID.TID 0000.0001) %MON forcing_fu_max               =   5.2677829465581E-01
(PID.TID 0000.0001) %MON forcing_fu_min               =  -4.5880423782345E-01
(PID.TID 0000.0001) %MON forcing_fu_mean              =  -4.1814237346585E-03
(PID.TID 0000.0001) %MON forcing_fu_sd                =   6.9375254978744E-02
(PID.TID 0000.0001) %MON forcing_fu_del2              =   6.8235245862431E-04
(PID.TID 0000.0001) %MON forcing_fv_max               =   2.9868584949626E-01
(PID.TID 0000.0001) %MON forcing_fv_min               =  -3.9323508454932E-01
(PID.TID 0000.0001) %MON forcing_fv_mean              =  -1.3672568887233E-02
(PID.TID 0000.0001) %MON forcing_fv_sd                =   6.6233499231519E-02
(PID.TID 0000.0001) %MON forcing_fv_del2              =   5.5204045430852E-04
(PID.TID 0000.0001) %MON trAdv_CFL_u_max              =   4.1637224527179E-05
(PID.TID 0000.0001) %MON trAdv_CFL_v_max              =   6.2261211129817E-05
(PID.TID 0000.0001) %MON trAdv_CFL_w_max              =   3.8818875777851E-04
(PID.TID 0000.0001) %MON advcfl_uvel_max              =   4.4172638203137E-05
(PID.TID 0000.0001) %MON advcfl_vvel_max              =   3.5390016954317E-05
(PID.TID 0000.0001) %MON advcfl_wvel_max              =   8.4163647342995E-04
(PID.TID 0000.0001) %MON advcfl_W_hf_max              =   3.8818875777852E-04
(PID.TID 0000.0001) %MON pe_b_mean                    =   5.6282336844994E-04
(PID.TID 0000.0001) %MON ke_max                       =   1.0271552167751E-01
(PID.TID 0000.0001) %MON ke_mean                      =   1.4566107529120E-04
(PID.TID 0000.0001) %MON ke_vol                       =   1.3398057231205E+18
(PID.TID 0000.0001) %MON vort_r_min                   =  -1.3752217521260E-06
(PID.TID 0000.0001) %MON vort_r_max                   =   1.3435696751171E-06
(PID.TID 0000.0001) %MON vort_a_mean                  =  -2.0549865324846E-05
(PID.TID 0000.0001) %MON vort_a_sd                    =   7.5259519984064E-05
(PID.TID 0000.0001) %MON vort_p_mean                  =  -2.4783427629841E-05
(PID.TID 0000.0001) %MON vort_p_sd                    =   1.2811967739087E-04
(PID.TID 0000.0001) %MON surfExpan_theta_mean         =  -5.5146404520539E-06
(PID.TID 0000.0001) %MON surfExpan_salt_mean          =   6.3360270732027E-07
(PID.TID 0000.0001) // =======================================================
(PID.TID 0000.0001) // End MONITOR dynamic field statistics
(PID.TID 0000.0001) // =======================================================
 cg2d: Sum(rhs),rhsMax =  -4.33030267138126E+00  2.32902091861824E+05
(PID.TID 0000.0001)      cg2d_init_res =   4.25905159200147E-03
(PID.TID 0000.0001)      cg2d_iters(min,last) =      -1       1
(PID.TID 0000.0001)      cg2d_last_res =   3.81766622763892E-08
(PID.TID 0000.0001) // =======================================================
(PID.TID 0000.0001) // Begin MONITOR dynamic field statistics
(PID.TID 0000.0001) // =======================================================
(PID.TID 0000.0001) %MON time_tsnumber                =                 72055
(PID.TID 0000.0001) %MON time_secondsf                =   1.8013750000000E+06
(PID.TID 0000.0001) %MON dynstat_eta_max              =   8.8137923635033E+00
(PID.TID 0000.0001) %MON dynstat_eta_min              =  -1.7174230082784E+00
(PID.TID 0000.0001) %MON dynstat_eta_mean             =   9.0424853511786E-03
(PID.TID 0000.0001) %MON dynstat_eta_sd               =   6.4983088076499E-01
(PID.TID 0000.0001) %MON dynstat_eta_del2             =   8.3170655876608E-03
(PID.TID 0000.0001) %MON dynstat_uvel_max             =   4.6914566782927E-01
(PID.TID 0000.0001) %MON dynstat_uvel_min             =  -3.2453231940658E-01
(PID.TID 0000.0001) %MON dynstat_uvel_mean            =  -4.6659595203922E-04
(PID.TID 0000.0001) %MON dynstat_uvel_sd              =   1.2247286528152E-02
(PID.TID 0000.0001) %MON dynstat_uvel_del2            =   6.5812423388594E-05
(PID.TID 0000.0001) %MON dynstat_vvel_max             =   3.9780496177288E-01
(PID.TID 0000.0001) %MON dynstat_vvel_min             =  -3.9280170672339E-01
(PID.TID 0000.0001) %MON dynstat_vvel_mean            =  -3.9026172151612E-04
(PID.TID 0000.0001) %MON dynstat_vvel_sd              =   1.2863513237035E-02
(PID.TID 0000.0001) %MON dynstat_vvel_del2            =   7.9655626153600E-05
(PID.TID 0000.0001) %MON dynstat_wvel_max             =   1.0337207274237E-04
(PID.TID 0000.0001) %MON dynstat_wvel_min             =  -8.3920523740243E-04
(PID.TID 0000.0001) %MON dynstat_wvel_mean            =  -1.2996294614669E-07
(PID.TID 0000.0001) %MON dynstat_wvel_sd              =   8.0342229064269E-06
(PID.TID 0000.0001) %MON dynstat_wvel_del2            =   8.9986533241453E-08
(PID.TID 0000.0001) %MON dynstat_theta_max            =   3.0925625369464E+01
(PID.TID 0000.0001) %MON dynstat_theta_min            =  -3.0176457724353E+00
(PID.TID 0000.0001) %MON dynstat_theta_mean           =   3.9089314351290E+00
(PID.TID 0000.0001) %MON dynstat_theta_sd             =   4.5705770560227E+00
(PID.TID 0000.0001) %MON dynstat_theta_del2           =   2.6556437737008E-03
(PID.TID 0000.0001) %MON dynstat_salt_max             =   4.1377409742508E+01
(PID.TID 0000.0001) %MON dynstat_salt_min             =   1.8518396082947E+01
(PID.TID 0000.0001) %MON dynstat_salt_mean            =   3.4772198746048E+01
(PID.TID 0000.0001) %MON dynstat_salt_sd              =   5.3092852122912E-01
(PID.TID 0000.0001) %MON dynstat_salt_del2            =   8.0257887972428E-04
(PID.TID 0000.0001) %MON dynstat_sst_max              =   3.0925625369464E+01
(PID.TID 0000.0001) %MON dynstat_sst_min              =  -1.8999422104945E+00
(PID.TID 0000.0001) %MON dynstat_sst_mean             =   1.8098987620678E+01
(PID.TID 0000.0001) %MON dynstat_sst_sd               =   9.8000555422487E+00
(PID.TID 0000.0001) %MON dynstat_sst_del2             =   1.5355141768784E-02
(PID.TID 0000.0001) %MON dynstat_sss_max              =   4.1377409742508E+01
(PID.TID 0000.0001) %MON dynstat_sss_min              =   1.8751817460727E+01
(PID.TID 0000.0001) %MON dynstat_sss_mean             =   3.4642022994554E+01
(PID.TID 0000.0001) %MON dynstat_sss_sd               =   1.4569792343346E+00
(PID.TID 0000.0001) %MON dynstat_sss_del2             =   8.0098071884637E-03
(PID.TID 0000.0001) %MON forcing_qnet_max             =   1.0800744140625E+04
(PID.TID 0000.0001) %MON forcing_qnet_min             =  -2.4738070312500E+04
(PID.TID 0000.0001) %MON forcing_qnet_mean            =  -2.7692994288932E+02
(PID.TID 0000.0001) %MON forcing_qnet_sd              =   1.2855579805573E+03
(PID.TID 0000.0001) %MON forcing_qnet_del2            =   4.1673865612743E+01
(PID.TID 0000.0001) %MON forcing_qsw_max              =   0.0000000000000E+00
(PID.TID 0000.0001) %MON forcing_qsw_min              =   0.0000000000000E+00
(PID.TID 0000.0001) %MON forcing_qsw_mean             =   0.0000000000000E+00
(PID.TID 0000.0001) %MON forcing_qsw_sd               =   0.0000000000000E+00
(PID.TID 0000.0001) %MON forcing_qsw_del2             =   0.0000000000000E+00
(PID.TID 0000.0001) %MON forcing_empmr_max            =   6.1857990920544E-02
(PID.TID 0000.0001) %MON forcing_empmr_min            =  -8.6857742071152E-01
(PID.TID 0000.0001) %MON forcing_empmr_mean           =  -7.2102906251340E-04
(PID.TID 0000.0001) %MON forcing_empmr_sd             =   1.5470511521865E-02
(PID.TID 0000.0001) %MON forcing_empmr_del2           =   6.0478864744205E-04
(PID.TID 0000.0001) %MON forcing_fu_max               =   5.2677829465581E-01
(PID.TID 0000.0001) %MON forcing_fu_min               =  -4.5880423782345E-01
(PID.TID 0000.0001) %MON forcing_fu_mean              =  -4.1814237346585E-03
(PID.TID 0000.0001) %MON forcing_fu_sd                =   6.9375254978744E-02
(PID.TID 0000.0001) %MON forcing_fu_del2              =   6.8235245862431E-04
(PID.TID 0000.0001) %MON forcing_fv_max               =   2.9868584949626E-01
(PID.TID 0000.0001) %MON forcing_fv_min               =  -3.9323508454932E-01
(PID.TID 0000.0001) %MON forcing_fv_mean              =  -1.3672568887233E-02
(PID.TID 0000.0001) %MON forcing_fv_sd                =   6.6233499231519E-02
(PID.TID 0000.0001) %MON forcing_fv_del2              =   5.5204045430852E-04
(PID.TID 0000.0001) %MON trAdv_CFL_u_max              =   4.2256695724608E-05
(PID.TID 0000.0001) %MON trAdv_CFL_v_max              =   6.3457527949565E-05
(PID.TID 0000.0001) %MON trAdv_CFL_w_max              =   3.8694873587881E-04
(PID.TID 0000.0001) %MON advcfl_uvel_max              =   4.4826941689929E-05
(PID.TID 0000.0001) %MON advcfl_vvel_max              =   3.6060630491059E-05
(PID.TID 0000.0001) %MON advcfl_wvel_max              =   8.3920523740243E-04
(PID.TID 0000.0001) %MON advcfl_W_hf_max              =   3.8694873587881E-04
(PID.TID 0000.0001) %MON pe_b_mean                    =   5.6266277590781E-04
(PID.TID 0000.0001) %MON ke_max                       =   1.0625137669393E-01
(PID.TID 0000.0001) %MON ke_mean                      =   1.4584506635745E-04
(PID.TID 0000.0001) %MON ke_vol                       =   1.3398057294657E+18
(PID.TID 0000.0001) %MON vort_r_min                   =  -1.3983270141699E-06
(PID.TID 0000.0001) %MON vort_r_max                   =   1.3627722097159E-06
(PID.TID 0000.0001) %MON vort_a_mean                  =  -2.0549865324846E-05
(PID.TID 0000.0001) %MON vort_a_sd                    =   7.5259520060736E-05
(PID.TID 0000.0001) %MON vort_p_mean                  =  -2.4783427504967E-05
(PID.TID 0000.0001) %MON vort_p_sd                    =   1.2811967584121E-04
(PID.TID 0000.0001) %MON surfExpan_theta_mean         =  -5.5292255604401E-06
(PID.TID 0000.0001) %MON surfExpan_salt_mean          =   6.3585513994797E-07
(PID.TID 0000.0001) // =======================================================
(PID.TID 0000.0001) // End MONITOR dynamic field statistics
(PID.TID 0000.0001) // =======================================================
 cg2d: Sum(rhs),rhsMax =  -4.34119617443854E+00  2.32764557663187E+05
(PID.TID 0000.0001)      cg2d_init_res =   4.29445032682539E-03
(PID.TID 0000.0001)      cg2d_iters(min,last) =      -1       1
(PID.TID 0000.0001)      cg2d_last_res =   3.85948144321974E-08
(PID.TID 0000.0001) // =======================================================
(PID.TID 0000.0001) // Begin MONITOR dynamic field statistics
(PID.TID 0000.0001) // =======================================================
(PID.TID 0000.0001) %MON time_tsnumber                =                 72056
(PID.TID 0000.0001) %MON time_secondsf                =   1.8014000000000E+06
(PID.TID 0000.0001) %MON dynstat_eta_max              =   8.8075276664390E+00
(PID.TID 0000.0001) %MON dynstat_eta_min              =  -1.7156643234171E+00
(PID.TID 0000.0001) %MON dynstat_eta_mean             =   9.0598797970179E-03
(PID.TID 0000.0001) %MON dynstat_eta_sd               =   6.4973649310320E-01
(PID.TID 0000.0001) %MON dynstat_eta_del2             =   8.3043858606791E-03
(PID.TID 0000.0001) %MON dynstat_uvel_max             =   4.7743730548275E-01
(PID.TID 0000.0001) %MON dynstat_uvel_min             =  -3.2752582387053E-01
(PID.TID 0000.0001) %MON dynstat_uvel_mean            =  -4.6608413615165E-04
(PID.TID 0000.0001) %MON dynstat_uvel_sd              =   1.2255335478338E-02
(PID.TID 0000.0001) %MON dynstat_uvel_del2            =   6.6280149201595E-05
(PID.TID 0000.0001) %MON dynstat_vvel_max             =   4.0518618143288E-01
(PID.TID 0000.0001) %MON dynstat_vvel_min             =  -3.9959388995324E-01
(PID.TID 0000.0001) %MON dynstat_vvel_mean            =  -3.8997710526613E-04
(PID.TID 0000.0001) %MON dynstat_vvel_sd              =   1.2871570870244E-02
(PID.TID 0000.0001) %MON dynstat_vvel_del2            =   8.0530074667459E-05
(PID.TID 0000.0001) %MON dynstat_wvel_max             =   1.0337662289402E-04
(PID.TID 0000.0001) %MON dynstat_wvel_min             =  -8.3681195254487E-04
(PID.TID 0000.0001) %MON dynstat_wvel_mean            =  -1.3156344284146E-07
(PID.TID 0000.0001) %MON dynstat_wvel_sd              =   8.1019354271865E-06
(PID.TID 0000.0001) %MON dynstat_wvel_del2            =   9.0268650944371E-08
(PID.TID 0000.0001) %MON dynstat_theta_max            =   3.0925619326585E+01
(PID.TID 0000.0001) %MON dynstat_theta_min            =  -3.0176436777330E+00
(PID.TID 0000.0001) %MON dynstat_theta_mean           =   3.9089319652915E+00
(PID.TID 0000.0001) %MON dynstat_theta_sd             =   4.5705785380774E+00
(PID.TID 0000.0001) %MON dynstat_theta_del2           =   2.6556218382831E-03
(PID.TID 0000.0001) %MON dynstat_salt_max             =   4.1377403646979E+01
(PID.TID 0000.0001) %MON dynstat_salt_min             =   1.8518396348537E+01
(PID.TID 0000.0001) %MON dynstat_salt_mean            =   3.4772198528190E+01
(PID.TID 0000.0001) %MON dynstat_salt_sd              =   5.3092885659907E-01
(PID.TID 0000.0001) %MON dynstat_salt_del2            =   8.0259382101870E-04
(PID.TID 0000.0001) %MON dynstat_sst_max              =   3.0925619326585E+01
(PID.TID 0000.0001) %MON dynstat_sst_min              =  -1.8999411712705E+00
(PID.TID 0000.0001) %MON dynstat_sst_mean             =   1.8099021702670E+01
(PID.TID 0000.0001) %MON dynstat_sst_sd               =   9.8000523911120E+00
(PID.TID 0000.0001) %MON dynstat_sst_del2             =   1.5354535464708E-02
(PID.TID 0000.0001) %MON dynstat_sss_max              =   4.1377403646979E+01
(PID.TID 0000.0001) %MON dynstat_sss_min              =   1.8751762688602E+01
(PID.TID 0000.0001) %MON dynstat_sss_mean             =   3.4642007438438E+01
(PID.TID 0000.0001) %MON dynstat_sss_sd               =   1.4569871362110E+00
(PID.TID 0000.0001) %MON dynstat_sss_del2             =   8.0100389698200E-03
(PID.TID 0000.0001) %MON forcing_qnet_max             =   1.0430263671875E+04
(PID.TID 0000.0001) %MON forcing_qnet_min             =  -2.4006431640625E+04
(PID.TID 0000.0001) %MON forcing_qnet_mean            =  -2.7266703618410E+02
(PID.TID 0000.0001) %MON forcing_qnet_sd              =   1.2556591294349E+03
(PID.TID 0000.0001) %MON forcing_qnet_del2            =   4.0695861527261E+01
(PID.TID 0000.0001) %MON forcing_qsw_max              =   0.0000000000000E+00
(PID.TID 0000.0001) %MON forcing_qsw_min              =   0.0000000000000E+00
(PID.TID 0000.0001) %MON forcing_qsw_mean             =   0.0000000000000E+00
(PID.TID 0000.0001) %MON forcing_qsw_sd               =   0.0000000000000E+00
(PID.TID 0000.0001) %MON forcing_qsw_del2             =   0.0000000000000E+00
(PID.TID 0000.0001) %MON forcing_empmr_max            =   6.1310213059187E-02
(PID.TID 0000.0001) %MON forcing_empmr_min            =  -8.6610037088394E-01
(PID.TID 0000.0001) %MON forcing_empmr_mean           =  -7.2013005774398E-04
(PID.TID 0000.0001) %MON forcing_empmr_sd             =   1.5435247536013E-02
(PID.TID 0000.0001) %MON forcing_empmr_del2           =   6.0344219666555E-04
(PID.TID 0000.0001) %MON forcing_fu_max               =   5.2677829465581E-01
(PID.TID 0000.0001) %MON forcing_fu_min               =  -4.5880423782345E-01
(PID.TID 0000.0001) %MON forcing_fu_mean              =  -4.1814237346585E-03
(PID.TID 0000.0001) %MON forcing_fu_sd                =   6.9375254978744E-02
(PID.TID 0000.0001) %MON forcing_fu_del2              =   6.8235245862431E-04
(PID.TID 0000.0001) %MON forcing_fv_max               =   2.9868584949626E-01
(PID.TID 0000.0001) %MON forcing_fv_min               =  -3.9323508454932E-01
(PID.TID 0000.0001) %MON forcing_fv_mean              =  -1.3672568887233E-02
(PID.TID 0000.0001) %MON forcing_fv_sd                =   6.6233499231519E-02
(PID.TID 0000.0001) %MON forcing_fv_del2              =   5.5204045430852E-04
(PID.TID 0000.0001) %MON trAdv_CFL_u_max              =   4.2874794341279E-05
(PID.TID 0000.0001) %MON trAdv_CFL_v_max              =   6.4650297104030E-05
(PID.TID 0000.0001) %MON trAdv_CFL_w_max              =   3.8572512599244E-04
(PID.TID 0000.0001) %MON advcfl_uvel_max              =   4.5479650128503E-05
(PID.TID 0000.0001) %MON advcfl_vvel_max              =   3.6729730829945E-05
(PID.TID 0000.0001) %MON advcfl_wvel_max              =   8.3681195254487E-04
(PID.TID 0000.0001) %MON advcfl_W_hf_max              =   3.8572512599244E-04
(PID.TID 0000.0001) %MON pe_b_mean                    =   5.6249978317460E-04
(PID.TID 0000.0001) %MON ke_max                       =   1.0983829628657E-01
(PID.TID 0000.0001) %MON ke_mean                      =   1.4603152019522E-04
(PID.TID 0000.0001) %MON ke_vol                       =   1.3398057358033E+18
(PID.TID 0000.0001) %MON vort_r_min                   =  -1.4212211959263E-06
(PID.TID 0000.0001) %MON vort_r_max                   =   1.3842231914100E-06
(PID.TID 0000.0001) %MON vort_a_mean                  =  -2.0549865324846E-05
(PID.TID 0000.0001) %MON vort_a_sd                    =   7.5259520138174E-05
(PID.TID 0000.0001) %MON vort_p_mean                  =  -2.4783427379781E-05
(PID.TID 0000.0001) %MON vort_p_sd                    =   1.2811967429290E-04
(PID.TID 0000.0001) %MON surfExpan_theta_mean         =  -5.5448272541494E-06
(PID.TID 0000.0001) %MON surfExpan_salt_mean          =   6.3799815969968E-07
(PID.TID 0000.0001) // =======================================================
(PID.TID 0000.0001) // End MONITOR dynamic field statistics
(PID.TID 0000.0001) // =======================================================
 cg2d: Sum(rhs),rhsMax =  -4.35213850349960E+00  2.32624536567640E+05
(PID.TID 0000.0001)      cg2d_init_res =   4.32980453762200E-03
(PID.TID 0000.0001)      cg2d_iters(min,last) =      -1       1
(PID.TID 0000.0001)      cg2d_last_res =   3.90116022156994E-08
(PID.TID 0000.0001) // =======================================================
(PID.TID 0000.0001) // Begin MONITOR dynamic field statistics
(PID.TID 0000.0001) // =======================================================
(PID.TID 0000.0001) %MON time_tsnumber                =                 72057
(PID.TID 0000.0001) %MON time_secondsf                =   1.8014250000000E+06
(PID.TID 0000.0001) %MON dynstat_eta_max              =   8.8011495685415E+00
(PID.TID 0000.0001) %MON dynstat_eta_min              =  -1.7138785599318E+00
(PID.TID 0000.0001) %MON dynstat_eta_mean             =   9.0772521729070E-03
(PID.TID 0000.0001) %MON dynstat_eta_sd               =   6.4964072984130E-01
(PID.TID 0000.0001) %MON dynstat_eta_del2             =   8.2915391461958E-03
(PID.TID 0000.0001) %MON dynstat_uvel_max             =   4.8572376437431E-01
(PID.TID 0000.0001) %MON dynstat_uvel_min             =  -3.3051595086482E-01
(PID.TID 0000.0001) %MON dynstat_uvel_mean            =  -4.6556805529173E-04
(PID.TID 0000.0001) %MON dynstat_uvel_sd              =   1.2263487917527E-02
(PID.TID 0000.0001) %MON dynstat_uvel_del2            =   6.6751252073915E-05
(PID.TID 0000.0001) %MON dynstat_vvel_max             =   4.1255059005570E-01
(PID.TID 0000.0001) %MON dynstat_vvel_min             =  -4.0637994332375E-01
(PID.TID 0000.0001) %MON dynstat_vvel_mean            =  -3.8969124072154E-04
(PID.TID 0000.0001) %MON dynstat_vvel_sd              =   1.2879722849785E-02
(PID.TID 0000.0001) %MON dynstat_vvel_del2            =   8.1407632134371E-05
(PID.TID 0000.0001) %MON dynstat_wvel_max             =   1.0338119064142E-04
(PID.TID 0000.0001) %MON dynstat_wvel_min             =  -8.3441866768731E-04
(PID.TID 0000.0001) %MON dynstat_wvel_mean            =  -1.3317913325402E-07
(PID.TID 0000.0001) %MON dynstat_wvel_sd              =   8.1694449966112E-06
(PID.TID 0000.0001) %MON dynstat_wvel_del2            =   9.0549434440690E-08
(PID.TID 0000.0001) %MON dynstat_theta_max            =   3.0925613284371E+01
(PID.TID 0000.0001) %MON dynstat_theta_min            =  -3.0176413699573E+00
(PID.TID 0000.0001) %MON dynstat_theta_mean           =   3.9089324888370E+00
(PID.TID 0000.0001) %MON dynstat_theta_sd             =   4.5705800093343E+00
(PID.TID 0000.0001) %MON dynstat_theta_del2           =   2.6556002044274E-03
(PID.TID 0000.0001) %MON dynstat_salt_max             =   4.1377397440807E+01
(PID.TID 0000.0001) %MON dynstat_salt_min             =   1.8518396614196E+01
(PID.TID 0000.0001) %MON dynstat_salt_mean            =   3.4772198310739E+01
(PID.TID 0000.0001) %MON dynstat_salt_sd              =   5.3092919309962E-01
(PID.TID 0000.0001) %MON dynstat_salt_del2            =   8.0260927308038E-04
(PID.TID 0000.0001) %MON dynstat_sst_max              =   3.0925613284371E+01
(PID.TID 0000.0001) %MON dynstat_sst_min              =  -1.8999401313782E+00
(PID.TID 0000.0001) %MON dynstat_sst_mean             =   1.8099055253905E+01
(PID.TID 0000.0001) %MON dynstat_sst_sd               =   9.8000495987168E+00
(PID.TID 0000.0001) %MON dynstat_sst_del2             =   1.5353938940044E-02
(PID.TID 0000.0001) %MON dynstat_sss_max              =   4.1377397440807E+01
(PID.TID 0000.0001) %MON dynstat_sss_min              =   1.8751714589550E+01
(PID.TID 0000.0001) %MON dynstat_sss_mean             =   3.4641991911629E+01
(PID.TID 0000.0001) %MON dynstat_sss_sd               =   1.4569950125679E+00
(PID.TID 0000.0001) %MON dynstat_sss_del2             =   8.0102789993427E-03
(PID.TID 0000.0001) %MON forcing_qnet_max             =   1.0059788085938E+04
(PID.TID 0000.0001) %MON forcing_qnet_min             =  -2.3294324218750E+04
(PID.TID 0000.0001) %MON forcing_qnet_mean            =  -2.6866985675081E+02
(PID.TID 0000.0001) %MON forcing_qnet_sd              =   1.2275708723745E+03
(PID.TID 0000.0001) %MON forcing_qnet_del2            =   3.9763226582083E+01
(PID.TID 0000.0001) %MON forcing_qsw_max              =   0.0000000000000E+00
(PID.TID 0000.0001) %MON forcing_qsw_min              =   0.0000000000000E+00
(PID.TID 0000.0001) %MON forcing_qsw_mean             =   0.0000000000000E+00
(PID.TID 0000.0001) %MON forcing_qsw_sd               =   0.0000000000000E+00
(PID.TID 0000.0001) %MON forcing_qsw_del2             =   0.0000000000000E+00
(PID.TID 0000.0001) %MON forcing_empmr_max            =   6.0770500451326E-02
(PID.TID 0000.0001) %MON forcing_empmr_min            =  -8.6362332105637E-01
(PID.TID 0000.0001) %MON forcing_empmr_mean           =  -7.1921636180033E-04
(PID.TID 0000.0001) %MON forcing_empmr_sd             =   1.5399665698581E-02
(PID.TID 0000.0001) %MON forcing_empmr_del2           =   6.0207704810396E-04
(PID.TID 0000.0001) %MON forcing_fu_max               =   5.2677829465581E-01
(PID.TID 0000.0001) %MON forcing_fu_min               =  -4.5880423782345E-01
(PID.TID 0000.0001) %MON forcing_fu_mean              =  -4.1814237346585E-03
(PID.TID 0000.0001) %MON forcing_fu_sd                =   6.9375254978744E-02
(PID.TID 0000.0001) %MON forcing_fu_del2              =   6.8235245862431E-04
(PID.TID 0000.0001) %MON forcing_fv_max               =   2.9868584949626E-01
(PID.TID 0000.0001) %MON forcing_fv_min               =  -3.9323508454932E-01
(PID.TID 0000.0001) %MON forcing_fv_mean              =  -1.3672568887233E-02
(PID.TID 0000.0001) %MON forcing_fv_sd                =   6.6233499231519E-02
(PID.TID 0000.0001) %MON forcing_fv_del2              =   5.5204045430852E-04
(PID.TID 0000.0001) %MON trAdv_CFL_u_max              =   4.3491503000876E-05
(PID.TID 0000.0001) %MON trAdv_CFL_v_max              =   6.5839484390362E-05
(PID.TID 0000.0001) %MON trAdv_CFL_w_max              =   3.8450039865468E-04
(PID.TID 0000.0001) %MON advcfl_uvel_max              =   4.6130743135602E-05
(PID.TID 0000.0001) %MON advcfl_vvel_max              =   3.7397307264761E-05
(PID.TID 0000.0001) %MON advcfl_wvel_max              =   8.3441866768731E-04
(PID.TID 0000.0001) %MON advcfl_W_hf_max              =   3.8450039865468E-04
(PID.TID 0000.0001) %MON pe_b_mean                    =   5.6233443345600E-04
(PID.TID 0000.0001) %MON ke_max                       =   1.1347566392297E-01
(PID.TID 0000.0001) %MON ke_mean                      =   1.4622038523045E-04
(PID.TID 0000.0001) %MON ke_vol                       =   1.3398057421329E+18
(PID.TID 0000.0001) %MON vort_r_min                   =  -1.4439022585405E-06
(PID.TID 0000.0001) %MON vort_r_max                   =   1.4097274426891E-06
(PID.TID 0000.0001) %MON vort_a_mean                  =  -2.0549865324846E-05
(PID.TID 0000.0001) %MON vort_a_sd                    =   7.5259520216365E-05
(PID.TID 0000.0001) %MON vort_p_mean                  =  -2.4783427254287E-05
(PID.TID 0000.0001) %MON vort_p_sd                    =   1.2811967274596E-04
(PID.TID 0000.0001) %MON surfExpan_theta_mean         =  -5.5604444189111E-06
(PID.TID 0000.0001) %MON surfExpan_salt_mean          =   6.4014083240246E-07
(PID.TID 0000.0001) // =======================================================
(PID.TID 0000.0001) // End MONITOR dynamic field statistics
(PID.TID 0000.0001) // =======================================================
 cg2d: Sum(rhs),rhsMax =  -4.36313052637568E+00  2.32482032231956E+05
(PID.TID 0000.0001)      cg2d_init_res =   4.36512411332109E-03
(PID.TID 0000.0001)      cg2d_iters(min,last) =      -1       1
(PID.TID 0000.0001)      cg2d_last_res =   3.94273584725660E-08
(PID.TID 0000.0001) // =======================================================
(PID.TID 0000.0001) // Begin MONITOR dynamic field statistics
(PID.TID 0000.0001) // =======================================================
(PID.TID 0000.0001) %MON time_tsnumber                =                 72058
(PID.TID 0000.0001) %MON time_secondsf                =   1.8014500000000E+06
(PID.TID 0000.0001) %MON dynstat_eta_max              =   8.7946582476930E+00
(PID.TID 0000.0001) %MON dynstat_eta_min              =  -1.7120660765591E+00
(PID.TID 0000.0001) %MON dynstat_eta_mean             =   9.0946035149338E-03
(PID.TID 0000.0001) %MON dynstat_eta_sd               =   6.4954361749578E-01
(PID.TID 0000.0001) %MON dynstat_eta_del2             =   8.2785278861567E-03
(PID.TID 0000.0001) %MON dynstat_uvel_max             =   4.9400484512962E-01
(PID.TID 0000.0001) %MON dynstat_uvel_min             =  -3.3350267211924E-01
(PID.TID 0000.0001) %MON dynstat_uvel_mean            =  -4.6504767748058E-04
(PID.TID 0000.0001) %MON dynstat_uvel_sd              =   1.2271741679711E-02
(PID.TID 0000.0001) %MON dynstat_uvel_del2            =   6.7225577675797E-05
(PID.TID 0000.0001) %MON dynstat_vvel_max             =   4.1989807044829E-01
(PID.TID 0000.0001) %MON dynstat_vvel_min             =  -4.1315976144594E-01
(PID.TID 0000.0001) %MON dynstat_vvel_mean            =  -3.8940414512504E-04
(PID.TID 0000.0001) %MON dynstat_vvel_sd              =   1.2887966526621E-02
(PID.TID 0000.0001) %MON dynstat_vvel_del2            =   8.2288012993706E-05
(PID.TID 0000.0001) %MON dynstat_wvel_max             =   1.0338577596430E-04
(PID.TID 0000.0001) %MON dynstat_wvel_min             =  -8.3198737407076E-04
(PID.TID 0000.0001) %MON dynstat_wvel_mean            =  -1.3479458319427E-07
(PID.TID 0000.0001) %MON dynstat_wvel_sd              =   8.2367130094476E-06
(PID.TID 0000.0001) %MON dynstat_wvel_del2            =   9.0829506883143E-08
(PID.TID 0000.0001) %MON dynstat_theta_max            =   3.0925607242822E+01
(PID.TID 0000.0001) %MON dynstat_theta_min            =  -3.0176388465117E+00
(PID.TID 0000.0001) %MON dynstat_theta_mean           =   3.9089330060464E+00
(PID.TID 0000.0001) %MON dynstat_theta_sd             =   4.5705814701793E+00
(PID.TID 0000.0001) %MON dynstat_theta_del2           =   2.6555788793251E-03
(PID.TID 0000.0001) %MON dynstat_salt_max             =   4.1377391224646E+01
(PID.TID 0000.0001) %MON dynstat_salt_min             =   1.8518396879922E+01
(PID.TID 0000.0001) %MON dynstat_salt_mean            =   3.4772198093642E+01
(PID.TID 0000.0001) %MON dynstat_salt_sd              =   5.3092953074179E-01
(PID.TID 0000.0001) %MON dynstat_salt_del2            =   8.0262522930896E-04
(PID.TID 0000.0001) %MON dynstat_sst_max              =   3.0925607242822E+01
(PID.TID 0000.0001) %MON dynstat_sst_min              =  -1.8999390908056E+00
(PID.TID 0000.0001) %MON dynstat_sst_mean             =   1.8099088296675E+01
(PID.TID 0000.0001) %MON dynstat_sst_sd               =   9.8000471477951E+00
(PID.TID 0000.0001) %MON dynstat_sst_del2             =   1.5353352277205E-02
(PID.TID 0000.0001) %MON dynstat_sss_max              =   4.1377391224646E+01
(PID.TID 0000.0001) %MON dynstat_sss_min              =   1.8751672369309E+01
(PID.TID 0000.0001) %MON dynstat_sss_mean             =   3.4641976409834E+01
(PID.TID 0000.0001) %MON dynstat_sss_sd               =   1.4570028702433E+00
(PID.TID 0000.0001) %MON dynstat_sss_del2             =   8.0105271527779E-03
(PID.TID 0000.0001) %MON forcing_qnet_max             =   9.7185625000000E+03
(PID.TID 0000.0001) %MON forcing_qnet_min             =  -2.2611492187500E+04
(PID.TID 0000.0001) %MON forcing_qnet_mean            =  -2.6484565513249E+02
(PID.TID 0000.0001) %MON forcing_qnet_sd              =   1.2013076377076E+03
(PID.TID 0000.0001) %MON forcing_qnet_del2            =   3.8881873914480E+01
(PID.TID 0000.0001) %MON forcing_qsw_max              =   0.0000000000000E+00
(PID.TID 0000.0001) %MON forcing_qsw_min              =   0.0000000000000E+00
(PID.TID 0000.0001) %MON forcing_qsw_mean             =   0.0000000000000E+00
(PID.TID 0000.0001) %MON forcing_qsw_sd               =   0.0000000000000E+00
(PID.TID 0000.0001) %MON forcing_qsw_del2             =   0.0000000000000E+00
(PID.TID 0000.0001) %MON forcing_empmr_max            =   6.0230784118176E-02
(PID.TID 0000.0001) %MON forcing_empmr_min            =  -8.6110693216324E-01
(PID.TID 0000.0001) %MON forcing_empmr_mean           =  -7.1834555991829E-04
(PID.TID 0000.0001) %MON forcing_empmr_sd             =   1.5363986870583E-02
(PID.TID 0000.0001) %MON forcing_empmr_del2           =   6.0070661634322E-04
(PID.TID 0000.0001) %MON forcing_fu_max               =   5.2677829465581E-01
(PID.TID 0000.0001) %MON forcing_fu_min               =  -4.5880423782345E-01
(PID.TID 0000.0001) %MON forcing_fu_mean              =  -4.1814237346585E-03
(PID.TID 0000.0001) %MON forcing_fu_sd                =   6.9375254978744E-02
(PID.TID 0000.0001) %MON forcing_fu_del2              =   6.8235245862431E-04
(PID.TID 0000.0001) %MON forcing_fv_max               =   2.9868584949626E-01
(PID.TID 0000.0001) %MON forcing_fv_min               =  -3.9323508454932E-01
(PID.TID 0000.0001) %MON forcing_fv_mean              =  -1.3672568887233E-02
(PID.TID 0000.0001) %MON forcing_fv_sd                =   6.6233499231519E-02
(PID.TID 0000.0001) %MON forcing_fv_del2              =   5.5204045430852E-04
(PID.TID 0000.0001) %MON trAdv_CFL_u_max              =   4.4106804358676E-05
(PID.TID 0000.0001) %MON trAdv_CFL_v_max              =   6.7025055748574E-05
(PID.TID 0000.0001) %MON trAdv_CFL_w_max              =   3.8325700025979E-04
(PID.TID 0000.0001) %MON advcfl_uvel_max              =   4.6780200384821E-05
(PID.TID 0000.0001) %MON advcfl_vvel_max              =   3.8063349172074E-05
(PID.TID 0000.0001) %MON advcfl_wvel_max              =   8.3198737407076E-04
(PID.TID 0000.0001) %MON advcfl_W_hf_max              =   3.8325700025979E-04
(PID.TID 0000.0001) %MON pe_b_mean                    =   5.6216677371706E-04
(PID.TID 0000.0001) %MON ke_max                       =   1.1716285793591E-01
(PID.TID 0000.0001) %MON ke_mean                      =   1.4641160984448E-04
(PID.TID 0000.0001) %MON ke_vol                       =   1.3398057484544E+18
(PID.TID 0000.0001) %MON vort_r_min                   =  -1.4663682320776E-06
(PID.TID 0000.0001) %MON vort_r_max                   =   1.4351619667607E-06
(PID.TID 0000.0001) %MON vort_a_mean                  =  -2.0549865324846E-05
(PID.TID 0000.0001) %MON vort_a_sd                    =   7.5259520295298E-05
(PID.TID 0000.0001) %MON vort_p_mean                  =  -2.4783427128487E-05
(PID.TID 0000.0001) %MON vort_p_sd                    =   1.2811967120023E-04
(PID.TID 0000.0001) %MON surfExpan_theta_mean         =  -5.5761779996309E-06
(PID.TID 0000.0001) %MON surfExpan_salt_mean          =   6.4230320074981E-07
(PID.TID 0000.0001) // =======================================================
(PID.TID 0000.0001) // End MONITOR dynamic field statistics
(PID.TID 0000.0001) // =======================================================
 cg2d: Sum(rhs),rhsMax =  -4.37417289699795E+00  2.32337048353931E+05
(PID.TID 0000.0001)      cg2d_init_res =   4.40048724821747E-03
(PID.TID 0000.0001)      cg2d_iters(min,last) =      -1       1
(PID.TID 0000.0001)      cg2d_last_res =   3.98426359734604E-08
(PID.TID 0000.0001) // =======================================================
(PID.TID 0000.0001) // Begin MONITOR dynamic field statistics
(PID.TID 0000.0001) // =======================================================
(PID.TID 0000.0001) %MON time_tsnumber                =                 72059
(PID.TID 0000.0001) %MON time_secondsf                =   1.8014750000000E+06
(PID.TID 0000.0001) %MON dynstat_eta_max              =   8.7880538842497E+00
(PID.TID 0000.0001) %MON dynstat_eta_min              =  -1.7102271575500E+00
(PID.TID 0000.0001) %MON dynstat_eta_mean             =   9.1119344056604E-03
(PID.TID 0000.0001) %MON dynstat_eta_sd               =   6.4944518241665E-01
(PID.TID 0000.0001) %MON dynstat_eta_del2             =   8.2653546189835E-03
(PID.TID 0000.0001) %MON dynstat_uvel_max             =   5.0228034909193E-01
(PID.TID 0000.0001) %MON dynstat_uvel_min             =  -3.3648595941875E-01
(PID.TID 0000.0001) %MON dynstat_uvel_mean            =  -4.6452297264514E-04
(PID.TID 0000.0001) %MON dynstat_uvel_sd              =   1.2280094601534E-02
(PID.TID 0000.0001) %MON dynstat_uvel_del2            =   6.7702976035410E-05
(PID.TID 0000.0001) %MON dynstat_vvel_max             =   4.2722850633566E-01
(PID.TID 0000.0001) %MON dynstat_vvel_min             =  -4.1993323906277E-01
(PID.TID 0000.0001) %MON dynstat_vvel_mean            =  -3.8911583842743E-04
(PID.TID 0000.0001) %MON dynstat_vvel_sd              =   1.2896299255327E-02
(PID.TID 0000.0001) %MON dynstat_vvel_del2            =   8.3170943063499E-05
(PID.TID 0000.0001) %MON dynstat_wvel_max             =   1.0339037884640E-04
(PID.TID 0000.0001) %MON dynstat_wvel_min             =  -8.2963204038316E-04
(PID.TID 0000.0001) %MON dynstat_wvel_mean            =  -1.3643737168680E-07
(PID.TID 0000.0001) %MON dynstat_wvel_sd              =   8.3038664393799E-06
(PID.TID 0000.0001) %MON dynstat_wvel_del2            =   9.1113246219767E-08
(PID.TID 0000.0001) %MON dynstat_theta_max            =   3.0925601201935E+01
(PID.TID 0000.0001) %MON dynstat_theta_min            =  -3.0176361048554E+00
(PID.TID 0000.0001) %MON dynstat_theta_mean           =   3.9089335170941E+00
(PID.TID 0000.0001) %MON dynstat_theta_sd             =   4.5705829206012E+00
(PID.TID 0000.0001) %MON dynstat_theta_del2           =   2.6555578578392E-03
(PID.TID 0000.0001) %MON dynstat_salt_max             =   4.1377384797665E+01
(PID.TID 0000.0001) %MON dynstat_salt_min             =   1.8518397145711E+01
(PID.TID 0000.0001) %MON dynstat_salt_mean            =   3.4772197876882E+01
(PID.TID 0000.0001) %MON dynstat_salt_sd              =   5.3092986950729E-01
(PID.TID 0000.0001) %MON dynstat_salt_del2            =   8.0264169465093E-04
(PID.TID 0000.0001) %MON dynstat_sst_max              =   3.0925601201935E+01
(PID.TID 0000.0001) %MON dynstat_sst_min              =  -1.8999380495399E+00
(PID.TID 0000.0001) %MON dynstat_sst_mean             =   1.8099120843210E+01
(PID.TID 0000.0001) %MON dynstat_sst_sd               =   9.8000450191005E+00
(PID.TID 0000.0001) %MON dynstat_sst_del2             =   1.5352775229213E-02
(PID.TID 0000.0001) %MON dynstat_sss_max              =   4.1377384797665E+01
(PID.TID 0000.0001) %MON dynstat_sss_min              =   1.8751635337540E+01
(PID.TID 0000.0001) %MON dynstat_sss_mean             =   3.4641960930971E+01
(PID.TID 0000.0001) %MON dynstat_sss_sd               =   1.4570107140783E+00
(PID.TID 0000.0001) %MON dynstat_sss_del2             =   8.0107834926265E-03
(PID.TID 0000.0001) %MON forcing_qnet_max             =   9.3773417968750E+03
(PID.TID 0000.0001) %MON forcing_qnet_min             =  -2.1948187500000E+04
(PID.TID 0000.0001) %MON forcing_qnet_mean            =  -2.6112054845722E+02
(PID.TID 0000.0001) %MON forcing_qnet_sd              =   1.1764548713522E+03
(PID.TID 0000.0001) %MON forcing_qnet_del2            =   3.8047943532855E+01
(PID.TID 0000.0001) %MON forcing_qsw_max              =   0.0000000000000E+00
(PID.TID 0000.0001) %MON forcing_qsw_min              =   0.0000000000000E+00
(PID.TID 0000.0001) %MON forcing_qsw_mean             =   0.0000000000000E+00
(PID.TID 0000.0001) %MON forcing_qsw_sd               =   0.0000000000000E+00
(PID.TID 0000.0001) %MON forcing_qsw_del2             =   0.0000000000000E+00
(PID.TID 0000.0001) %MON forcing_empmr_max            =   5.9699118137360E-02
(PID.TID 0000.0001) %MON forcing_empmr_min            =  -8.5866916179657E-01
(PID.TID 0000.0001) %MON forcing_empmr_mean           =  -7.1749887607864E-04
(PID.TID 0000.0001) %MON forcing_empmr_sd             =   1.5329240202678E-02
(PID.TID 0000.0001) %MON forcing_empmr_del2           =   5.9937493576412E-04
(PID.TID 0000.0001) %MON forcing_fu_max               =   5.2677829465581E-01
(PID.TID 0000.0001) %MON forcing_fu_min               =  -4.5880423782345E-01
(PID.TID 0000.0001) %MON forcing_fu_mean              =  -4.1814237346585E-03
(PID.TID 0000.0001) %MON forcing_fu_sd                =   6.9375254978744E-02
(PID.TID 0000.0001) %MON forcing_fu_del2              =   6.8235245862431E-04
(PID.TID 0000.0001) %MON forcing_fv_max               =   2.9868584949626E-01
(PID.TID 0000.0001) %MON forcing_fv_min               =  -3.9323508454932E-01
(PID.TID 0000.0001) %MON forcing_fv_mean              =  -1.3672568887233E-02
(PID.TID 0000.0001) %MON forcing_fv_sd                =   6.6233499231519E-02
(PID.TID 0000.0001) %MON forcing_fv_del2              =   5.5204045430852E-04
(PID.TID 0000.0001) %MON trAdv_CFL_u_max              =   4.4720681101867E-05
(PID.TID 0000.0001) %MON trAdv_CFL_v_max              =   6.8206977263318E-05
(PID.TID 0000.0001) %MON trAdv_CFL_w_max              =   3.8204762994550E-04
(PID.TID 0000.0001) %MON advcfl_uvel_max              =   4.7428001607242E-05
(PID.TID 0000.0001) %MON advcfl_vvel_max              =   3.8727846011668E-05
(PID.TID 0000.0001) %MON advcfl_wvel_max              =   8.2963204038316E-04
(PID.TID 0000.0001) %MON advcfl_W_hf_max              =   3.8204762994550E-04
(PID.TID 0000.0001) %MON pe_b_mean                    =   5.6199685061100E-04
(PID.TID 0000.0001) %MON ke_max                       =   1.2089925161770E-01
(PID.TID 0000.0001) %MON ke_mean                      =   1.4660514239942E-04
(PID.TID 0000.0001) %MON ke_vol                       =   1.3398057547684E+18
(PID.TID 0000.0001) %MON vort_r_min                   =  -1.4886172146384E-06
(PID.TID 0000.0001) %MON vort_r_max                   =   1.4605264935859E-06
(PID.TID 0000.0001) %MON vort_a_mean                  =  -2.0549865324846E-05
(PID.TID 0000.0001) %MON vort_a_sd                    =   7.5259520374962E-05
(PID.TID 0000.0001) %MON vort_p_mean                  =  -2.4783427002379E-05
(PID.TID 0000.0001) %MON vort_p_sd                    =   1.2811966965559E-04
(PID.TID 0000.0001) %MON surfExpan_theta_mean         =  -5.5924470792452E-06
(PID.TID 0000.0001) %MON surfExpan_salt_mean          =   6.4450707574165E-07
(PID.TID 0000.0001) // =======================================================
(PID.TID 0000.0001) // End MONITOR dynamic field statistics
(PID.TID 0000.0001) // =======================================================
 cg2d: Sum(rhs),rhsMax =  -4.38526579314689E+00  2.32189588672324E+05
(PID.TID 0000.0001)      cg2d_init_res =   4.43575846886227E-03
(PID.TID 0000.0001)      cg2d_iters(min,last) =      -1       1
(PID.TID 0000.0001)      cg2d_last_res =   4.02571352972070E-08
(PID.TID 0000.0001) // =======================================================
(PID.TID 0000.0001) // Begin MONITOR dynamic field statistics
(PID.TID 0000.0001) // =======================================================
(PID.TID 0000.0001) %MON time_tsnumber                =                 72060
(PID.TID 0000.0001) %MON time_secondsf                =   1.8015000000000E+06
(PID.TID 0000.0001) %MON dynstat_eta_max              =   8.7813366610299E+00
(PID.TID 0000.0001) %MON dynstat_eta_min              =  -1.7083620896465E+00
(PID.TID 0000.0001) %MON dynstat_eta_mean             =   9.1292444293844E-03
(PID.TID 0000.0001) %MON dynstat_eta_sd               =   6.4934545004857E-01
(PID.TID 0000.0001) %MON dynstat_eta_del2             =   8.2520216958607E-03
(PID.TID 0000.0001) %MON dynstat_uvel_max             =   5.1055007832431E-01
(PID.TID 0000.0001) %MON dynstat_uvel_min             =  -3.3946578460783E-01
(PID.TID 0000.0001) %MON dynstat_uvel_mean            =  -4.6399391240123E-04
(PID.TID 0000.0001) %MON dynstat_uvel_sd              =   1.2288544522434E-02
(PID.TID 0000.0001) %MON dynstat_uvel_del2            =   6.8183301430477E-05
(PID.TID 0000.0001) %MON dynstat_vvel_max             =   4.3454178236792E-01
(PID.TID 0000.0001) %MON dynstat_vvel_min             =  -4.2670027105357E-01
(PID.TID 0000.0001) %MON dynstat_vvel_mean            =  -3.8882634282411E-04
(PID.TID 0000.0001) %MON dynstat_vvel_sd              =   1.2904718394935E-02
(PID.TID 0000.0001) %MON dynstat_vvel_del2            =   8.4056159079048E-05
(PID.TID 0000.0001) %MON dynstat_wvel_max             =   1.0339499927801E-04
(PID.TID 0000.0001) %MON dynstat_wvel_min             =  -8.2723881311463E-04
(PID.TID 0000.0001) %MON dynstat_wvel_mean            =  -1.3807931529053E-07
(PID.TID 0000.0001) %MON dynstat_wvel_sd              =   8.3706941110295E-06
(PID.TID 0000.0001) %MON dynstat_wvel_del2            =   9.1394772381570E-08
(PID.TID 0000.0001) %MON dynstat_theta_max            =   3.0925595161709E+01
(PID.TID 0000.0001) %MON dynstat_theta_min            =  -3.0176331425024E+00
(PID.TID 0000.0001) %MON dynstat_theta_mean           =   3.9089340222160E+00
(PID.TID 0000.0001) %MON dynstat_theta_sd             =   4.5705843606222E+00
(PID.TID 0000.0001) %MON dynstat_theta_del2           =   2.6555371392480E-03
(PID.TID 0000.0001) %MON dynstat_salt_max             =   4.1377378361017E+01
(PID.TID 0000.0001) %MON dynstat_salt_min             =   1.8518397411563E+01
(PID.TID 0000.0001) %MON dynstat_salt_mean            =   3.4772197660488E+01
(PID.TID 0000.0001) %MON dynstat_salt_sd              =   5.3093020948452E-01
(PID.TID 0000.0001) %MON dynstat_salt_del2            =   8.0265866685578E-04
(PID.TID 0000.0001) %MON dynstat_sst_max              =   3.0925595161709E+01
(PID.TID 0000.0001) %MON dynstat_sst_min              =  -1.8999370075685E+00
(PID.TID 0000.0001) %MON dynstat_sst_mean             =   1.8099152914615E+01
(PID.TID 0000.0001) %MON dynstat_sst_sd               =   9.8000431881398E+00
(PID.TID 0000.0001) %MON dynstat_sst_del2             =   1.5352207678955E-02
(PID.TID 0000.0001) %MON dynstat_sss_max              =   4.1377378361017E+01
(PID.TID 0000.0001) %MON dynstat_sss_min              =   1.8751602755931E+01
(PID.TID 0000.0001) %MON dynstat_sss_mean             =   3.4641945477404E+01
(PID.TID 0000.0001) %MON dynstat_sss_sd               =   1.4570185526446E+00
(PID.TID 0000.0001) %MON dynstat_sss_del2             =   8.0110479657626E-03
(PID.TID 0000.0001) %MON forcing_qnet_max             =   9.0458750000000E+03
(PID.TID 0000.0001) %MON forcing_qnet_min             =  -2.1294658203125E+04
(PID.TID 0000.0001) %MON forcing_qnet_mean            =  -2.5754332004817E+02
(PID.TID 0000.0001) %MON forcing_qnet_sd              =   1.1529199880615E+03
(PID.TID 0000.0001) %MON forcing_qnet_del2            =   3.7240601411344E+01
(PID.TID 0000.0001) %MON forcing_qsw_max              =   0.0000000000000E+00
(PID.TID 0000.0001) %MON forcing_qsw_min              =   0.0000000000000E+00
(PID.TID 0000.0001) %MON forcing_qsw_mean             =   0.0000000000000E+00
(PID.TID 0000.0001) %MON forcing_qsw_sd               =   0.0000000000000E+00
(PID.TID 0000.0001) %MON forcing_qsw_del2             =   0.0000000000000E+00
(PID.TID 0000.0001) %MON forcing_empmr_max            =   5.9171490371227E-02
(PID.TID 0000.0001) %MON forcing_empmr_min            =  -8.5619217157364E-01
(PID.TID 0000.0001) %MON forcing_empmr_mean           =  -7.1663498218027E-04
(PID.TID 0000.0001) %MON forcing_empmr_sd             =   1.5294031230644E-02
(PID.TID 0000.0001) %MON forcing_empmr_del2           =   5.9802754317243E-04
(PID.TID 0000.0001) %MON forcing_fu_max               =   5.2677829465581E-01
(PID.TID 0000.0001) %MON forcing_fu_min               =  -4.5880423782345E-01
(PID.TID 0000.0001) %MON forcing_fu_mean              =  -4.1814237346585E-03
(PID.TID 0000.0001) %MON forcing_fu_sd                =   6.9375254978744E-02
(PID.TID 0000.0001) %MON forcing_fu_del2              =   6.8235245862431E-04
(PID.TID 0000.0001) %MON forcing_fv_max               =   2.9868584949626E-01
(PID.TID 0000.0001) %MON forcing_fv_min               =  -3.9323508454932E-01
(PID.TID 0000.0001) %MON forcing_fv_mean              =  -1.3672568887233E-02
(PID.TID 0000.0001) %MON forcing_fv_sd                =   6.6233499231519E-02
(PID.TID 0000.0001) %MON forcing_fv_del2              =   5.5204045430852E-04
(PID.TID 0000.0001) %MON trAdv_CFL_u_max              =   4.5333115949559E-05
(PID.TID 0000.0001) %MON trAdv_CFL_v_max              =   6.9385215165954E-05
(PID.TID 0000.0001) %MON trAdv_CFL_w_max              =   3.8081967358756E-04
(PID.TID 0000.0001) %MON advcfl_uvel_max              =   4.8074126591764E-05
(PID.TID 0000.0001) %MON advcfl_vvel_max              =   3.9390787327189E-05
(PID.TID 0000.0001) %MON advcfl_wvel_max              =   8.2723881311463E-04
(PID.TID 0000.0001) %MON advcfl_W_hf_max              =   3.8081967358756E-04
(PID.TID 0000.0001) %MON pe_b_mean                    =   5.6182470918717E-04
(PID.TID 0000.0001) %MON ke_max                       =   1.2468421331479E-01
(PID.TID 0000.0001) %MON ke_mean                      =   1.4680093124569E-04
(PID.TID 0000.0001) %MON ke_vol                       =   1.3398057610748E+18
(PID.TID 0000.0001) %MON vort_r_min                   =  -1.5106473712959E-06
(PID.TID 0000.0001) %MON vort_r_max                   =   1.4858207541199E-06
(PID.TID 0000.0001) %MON vort_a_mean                  =  -2.0549865324846E-05
(PID.TID 0000.0001) %MON vort_a_sd                    =   7.5259520455343E-05
(PID.TID 0000.0001) %MON vort_p_mean                  =  -2.4783426875961E-05
(PID.TID 0000.0001) %MON vort_p_sd                    =   1.2811966811178E-04
(PID.TID 0000.0001) %MON surfExpan_theta_mean         =  -5.6086397285111E-06
(PID.TID 0000.0001) %MON surfExpan_salt_mean          =   6.4673146683289E-07
(PID.TID 0000.0001) // =======================================================
(PID.TID 0000.0001) // End MONITOR dynamic field statistics
(PID.TID 0000.0001) // =======================================================
 cg2d: Sum(rhs),rhsMax =  -4.39640956873667E+00  2.32039656966766E+05
(PID.TID 0000.0001)      cg2d_init_res =   4.47099980481300E-03
(PID.TID 0000.0001)      cg2d_iters(min,last) =      -1       1
(PID.TID 0000.0001)      cg2d_last_res =   4.06712549759149E-08
(PID.TID 0000.0001) // =======================================================
(PID.TID 0000.0001) // Begin MONITOR dynamic field statistics
(PID.TID 0000.0001) // =======================================================
(PID.TID 0000.0001) %MON time_tsnumber                =                 72061
(PID.TID 0000.0001) %MON time_secondsf                =   1.8015250000000E+06
(PID.TID 0000.0001) %MON dynstat_eta_max              =   8.7745067633023E+00
(PID.TID 0000.0001) %MON dynstat_eta_min              =  -1.7064711619988E+00
(PID.TID 0000.0001) %MON dynstat_eta_mean             =   9.1465335322734E-03
(PID.TID 0000.0001) %MON dynstat_eta_sd               =   6.4924444649059E-01
(PID.TID 0000.0001) %MON dynstat_eta_del2             =   8.2385314141594E-03
(PID.TID 0000.0001) %MON dynstat_uvel_max             =   5.1881383562983E-01
(PID.TID 0000.0001) %MON dynstat_uvel_min             =  -3.4244211958675E-01
(PID.TID 0000.0001) %MON dynstat_uvel_mean            =  -4.6346047024523E-04
(PID.TID 0000.0001) %MON dynstat_uvel_sd              =   1.2297089285886E-02
(PID.TID 0000.0001) %MON dynstat_uvel_del2            =   6.8666412320963E-05
(PID.TID 0000.0001) %MON dynstat_vvel_max             =   4.4183778413078E-01
(PID.TID 0000.0001) %MON dynstat_vvel_min             =  -4.3346075243611E-01
(PID.TID 0000.0001) %MON dynstat_vvel_mean            =  -3.8853568306359E-04
(PID.TID 0000.0001) %MON dynstat_vvel_sd              =   1.2913221310022E-02
(PID.TID 0000.0001) %MON dynstat_vvel_del2            =   8.4943408234980E-05
(PID.TID 0000.0001) %MON dynstat_wvel_max             =   1.0339963721006E-04
(PID.TID 0000.0001) %MON dynstat_wvel_min             =  -8.2488353701605E-04
(PID.TID 0000.0001) %MON dynstat_wvel_mean            =  -1.3973016561656E-07
(PID.TID 0000.0001) %MON dynstat_wvel_sd              =   8.4372683441871E-06
(PID.TID 0000.0001) %MON dynstat_wvel_del2            =   9.1676710632653E-08
(PID.TID 0000.0001) %MON dynstat_theta_max            =   3.0925589122144E+01
(PID.TID 0000.0001) %MON dynstat_theta_min            =  -3.0176299570218E+00
(PID.TID 0000.0001) %MON dynstat_theta_mean           =   3.9089345217713E+00
(PID.TID 0000.0001) %MON dynstat_theta_sd             =   4.5705857910542E+00
(PID.TID 0000.0001) %MON dynstat_theta_del2           =   2.6555167187488E-03
(PID.TID 0000.0001) %MON dynstat_salt_max             =   4.1377371814368E+01
(PID.TID 0000.0001) %MON dynstat_salt_min             =   1.8518397677475E+01
(PID.TID 0000.0001) %MON dynstat_salt_mean            =   3.4772197444415E+01
(PID.TID 0000.0001) %MON dynstat_salt_sd              =   5.3093055045408E-01
(PID.TID 0000.0001) %MON dynstat_salt_del2            =   8.0267613200345E-04
(PID.TID 0000.0001) %MON dynstat_sst_max              =   3.0925589122144E+01
(PID.TID 0000.0001) %MON dynstat_sst_min              =  -1.8999359648790E+00
(PID.TID 0000.0001) %MON dynstat_sst_mean             =   1.8099184538889E+01
(PID.TID 0000.0001) %MON dynstat_sst_sd               =   9.8000416440788E+00
(PID.TID 0000.0001) %MON dynstat_sst_del2             =   1.5351649410520E-02
(PID.TID 0000.0001) %MON dynstat_sss_max              =   4.1377371814368E+01
(PID.TID 0000.0001) %MON dynstat_sss_min              =   1.8751574183400E+01
(PID.TID 0000.0001) %MON dynstat_sss_mean             =   3.4641930045652E+01
(PID.TID 0000.0001) %MON dynstat_sss_sd               =   1.4570263844901E+00
(PID.TID 0000.0001) %MON dynstat_sss_del2             =   8.0113203382212E-03
(PID.TID 0000.0001) %MON forcing_qnet_max             =   8.7339072265625E+03
(PID.TID 0000.0001) %MON forcing_qnet_min             =  -2.0670402343750E+04
(PID.TID 0000.0001) %MON forcing_qnet_mean            =  -2.5418512632930E+02
(PID.TID 0000.0001) %MON forcing_qnet_sd              =   1.1307404375325E+03
(PID.TID 0000.0001) %MON forcing_qnet_del2            =   3.6474299583815E+01
(PID.TID 0000.0001) %MON forcing_qsw_max              =   0.0000000000000E+00
(PID.TID 0000.0001) %MON forcing_qsw_min              =   0.0000000000000E+00
(PID.TID 0000.0001) %MON forcing_qsw_mean             =   0.0000000000000E+00
(PID.TID 0000.0001) %MON forcing_qsw_sd               =   0.0000000000000E+00
(PID.TID 0000.0001) %MON forcing_qsw_del2             =   0.0000000000000E+00
(PID.TID 0000.0001) %MON forcing_empmr_max            =   5.8647878468037E-02
(PID.TID 0000.0001) %MON forcing_empmr_min            =  -8.5375446081161E-01
(PID.TID 0000.0001) %MON forcing_empmr_mean           =  -7.1576885960743E-04
(PID.TID 0000.0001) %MON forcing_empmr_sd             =   1.5259162768443E-02
(PID.TID 0000.0001) %MON forcing_empmr_del2           =   5.9668932665786E-04
(PID.TID 0000.0001) %MON forcing_fu_max               =   5.2677829465581E-01
(PID.TID 0000.0001) %MON forcing_fu_min               =  -4.5880423782345E-01
(PID.TID 0000.0001) %MON forcing_fu_mean              =  -4.1814237346585E-03
(PID.TID 0000.0001) %MON forcing_fu_sd                =   6.9375254978744E-02
(PID.TID 0000.0001) %MON forcing_fu_del2              =   6.8235245862431E-04
(PID.TID 0000.0001) %MON forcing_fv_max               =   2.9868584949626E-01
(PID.TID 0000.0001) %MON forcing_fv_min               =  -3.9323508454932E-01
(PID.TID 0000.0001) %MON forcing_fv_mean              =  -1.3672568887233E-02
(PID.TID 0000.0001) %MON forcing_fv_sd                =   6.6233499231519E-02
(PID.TID 0000.0001) %MON forcing_fv_del2              =   5.5204045430852E-04
(PID.TID 0000.0001) %MON trAdv_CFL_u_max              =   4.5944091652576E-05
(PID.TID 0000.0001) %MON trAdv_CFL_v_max              =   7.0559735833227E-05
(PID.TID 0000.0001) %MON trAdv_CFL_w_max              =   3.7960820625897E-04
(PID.TID 0000.0001) %MON advcfl_uvel_max              =   4.8718555185184E-05
(PID.TID 0000.0001) %MON advcfl_vvel_max              =   4.0052162747093E-05
(PID.TID 0000.0001) %MON advcfl_wvel_max              =   8.2488353701605E-04
(PID.TID 0000.0001) %MON advcfl_W_hf_max              =   3.7960820625898E-04
(PID.TID 0000.0001) %MON pe_b_mean                    =   5.6165039562234E-04
(PID.TID 0000.0001) %MON ke_max                       =   1.2851710651595E-01
(PID.TID 0000.0001) %MON ke_mean                      =   1.4699892474538E-04
(PID.TID 0000.0001) %MON ke_vol                       =   1.3398057673737E+18
(PID.TID 0000.0001) %MON vort_r_min                   =  -1.5324569328542E-06
(PID.TID 0000.0001) %MON vort_r_max                   =   1.5110444802908E-06
(PID.TID 0000.0001) %MON vort_a_mean                  =  -2.0549865324846E-05
(PID.TID 0000.0001) %MON vort_a_sd                    =   7.5259520536429E-05
(PID.TID 0000.0001) %MON vort_p_mean                  =  -2.4783426749235E-05
(PID.TID 0000.0001) %MON vort_p_sd                    =   1.2811966656876E-04
(PID.TID 0000.0001) %MON surfExpan_theta_mean         =  -5.6247007508790E-06
(PID.TID 0000.0001) %MON surfExpan_salt_mean          =   6.4895003084886E-07
(PID.TID 0000.0001) // =======================================================
(PID.TID 0000.0001) // End MONITOR dynamic field statistics
(PID.TID 0000.0001) // =======================================================
 cg2d: Sum(rhs),rhsMax =  -4.40760497316161E+00  2.31887257057477E+05
(PID.TID 0000.0001)      cg2d_init_res =   4.50614495301227E-03
(PID.TID 0000.0001)      cg2d_iters(min,last) =      -1       1
(PID.TID 0000.0001)      cg2d_last_res =   4.10850255360868E-08
(PID.TID 0000.0001) // =======================================================
(PID.TID 0000.0001) // Begin MONITOR dynamic field statistics
(PID.TID 0000.0001) // =======================================================
(PID.TID 0000.0001) %MON time_tsnumber                =                 72062
(PID.TID 0000.0001) %MON time_secondsf                =   1.8015500000000E+06
(PID.TID 0000.0001) %MON dynstat_eta_max              =   8.7675643787741E+00
(PID.TID 0000.0001) %MON dynstat_eta_min              =  -1.7045546660826E+00
(PID.TID 0000.0001) %MON dynstat_eta_mean             =   9.1638024771922E-03
(PID.TID 0000.0001) %MON dynstat_eta_sd               =   6.4914219802191E-01
(PID.TID 0000.0001) %MON dynstat_eta_del2             =   8.2248860355024E-03
(PID.TID 0000.0001) %MON dynstat_uvel_max             =   5.2707142455664E-01
(PID.TID 0000.0001) %MON dynstat_uvel_min             =  -3.4541493631595E-01
(PID.TID 0000.0001) %MON dynstat_uvel_mean            =  -4.6292262138896E-04
(PID.TID 0000.0001) %MON dynstat_uvel_sd              =   1.2305726740170E-02
(PID.TID 0000.0001) %MON dynstat_uvel_del2            =   6.9152171277585E-05
(PID.TID 0000.0001) %MON dynstat_vvel_max             =   4.4911639814093E-01
(PID.TID 0000.0001) %MON dynstat_vvel_min             =  -4.4021457836481E-01
(PID.TID 0000.0001) %MON dynstat_vvel_mean            =  -3.8824388603923E-04
(PID.TID 0000.0001) %MON dynstat_vvel_sd              =   1.2921805371806E-02
(PID.TID 0000.0001) %MON dynstat_vvel_del2            =   8.5832447766459E-05
(PID.TID 0000.0001) %MON dynstat_wvel_max             =   1.0340429262858E-04
(PID.TID 0000.0001) %MON dynstat_wvel_min             =  -8.2249019456946E-04
(PID.TID 0000.0001) %MON dynstat_wvel_mean            =  -1.4139053180934E-07
(PID.TID 0000.0001) %MON dynstat_wvel_sd              =   8.5034824444506E-06
(PID.TID 0000.0001) %MON dynstat_wvel_del2            =   9.1956367828555E-08
(PID.TID 0000.0001) %MON dynstat_theta_max            =   3.0925583083238E+01
(PID.TID 0000.0001) %MON dynstat_theta_min            =  -3.0176265460383E+00
(PID.TID 0000.0001) %MON dynstat_theta_mean           =   3.9089350159178E+00
(PID.TID 0000.0001) %MON dynstat_theta_sd             =   4.5705872118246E+00
(PID.TID 0000.0001) %MON dynstat_theta_del2           =   2.6554965854011E-03
(PID.TID 0000.0001) %MON dynstat_salt_max             =   4.1377365157884E+01
(PID.TID 0000.0001) %MON dynstat_salt_min             =   1.8518397943445E+01
(PID.TID 0000.0001) %MON dynstat_salt_mean            =   3.4772197228674E+01
(PID.TID 0000.0001) %MON dynstat_salt_sd              =   5.3093089246234E-01
(PID.TID 0000.0001) %MON dynstat_salt_del2            =   8.0269409467122E-04
(PID.TID 0000.0001) %MON dynstat_sst_max              =   3.0925583083238E+01
(PID.TID 0000.0001) %MON dynstat_sst_min              =  -1.8999349214590E+00
(PID.TID 0000.0001) %MON dynstat_sst_mean             =   1.8099215728756E+01
(PID.TID 0000.0001) %MON dynstat_sst_sd               =   9.8000403670087E+00
(PID.TID 0000.0001) %MON dynstat_sst_del2             =   1.5351100053421E-02
(PID.TID 0000.0001) %MON dynstat_sss_max              =   4.1377365157884E+01
(PID.TID 0000.0001) %MON dynstat_sss_min              =   1.8751549103446E+01
(PID.TID 0000.0001) %MON dynstat_sss_mean             =   3.4641914636285E+01
(PID.TID 0000.0001) %MON dynstat_sss_sd               =   1.4570342150134E+00
(PID.TID 0000.0001) %MON dynstat_sss_del2             =   8.0116006703045E-03
(PID.TID 0000.0001) %MON forcing_qnet_max             =   8.4316914062500E+03
(PID.TID 0000.0001) %MON forcing_qnet_min             =  -2.0055916015625E+04
(PID.TID 0000.0001) %MON forcing_qnet_mean            =  -2.5092167063993E+02
(PID.TID 0000.0001) %MON forcing_qnet_sd              =   1.1094613253378E+03
(PID.TID 0000.0001) %MON forcing_qnet_del2            =   3.5734148351375E+01
(PID.TID 0000.0001) %MON forcing_qsw_max              =   0.0000000000000E+00
(PID.TID 0000.0001) %MON forcing_qsw_min              =   0.0000000000000E+00
(PID.TID 0000.0001) %MON forcing_qsw_mean             =   0.0000000000000E+00
(PID.TID 0000.0001) %MON forcing_qsw_sd               =   0.0000000000000E+00
(PID.TID 0000.0001) %MON forcing_qsw_del2             =   0.0000000000000E+00
(PID.TID 0000.0001) %MON forcing_empmr_max            =   5.8128304779530E-02
(PID.TID 0000.0001) %MON forcing_empmr_min            =  -8.5127735137939E-01
(PID.TID 0000.0001) %MON forcing_empmr_mean           =  -7.1493431963363E-04
(PID.TID 0000.0001) %MON forcing_empmr_sd             =   1.5223983601829E-02
(PID.TID 0000.0001) %MON forcing_empmr_del2           =   5.9533633884578E-04
(PID.TID 0000.0001) %MON forcing_fu_max               =   5.2677829465581E-01
(PID.TID 0000.0001) %MON forcing_fu_min               =  -4.5880423782345E-01
(PID.TID 0000.0001) %MON forcing_fu_mean              =  -4.1814237346585E-03
(PID.TID 0000.0001) %MON forcing_fu_sd                =   6.9375254978744E-02
(PID.TID 0000.0001) %MON forcing_fu_del2              =   6.8235245862431E-04
(PID.TID 0000.0001) %MON forcing_fv_max               =   2.9868584949626E-01
(PID.TID 0000.0001) %MON forcing_fv_min               =  -3.9323508454932E-01
(PID.TID 0000.0001) %MON forcing_fv_mean              =  -1.3672568887233E-02
(PID.TID 0000.0001) %MON forcing_fv_sd                =   6.6233499231519E-02
(PID.TID 0000.0001) %MON forcing_fv_del2              =   5.5204045430852E-04
(PID.TID 0000.0001) %MON trAdv_CFL_u_max              =   4.6553590995082E-05
(PID.TID 0000.0001) %MON trAdv_CFL_v_max              =   7.1730505792940E-05
(PID.TID 0000.0001) %MON trAdv_CFL_w_max              =   3.7837810657703E-04
(PID.TID 0000.0001) %MON advcfl_uvel_max              =   4.9361267294238E-05
(PID.TID 0000.0001) %MON advcfl_vvel_max              =   4.0711961984230E-05
(PID.TID 0000.0001) %MON advcfl_wvel_max              =   8.2249019456946E-04
(PID.TID 0000.0001) %MON advcfl_W_hf_max              =   3.7837810657703E-04
(PID.TID 0000.0001) %MON pe_b_mean                    =   5.6147395640975E-04
(PID.TID 0000.0001) %MON ke_max                       =   1.3239728995888E-01
(PID.TID 0000.0001) %MON ke_mean                      =   1.4719907129036E-04
(PID.TID 0000.0001) %MON ke_vol                       =   1.3398057736650E+18
(PID.TID 0000.0001) %MON vort_r_min                   =  -1.5540441948009E-06
(PID.TID 0000.0001) %MON vort_r_max                   =   1.5361974050312E-06
(PID.TID 0000.0001) %MON vort_a_mean                  =  -2.0549865324846E-05
(PID.TID 0000.0001) %MON vort_a_sd                    =   7.5259520618205E-05
(PID.TID 0000.0001) %MON vort_p_mean                  =  -2.4783426622207E-05
(PID.TID 0000.0001) %MON vort_p_sd                    =   1.2811966502630E-04
(PID.TID 0000.0001) %MON surfExpan_theta_mean         =  -5.6411442166626E-06
(PID.TID 0000.0001) %MON surfExpan_salt_mean          =   6.5116643544582E-07
(PID.TID 0000.0001) // =======================================================
(PID.TID 0000.0001) // End MONITOR dynamic field statistics
(PID.TID 0000.0001) // =======================================================
 cg2d: Sum(rhs),rhsMax =  -4.41885221142100E+00  2.31732392805328E+05
(PID.TID 0000.0001)      cg2d_init_res =   4.54124574253168E-03
(PID.TID 0000.0001)      cg2d_iters(min,last) =      -1       1
(PID.TID 0000.0001)      cg2d_last_res =   4.14985301234560E-08
(PID.TID 0000.0001) // =======================================================
(PID.TID 0000.0001) // Begin MONITOR dynamic field statistics
(PID.TID 0000.0001) // =======================================================
(PID.TID 0000.0001) %MON time_tsnumber                =                 72063
(PID.TID 0000.0001) %MON time_secondsf                =   1.8015750000000E+06
(PID.TID 0000.0001) %MON dynstat_eta_max              =   8.7605096975794E+00
(PID.TID 0000.0001) %MON dynstat_eta_min              =  -1.7026128956168E+00
(PID.TID 0000.0001) %MON dynstat_eta_mean             =   9.1810508881379E-03
(PID.TID 0000.0001) %MON dynstat_eta_sd               =   6.4903873066365E-01
(PID.TID 0000.0001) %MON dynstat_eta_del2             =   8.2110878669391E-03
(PID.TID 0000.0001) %MON dynstat_uvel_max             =   5.3532264940748E-01
(PID.TID 0000.0001) %MON dynstat_uvel_min             =  -3.4838420681123E-01
(PID.TID 0000.0001) %MON dynstat_uvel_mean            =  -4.6238034297537E-04
(PID.TID 0000.0001) %MON dynstat_uvel_sd              =   1.2314454738920E-02
(PID.TID 0000.0001) %MON dynstat_uvel_del2            =   6.9640444897264E-05
(PID.TID 0000.0001) %MON dynstat_vvel_max             =   4.5637751186004E-01
(PID.TID 0000.0001) %MON dynstat_vvel_min             =  -4.4696164413508E-01
(PID.TID 0000.0001) %MON dynstat_vvel_mean            =  -3.8795098102160E-04
(PID.TID 0000.0001) %MON dynstat_vvel_sd              =   1.2930467959442E-02
(PID.TID 0000.0001) %MON dynstat_vvel_del2            =   8.6723044540305E-05
(PID.TID 0000.0001) %MON dynstat_wvel_max             =   1.0340896550959E-04
(PID.TID 0000.0001) %MON dynstat_wvel_min             =  -8.2013497605992E-04
(PID.TID 0000.0001) %MON dynstat_wvel_mean            =  -1.4305235804103E-07
(PID.TID 0000.0001) %MON dynstat_wvel_sd              =   8.5694122442976E-06
(PID.TID 0000.0001) %MON dynstat_wvel_del2            =   9.2237847019826E-08
(PID.TID 0000.0001) %MON dynstat_theta_max            =   3.0925577044989E+01
(PID.TID 0000.0001) %MON dynstat_theta_min            =  -3.0176229072292E+00
(PID.TID 0000.0001) %MON dynstat_theta_mean           =   3.9089355049263E+00
(PID.TID 0000.0001) %MON dynstat_theta_sd             =   4.5705886231624E+00
(PID.TID 0000.0001) %MON dynstat_theta_del2           =   2.6554767334100E-03
(PID.TID 0000.0001) %MON dynstat_salt_max             =   4.1377358291236E+01
(PID.TID 0000.0001) %MON dynstat_salt_min             =   1.8518398209472E+01
(PID.TID 0000.0001) %MON dynstat_salt_mean            =   3.4772197013221E+01
(PID.TID 0000.0001) %MON dynstat_salt_sd              =   5.3093123557339E-01
(PID.TID 0000.0001) %MON dynstat_salt_del2            =   8.0271255149259E-04
(PID.TID 0000.0001) %MON dynstat_sst_max              =   3.0925577044989E+01
(PID.TID 0000.0001) %MON dynstat_sst_min              =  -1.8999338772957E+00
(PID.TID 0000.0001) %MON dynstat_sst_mean             =   1.8099246505439E+01
(PID.TID 0000.0001) %MON dynstat_sst_sd               =   9.8000393354089E+00
(PID.TID 0000.0001) %MON dynstat_sst_del2             =   1.5350559380917E-02
(PID.TID 0000.0001) %MON dynstat_sss_max              =   4.1377358291236E+01
(PID.TID 0000.0001) %MON dynstat_sss_min              =   1.8751527064590E+01
(PID.TID 0000.0001) %MON dynstat_sss_mean             =   3.4641899245969E+01
(PID.TID 0000.0001) %MON dynstat_sss_sd               =   1.4570420492610E+00
(PID.TID 0000.0001) %MON dynstat_sss_del2             =   8.0118888981494E-03
(PID.TID 0000.0001) %MON forcing_qnet_max             =   8.1392275390625E+03
(PID.TID 0000.0001) %MON forcing_qnet_min             =  -1.9460949218750E+04
(PID.TID 0000.0001) %MON forcing_qnet_mean            =  -2.4782271051601E+02
(PID.TID 0000.0001) %MON forcing_qnet_sd              =   1.0893710892999E+03
(PID.TID 0000.0001) %MON forcing_qnet_del2            =   3.5031889703231E+01
(PID.TID 0000.0001) %MON forcing_qsw_max              =   0.0000000000000E+00
(PID.TID 0000.0001) %MON forcing_qsw_min              =   0.0000000000000E+00
(PID.TID 0000.0001) %MON forcing_qsw_mean             =   0.0000000000000E+00
(PID.TID 0000.0001) %MON forcing_qsw_sd               =   0.0000000000000E+00
(PID.TID 0000.0001) %MON forcing_qsw_del2             =   0.0000000000000E+00
(PID.TID 0000.0001) %MON forcing_empmr_max            =   5.7612750679255E-02
(PID.TID 0000.0001) %MON forcing_empmr_min            =  -8.4883970022202E-01
(PID.TID 0000.0001) %MON forcing_empmr_mean           =  -7.1408421316522E-04
(PID.TID 0000.0001) %MON forcing_empmr_sd             =   1.5189301054694E-02
(PID.TID 0000.0001) %MON forcing_empmr_del2           =   5.9401047337436E-04
(PID.TID 0000.0001) %MON forcing_fu_max               =   5.2677829465581E-01
(PID.TID 0000.0001) %MON forcing_fu_min               =  -4.5880423782345E-01
(PID.TID 0000.0001) %MON forcing_fu_mean              =  -4.1814237346585E-03
(PID.TID 0000.0001) %MON forcing_fu_sd                =   6.9375254978744E-02
(PID.TID 0000.0001) %MON forcing_fu_del2              =   6.8235245862431E-04
(PID.TID 0000.0001) %MON forcing_fv_max               =   2.9868584949626E-01
(PID.TID 0000.0001) %MON forcing_fv_min               =  -3.9323508454932E-01
(PID.TID 0000.0001) %MON forcing_fv_mean              =  -1.3672568887233E-02
(PID.TID 0000.0001) %MON forcing_fv_sd                =   6.6233499231519E-02
(PID.TID 0000.0001) %MON forcing_fv_del2              =   5.5204045430852E-04
(PID.TID 0000.0001) %MON trAdv_CFL_u_max              =   4.7161596793454E-05
(PID.TID 0000.0001) %MON trAdv_CFL_v_max              =   7.2897491722604E-05
(PID.TID 0000.0001) %MON trAdv_CFL_w_max              =   3.7716460782732E-04
(PID.TID 0000.0001) %MON advcfl_uvel_max              =   5.0002242884702E-05
(PID.TID 0000.0001) %MON advcfl_vvel_max              =   4.1370174837110E-05
(PID.TID 0000.0001) %MON advcfl_wvel_max              =   8.2013497605992E-04
(PID.TID 0000.0001) %MON advcfl_W_hf_max              =   3.7716460782732E-04
(PID.TID 0000.0001) %MON pe_b_mean                    =   5.6129543755244E-04
(PID.TID 0000.0001) %MON ke_max                       =   1.3632411771714E-01
(PID.TID 0000.0001) %MON ke_mean                      =   1.4740131932065E-04
(PID.TID 0000.0001) %MON ke_vol                       =   1.3398057799489E+18
(PID.TID 0000.0001) %MON vort_r_min                   =  -1.5754075162283E-06
(PID.TID 0000.0001) %MON vort_r_max                   =   1.5612792622505E-06
(PID.TID 0000.0001) %MON vort_a_mean                  =  -2.0549865324846E-05
(PID.TID 0000.0001) %MON vort_a_sd                    =   7.5259520700658E-05
(PID.TID 0000.0001) %MON vort_p_mean                  =  -2.4783426494871E-05
(PID.TID 0000.0001) %MON vort_p_sd                    =   1.2811966348427E-04
(PID.TID 0000.0001) %MON surfExpan_theta_mean         =  -5.6574574896542E-06
(PID.TID 0000.0001) %MON surfExpan_salt_mean          =   6.5342850718727E-07
(PID.TID 0000.0001) // =======================================================
(PID.TID 0000.0001) // End MONITOR dynamic field statistics
(PID.TID 0000.0001) // =======================================================
 cg2d: Sum(rhs),rhsMax =  -4.43015235554925E+00  2.31575068111627E+05
(PID.TID 0000.0001)      cg2d_init_res =   4.57627706474674E-03
(PID.TID 0000.0001)      cg2d_iters(min,last) =      -1       1
(PID.TID 0000.0001)      cg2d_last_res =   4.19117573563034E-08
(PID.TID 0000.0001) // =======================================================
(PID.TID 0000.0001) // Begin MONITOR dynamic field statistics
(PID.TID 0000.0001) // =======================================================
(PID.TID 0000.0001) %MON time_tsnumber                =                 72064
(PID.TID 0000.0001) %MON time_secondsf                =   1.8016000000000E+06
(PID.TID 0000.0001) %MON dynstat_eta_max              =   8.7533429122663E+00
(PID.TID 0000.0001) %MON dynstat_eta_min              =  -1.7006461464807E+00
(PID.TID 0000.0001) %MON dynstat_eta_mean             =   9.1982801844843E-03
(PID.TID 0000.0001) %MON dynstat_eta_sd               =   6.4893407219501E-01
(PID.TID 0000.0001) %MON dynstat_eta_del2             =   8.1971391143203E-03
(PID.TID 0000.0001) %MON dynstat_uvel_max             =   5.4356731524899E-01
(PID.TID 0000.0001) %MON dynstat_uvel_min             =  -3.5134990315022E-01
(PID.TID 0000.0001) %MON dynstat_uvel_mean            =  -4.6183361399551E-04
(PID.TID 0000.0001) %MON dynstat_uvel_sd              =   1.2323271141876E-02
(PID.TID 0000.0001) %MON dynstat_uvel_del2            =   7.0131103701522E-05
(PID.TID 0000.0001) %MON dynstat_vvel_max             =   4.6362101369992E-01
(PID.TID 0000.0001) %MON dynstat_vvel_min             =  -4.5370184518410E-01
(PID.TID 0000.0001) %MON dynstat_vvel_mean            =  -3.8765699947638E-04
(PID.TID 0000.0001) %MON dynstat_vvel_sd              =   1.2939206461188E-02
(PID.TID 0000.0001) %MON dynstat_vvel_del2            =   8.7614974653664E-05
(PID.TID 0000.0001) %MON dynstat_wvel_max             =   1.0341365583790E-04
(PID.TID 0000.0001) %MON dynstat_wvel_min             =  -8.1777964237232E-04
(PID.TID 0000.0001) %MON dynstat_wvel_mean            =  -1.4474528629972E-07
(PID.TID 0000.0001) %MON dynstat_wvel_sd              =   8.6349768081696E-06
(PID.TID 0000.0001) %MON dynstat_wvel_del2            =   9.2517746651520E-08
(PID.TID 0000.0001) %MON dynstat_theta_max            =   3.0925571007397E+01
(PID.TID 0000.0001) %MON dynstat_theta_min            =  -3.0176190383290E+00
(PID.TID 0000.0001) %MON dynstat_theta_mean           =   3.9089359888097E+00
(PID.TID 0000.0001) %MON dynstat_theta_sd             =   4.5705900250503E+00
(PID.TID 0000.0001) %MON dynstat_theta_del2           =   2.6554571668282E-03
(PID.TID 0000.0001) %MON dynstat_salt_max             =   4.1377351415578E+01
(PID.TID 0000.0001) %MON dynstat_salt_min             =   1.8518398475555E+01
(PID.TID 0000.0001) %MON dynstat_salt_mean            =   3.4772196798087E+01
(PID.TID 0000.0001) %MON dynstat_salt_sd              =   5.3093157970476E-01
(PID.TID 0000.0001) %MON dynstat_salt_del2            =   8.0273150277197E-04
(PID.TID 0000.0001) %MON dynstat_sst_max              =   3.0925571007397E+01
(PID.TID 0000.0001) %MON dynstat_sst_min              =  -1.8999328323762E+00
(PID.TID 0000.0001) %MON dynstat_sst_mean             =   1.8099276870701E+01
(PID.TID 0000.0001) %MON dynstat_sst_sd               =   9.8000385469314E+00
(PID.TID 0000.0001) %MON dynstat_sst_del2             =   1.5350027426003E-02
(PID.TID 0000.0001) %MON dynstat_sss_max              =   4.1377351415578E+01
(PID.TID 0000.0001) %MON dynstat_sss_min              =   1.8751507741595E+01
(PID.TID 0000.0001) %MON dynstat_sss_mean             =   3.4641883876734E+01
(PID.TID 0000.0001) %MON dynstat_sss_sd               =   1.4570498883611E+00
(PID.TID 0000.0001) %MON dynstat_sss_del2             =   8.0121850139281E-03
(PID.TID 0000.0001) %MON forcing_qnet_max             =   7.8565141601562E+03
(PID.TID 0000.0001) %MON forcing_qnet_min             =  -1.8895251953125E+04
(PID.TID 0000.0001) %MON forcing_qnet_mean            =  -2.4472580768899E+02
(PID.TID 0000.0001) %MON forcing_qnet_sd              =   1.0703138307015E+03
(PID.TID 0000.0001) %MON forcing_qnet_del2            =   3.4375692388574E+01
(PID.TID 0000.0001) %MON forcing_qsw_max              =   0.0000000000000E+00
(PID.TID 0000.0001) %MON forcing_qsw_min              =   0.0000000000000E+00
(PID.TID 0000.0001) %MON forcing_qsw_mean             =   0.0000000000000E+00
(PID.TID 0000.0001) %MON forcing_qsw_sd               =   0.0000000000000E+00
(PID.TID 0000.0001) %MON forcing_qsw_del2             =   0.0000000000000E+00
(PID.TID 0000.0001) %MON forcing_empmr_max            =   5.7105258107185E-02
(PID.TID 0000.0001) %MON forcing_empmr_min            =  -8.4640192985535E-01
(PID.TID 0000.0001) %MON forcing_empmr_mean           =  -7.1329286872253E-04
(PID.TID 0000.0001) %MON forcing_empmr_sd             =   1.5154771950781E-02
(PID.TID 0000.0001) %MON forcing_empmr_del2           =   5.9268754200645E-04
(PID.TID 0000.0001) %MON forcing_fu_max               =   5.2677829465581E-01
(PID.TID 0000.0001) %MON forcing_fu_min               =  -4.5880423782345E-01
(PID.TID 0000.0001) %MON forcing_fu_mean              =  -4.1814237346585E-03
(PID.TID 0000.0001) %MON forcing_fu_sd                =   6.9375254978744E-02
(PID.TID 0000.0001) %MON forcing_fu_del2              =   6.8235245862431E-04
(PID.TID 0000.0001) %MON forcing_fv_max               =   2.9868584949626E-01
(PID.TID 0000.0001) %MON forcing_fv_min               =  -3.9323508454932E-01
(PID.TID 0000.0001) %MON forcing_fv_mean              =  -1.3672568887233E-02
(PID.TID 0000.0001) %MON forcing_fv_sd                =   6.6233499231519E-02
(PID.TID 0000.0001) %MON forcing_fv_del2              =   5.5204045430852E-04
(PID.TID 0000.0001) %MON trAdv_CFL_u_max              =   4.7768091897756E-05
(PID.TID 0000.0001) %MON trAdv_CFL_v_max              =   7.4060660452430E-05
(PID.TID 0000.0001) %MON trAdv_CFL_w_max              =   3.7595005112110E-04
(PID.TID 0000.0001) %MON advcfl_uvel_max              =   5.0641461983278E-05
(PID.TID 0000.0001) %MON advcfl_vvel_max              =   4.2026791190373E-05
(PID.TID 0000.0001) %MON advcfl_wvel_max              =   8.1777964237232E-04
(PID.TID 0000.0001) %MON advcfl_W_hf_max              =   3.7595005112110E-04
(PID.TID 0000.0001) %MON pe_b_mean                    =   5.6111488812061E-04
(PID.TID 0000.0001) %MON ke_max                       =   1.4029693930259E-01
(PID.TID 0000.0001) %MON ke_mean                      =   1.4760561734368E-04
(PID.TID 0000.0001) %MON ke_vol                       =   1.3398057862254E+18
(PID.TID 0000.0001) %MON vort_r_min                   =  -1.5965453183598E-06
(PID.TID 0000.0001) %MON vort_r_max                   =   1.5862897868343E-06
(PID.TID 0000.0001) %MON vort_a_mean                  =  -2.0549865324846E-05
(PID.TID 0000.0001) %MON vort_a_sd                    =   7.5259520783772E-05
(PID.TID 0000.0001) %MON vort_p_mean                  =  -2.4783426367233E-05
(PID.TID 0000.0001) %MON vort_p_sd                    =   1.2811966194251E-04
(PID.TID 0000.0001) %MON surfExpan_theta_mean         =  -5.6748848736350E-06
(PID.TID 0000.0001) %MON surfExpan_salt_mean          =   6.5571893707188E-07
(PID.TID 0000.0001) // =======================================================
(PID.TID 0000.0001) // End MONITOR dynamic field statistics
(PID.TID 0000.0001) // =======================================================
 cg2d: Sum(rhs),rhsMax =  -4.44150496355950E+00  2.31415286918002E+05
(PID.TID 0000.0001)      cg2d_init_res =   4.61118085973013E-03
(PID.TID 0000.0001)      cg2d_iters(min,last) =      -1       1
(PID.TID 0000.0001)      cg2d_last_res =   4.23245862373192E-08
(PID.TID 0000.0001) // =======================================================
(PID.TID 0000.0001) // Begin MONITOR dynamic field statistics
(PID.TID 0000.0001) // =======================================================
(PID.TID 0000.0001) %MON time_tsnumber                =                 72065
(PID.TID 0000.0001) %MON time_secondsf                =   1.8016250000000E+06
(PID.TID 0000.0001) %MON dynstat_eta_max              =   8.7460642177856E+00
(PID.TID 0000.0001) %MON dynstat_eta_min              =  -1.6986547166316E+00
(PID.TID 0000.0001) %MON dynstat_eta_mean             =   9.2154886344040E-03
(PID.TID 0000.0001) %MON dynstat_eta_sd               =   6.4882824590820E-01
(PID.TID 0000.0001) %MON dynstat_eta_del2             =   8.1830418728002E-03
(PID.TID 0000.0001) %MON dynstat_uvel_max             =   5.5180522792100E-01
(PID.TID 0000.0001) %MON dynstat_uvel_min             =  -3.5431199746759E-01
(PID.TID 0000.0001) %MON dynstat_uvel_mean            =  -4.6128241506980E-04
(PID.TID 0000.0001) %MON dynstat_uvel_sd              =   1.2332173815365E-02
(PID.TID 0000.0001) %MON dynstat_uvel_del2            =   7.0624022040830E-05
(PID.TID 0000.0001) %MON dynstat_vvel_max             =   4.7084679301888E-01
(PID.TID 0000.0001) %MON dynstat_vvel_min             =  -4.6043507709336E-01
(PID.TID 0000.0001) %MON dynstat_vvel_mean            =  -3.8736197502991E-04
(PID.TID 0000.0001) %MON dynstat_vvel_sd              =   1.2948018275467E-02
(PID.TID 0000.0001) %MON dynstat_vvel_del2            =   8.8508023030151E-05
(PID.TID 0000.0001) %MON dynstat_wvel_max             =   1.0341836359730E-04
(PID.TID 0000.0001) %MON dynstat_wvel_min             =  -8.1542436627374E-04
(PID.TID 0000.0001) %MON dynstat_wvel_mean            =  -1.4642699555917E-07
(PID.TID 0000.0001) %MON dynstat_wvel_sd              =   8.7001292187316E-06
(PID.TID 0000.0001) %MON dynstat_wvel_del2            =   9.2795583540815E-08
(PID.TID 0000.0001) %MON dynstat_theta_max            =   3.0925564970460E+01
(PID.TID 0000.0001) %MON dynstat_theta_min            =  -3.0176149371284E+00
(PID.TID 0000.0001) %MON dynstat_theta_mean           =   3.9089364678090E+00
(PID.TID 0000.0001) %MON dynstat_theta_sd             =   4.5705914178952E+00
(PID.TID 0000.0001) %MON dynstat_theta_del2           =   2.6554378727844E-03
(PID.TID 0000.0001) %MON dynstat_salt_max             =   4.1377344430583E+01
(PID.TID 0000.0001) %MON dynstat_salt_min             =   1.8518398741691E+01
(PID.TID 0000.0001) %MON dynstat_salt_mean            =   3.4772196583278E+01
(PID.TID 0000.0001) %MON dynstat_salt_sd              =   5.3093192488273E-01
(PID.TID 0000.0001) %MON dynstat_salt_del2            =   8.0275094025155E-04
(PID.TID 0000.0001) %MON dynstat_sst_max              =   3.0925564970460E+01
(PID.TID 0000.0001) %MON dynstat_sst_min              =  -1.8999317866842E+00
(PID.TID 0000.0001) %MON dynstat_sst_mean             =   1.8099306844653E+01
(PID.TID 0000.0001) %MON dynstat_sst_sd               =   9.8000379890935E+00
(PID.TID 0000.0001) %MON dynstat_sst_del2             =   1.5349503792667E-02
(PID.TID 0000.0001) %MON dynstat_sss_max              =   4.1377344430583E+01
(PID.TID 0000.0001) %MON dynstat_sss_min              =   1.8751490784692E+01
(PID.TID 0000.0001) %MON dynstat_sss_mean             =   3.4641868529063E+01
(PID.TID 0000.0001) %MON dynstat_sss_sd               =   1.4570577359311E+00
(PID.TID 0000.0001) %MON dynstat_sss_del2             =   8.0124888807350E-03
(PID.TID 0000.0001) %MON forcing_qnet_max             =   7.5835517578125E+03
(PID.TID 0000.0001) %MON forcing_qnet_min             =  -1.8339318359375E+04
(PID.TID 0000.0001) %MON forcing_qnet_mean            =  -2.4178450780893E+02
(PID.TID 0000.0001) %MON forcing_qnet_sd              =   1.0521827941988E+03
(PID.TID 0000.0001) %MON forcing_qnet_del2            =   3.3736029361570E+01
(PID.TID 0000.0001) %MON forcing_qsw_max              =   0.0000000000000E+00
(PID.TID 0000.0001) %MON forcing_qsw_min              =   0.0000000000000E+00
(PID.TID 0000.0001) %MON forcing_qsw_mean             =   0.0000000000000E+00
(PID.TID 0000.0001) %MON forcing_qsw_sd               =   0.0000000000000E+00
(PID.TID 0000.0001) %MON forcing_qsw_del2             =   0.0000000000000E+00
(PID.TID 0000.0001) %MON forcing_empmr_max            =   5.6597765535116E-02
(PID.TID 0000.0001) %MON forcing_empmr_min            =  -8.4396421909332E-01
(PID.TID 0000.0001) %MON forcing_empmr_mean           =  -7.1242982667241E-04
(PID.TID 0000.0001) %MON forcing_empmr_sd             =   1.5119944617737E-02
(PID.TID 0000.0001) %MON forcing_empmr_del2           =   5.9135103795581E-04
(PID.TID 0000.0001) %MON forcing_fu_max               =   5.2677829465581E-01
(PID.TID 0000.0001) %MON forcing_fu_min               =  -4.5880423782345E-01
(PID.TID 0000.0001) %MON forcing_fu_mean              =  -4.1814237346585E-03
(PID.TID 0000.0001) %MON forcing_fu_sd                =   6.9375254978744E-02
(PID.TID 0000.0001) %MON forcing_fu_del2              =   6.8235245862431E-04
(PID.TID 0000.0001) %MON forcing_fv_max               =   2.9868584949626E-01
(PID.TID 0000.0001) %MON forcing_fv_min               =  -3.9323508454932E-01
(PID.TID 0000.0001) %MON forcing_fv_mean              =  -1.3672568887233E-02
(PID.TID 0000.0001) %MON forcing_fv_sd                =   6.6233499231519E-02
(PID.TID 0000.0001) %MON forcing_fv_del2              =   5.5204045430852E-04
(PID.TID 0000.0001) %MON trAdv_CFL_u_max              =   4.8373059192295E-05
(PID.TID 0000.0001) %MON trAdv_CFL_v_max              =   7.5219978966192E-05
(PID.TID 0000.0001) %MON trAdv_CFL_w_max              =   3.7473453294194E-04
(PID.TID 0000.0001) %MON advcfl_uvel_max              =   5.1278904678479E-05
(PID.TID 0000.0001) %MON advcfl_vvel_max              =   4.2681801014458E-05
(PID.TID 0000.0001) %MON advcfl_wvel_max              =   8.1542436627374E-04
(PID.TID 0000.0001) %MON advcfl_W_hf_max              =   3.7473453294194E-04
(PID.TID 0000.0001) %MON pe_b_mean                    =   5.6093234933093E-04
(PID.TID 0000.0001) %MON ke_max                       =   1.4431509976198E-01
(PID.TID 0000.0001) %MON ke_mean                      =   1.4781191394938E-04
(PID.TID 0000.0001) %MON ke_vol                       =   1.3398057924949E+18
(PID.TID 0000.0001) %MON vort_r_min                   =  -1.6174560834727E-06
(PID.TID 0000.0001) %MON vort_r_max                   =   1.6112287146640E-06
(PID.TID 0000.0001) %MON vort_a_mean                  =  -2.0549865324846E-05
(PID.TID 0000.0001) %MON vort_a_sd                    =   7.5259520867533E-05
(PID.TID 0000.0001) %MON vort_p_mean                  =  -2.4783426239286E-05
(PID.TID 0000.0001) %MON vort_p_sd                    =   1.2811966040085E-04
(PID.TID 0000.0001) %MON surfExpan_theta_mean         =  -5.6911257595427E-06
(PID.TID 0000.0001) %MON surfExpan_salt_mean          =   6.5800166556231E-07
(PID.TID 0000.0001) // =======================================================
(PID.TID 0000.0001) // End MONITOR dynamic field statistics
(PID.TID 0000.0001) // =======================================================
 cg2d: Sum(rhs),rhsMax =  -4.45291159740871E+00  2.31253053206324E+05
(PID.TID 0000.0001)      cg2d_init_res =   4.64605655831915E-03
(PID.TID 0000.0001)      cg2d_iters(min,last) =      -1       1
(PID.TID 0000.0001)      cg2d_last_res =   4.27371506994980E-08
(PID.TID 0000.0001) // =======================================================
(PID.TID 0000.0001) // Begin MONITOR dynamic field statistics
(PID.TID 0000.0001) // =======================================================
(PID.TID 0000.0001) %MON time_tsnumber                =                 72066
(PID.TID 0000.0001) %MON time_secondsf                =   1.8016500000000E+06
(PID.TID 0000.0001) %MON dynstat_eta_max              =   8.7386738114779E+00
(PID.TID 0000.0001) %MON dynstat_eta_min              =  -1.6966389060228E+00
(PID.TID 0000.0001) %MON dynstat_eta_mean             =   9.2326786598412E-03
(PID.TID 0000.0001) %MON dynstat_eta_sd               =   6.4872128071125E-01
(PID.TID 0000.0001) %MON dynstat_eta_del2             =   8.1687983263944E-03
(PID.TID 0000.0001) %MON dynstat_uvel_max             =   5.6003619404560E-01
(PID.TID 0000.0001) %MON dynstat_uvel_min             =  -3.5727046195939E-01
(PID.TID 0000.0001) %MON dynstat_uvel_mean            =  -4.6072672836096E-04
(PID.TID 0000.0001) %MON dynstat_uvel_sd              =   1.2341160633062E-02
(PID.TID 0000.0001) %MON dynstat_uvel_del2            =   7.1119078008206E-05
(PID.TID 0000.0001) %MON dynstat_vvel_max             =   4.7805474013508E-01
(PID.TID 0000.0001) %MON dynstat_vvel_min             =  -4.6716123559034E-01
(PID.TID 0000.0001) %MON dynstat_vvel_mean            =  -3.8706594348907E-04
(PID.TID 0000.0001) %MON dynstat_vvel_sd              =   1.2956900811750E-02
(PID.TID 0000.0001) %MON dynstat_vvel_del2            =   8.9401983064502E-05
(PID.TID 0000.0001) %MON dynstat_wvel_max             =   1.0342308877055E-04
(PID.TID 0000.0001) %MON dynstat_wvel_min             =  -8.1310709893416E-04
(PID.TID 0000.0001) %MON dynstat_wvel_mean            =  -1.4813430627219E-07
(PID.TID 0000.0001) %MON dynstat_wvel_sd              =   8.7649371585943E-06
(PID.TID 0000.0001) %MON dynstat_wvel_del2            =   9.3073731775297E-08
(PID.TID 0000.0001) %MON dynstat_theta_max            =   3.0925558934177E+01
(PID.TID 0000.0001) %MON dynstat_theta_min            =  -3.0176106014747E+00
(PID.TID 0000.0001) %MON dynstat_theta_mean           =   3.9089369422971E+00
(PID.TID 0000.0001) %MON dynstat_theta_sd             =   4.5705928023347E+00
(PID.TID 0000.0001) %MON dynstat_theta_del2           =   2.6554188536865E-03
(PID.TID 0000.0001) %MON dynstat_salt_max             =   4.1377337336422E+01
(PID.TID 0000.0001) %MON dynstat_salt_min             =   1.8518399007881E+01
(PID.TID 0000.0001) %MON dynstat_salt_mean            =   3.4772196368771E+01
(PID.TID 0000.0001) %MON dynstat_salt_sd              =   5.3093227111885E-01
(PID.TID 0000.0001) %MON dynstat_salt_del2            =   8.0277086211394E-04
(PID.TID 0000.0001) %MON dynstat_sst_max              =   3.0925558934177E+01
(PID.TID 0000.0001) %MON dynstat_sst_min              =  -1.8999307402086E+00
(PID.TID 0000.0001) %MON dynstat_sst_mean             =   1.8099336455352E+01
(PID.TID 0000.0001) %MON dynstat_sst_sd               =   9.8000376435618E+00
(PID.TID 0000.0001) %MON dynstat_sst_del2             =   1.5348988507279E-02
(PID.TID 0000.0001) %MON dynstat_sss_max              =   4.1377337336422E+01
(PID.TID 0000.0001) %MON dynstat_sss_min              =   1.8751475818745E+01
(PID.TID 0000.0001) %MON dynstat_sss_mean             =   3.4641853201204E+01
(PID.TID 0000.0001) %MON dynstat_sss_sd               =   1.4570655945979E+00
(PID.TID 0000.0001) %MON dynstat_sss_del2             =   8.0128004618124E-03
(PID.TID 0000.0001) %MON forcing_qnet_max             =   7.3203403320312E+03
(PID.TID 0000.0001) %MON forcing_qnet_min             =  -1.7793156250000E+04
(PID.TID 0000.0001) %MON forcing_qnet_mean            =  -2.3906358102352E+02
(PID.TID 0000.0001) %MON forcing_qnet_sd              =   1.0348289009249E+03
(PID.TID 0000.0001) %MON forcing_qnet_del2            =   3.3119937544018E+01
(PID.TID 0000.0001) %MON forcing_qsw_max              =   0.0000000000000E+00
(PID.TID 0000.0001) %MON forcing_qsw_min              =   0.0000000000000E+00
(PID.TID 0000.0001) %MON forcing_qsw_mean             =   0.0000000000000E+00
(PID.TID 0000.0001) %MON forcing_qsw_sd               =   0.0000000000000E+00
(PID.TID 0000.0001) %MON forcing_qsw_del2             =   0.0000000000000E+00
(PID.TID 0000.0001) %MON forcing_empmr_max            =   5.6098323315382E-02
(PID.TID 0000.0001) %MON forcing_empmr_min            =  -8.4156584739685E-01
(PID.TID 0000.0001) %MON forcing_empmr_mean           =  -7.1166705311108E-04
(PID.TID 0000.0001) %MON forcing_empmr_sd             =   1.5085993654064E-02
(PID.TID 0000.0001) %MON forcing_empmr_del2           =   5.9004293598458E-04
(PID.TID 0000.0001) %MON forcing_fu_max               =   5.2677829465581E-01
(PID.TID 0000.0001) %MON forcing_fu_min               =  -4.5880423782345E-01
(PID.TID 0000.0001) %MON forcing_fu_mean              =  -4.1814237346585E-03
(PID.TID 0000.0001) %MON forcing_fu_sd                =   6.9375254978744E-02
(PID.TID 0000.0001) %MON forcing_fu_del2              =   6.8235245862431E-04
(PID.TID 0000.0001) %MON forcing_fv_max               =   2.9868584949626E-01
(PID.TID 0000.0001) %MON forcing_fv_min               =  -3.9323508454932E-01
(PID.TID 0000.0001) %MON forcing_fv_mean              =  -1.3672568887233E-02
(PID.TID 0000.0001) %MON forcing_fv_sd                =   6.6233499231519E-02
(PID.TID 0000.0001) %MON forcing_fv_del2              =   5.5204045430852E-04
(PID.TID 0000.0001) %MON trAdv_CFL_u_max              =   4.8976481595437E-05
(PID.TID 0000.0001) %MON trAdv_CFL_v_max              =   7.6375414403543E-05
(PID.TID 0000.0001) %MON trAdv_CFL_w_max              =   3.7353560971137E-04
(PID.TID 0000.0001) %MON advcfl_uvel_max              =   5.1914551120747E-05
(PID.TID 0000.0001) %MON advcfl_vvel_max              =   4.3335194366814E-05
(PID.TID 0000.0001) %MON advcfl_wvel_max              =   8.1310709893416E-04
(PID.TID 0000.0001) %MON advcfl_W_hf_max              =   3.7353560971137E-04
(PID.TID 0000.0001) %MON pe_b_mean                    =   5.6074787219368E-04
(PID.TID 0000.0001) %MON ke_max                       =   1.4837793977496E-01
(PID.TID 0000.0001) %MON ke_mean                      =   1.4802015782647E-04
(PID.TID 0000.0001) %MON ke_vol                       =   1.3398057987569E+18
(PID.TID 0000.0001) %MON vort_r_min                   =  -1.6381383536034E-06
(PID.TID 0000.0001) %MON vort_r_max                   =   1.6360957825980E-06
(PID.TID 0000.0001) %MON vort_a_mean                  =  -2.0549865324846E-05
(PID.TID 0000.0001) %MON vort_a_sd                    =   7.5259520951926E-05
(PID.TID 0000.0001) %MON vort_p_mean                  =  -2.4783426111043E-05
(PID.TID 0000.0001) %MON vort_p_sd                    =   1.2811965885913E-04
(PID.TID 0000.0001) %MON surfExpan_theta_mean         =  -5.7085055698630E-06
(PID.TID 0000.0001) %MON surfExpan_salt_mean          =   6.6030562079592E-07
(PID.TID 0000.0001) // =======================================================
(PID.TID 0000.0001) // End MONITOR dynamic field statistics
(PID.TID 0000.0001) // =======================================================
 cg2d: Sum(rhs),rhsMax =  -4.46437206822128E+00  2.31088370998503E+05
(PID.TID 0000.0001)      cg2d_init_res =   4.68079720995222E-03
(PID.TID 0000.0001)      cg2d_iters(min,last) =      -1       1
(PID.TID 0000.0001)      cg2d_last_res =   4.31489067825753E-08
(PID.TID 0000.0001) // =======================================================
(PID.TID 0000.0001) // Begin MONITOR dynamic field statistics
(PID.TID 0000.0001) // =======================================================
(PID.TID 0000.0001) %MON time_tsnumber                =                 72067
(PID.TID 0000.0001) %MON time_secondsf                =   1.8016750000000E+06
(PID.TID 0000.0001) %MON dynstat_eta_max              =   8.7311718930613E+00
(PID.TID 0000.0001) %MON dynstat_eta_min              =  -1.6945990165215E+00
(PID.TID 0000.0001) %MON dynstat_eta_mean             =   9.2498490422259E-03
(PID.TID 0000.0001) %MON dynstat_eta_sd               =   6.4861320108919E-01
(PID.TID 0000.0001) %MON dynstat_eta_del2             =   8.1544105267387E-03
(PID.TID 0000.0001) %MON dynstat_uvel_max             =   5.6826002103622E-01
(PID.TID 0000.0001) %MON dynstat_uvel_min             =  -3.6022526888035E-01
(PID.TID 0000.0001) %MON dynstat_uvel_mean            =  -4.6016653775890E-04
(PID.TID 0000.0001) %MON dynstat_uvel_sd              =   1.2350229476908E-02
(PID.TID 0000.0001) %MON dynstat_uvel_del2            =   7.1616153360057E-05
(PID.TID 0000.0001) %MON dynstat_vvel_max             =   4.8524474633103E-01
(PID.TID 0000.0001) %MON dynstat_vvel_min             =  -4.7388021655011E-01
(PID.TID 0000.0001) %MON dynstat_vvel_mean            =  -3.8676894257419E-04
(PID.TID 0000.0001) %MON dynstat_vvel_sd              =   1.2965851492391E-02
(PID.TID 0000.0001) %MON dynstat_vvel_del2            =   9.0296656262143E-05
(PID.TID 0000.0001) %MON dynstat_wvel_max             =   1.0342783134750E-04
(PID.TID 0000.0001) %MON dynstat_wvel_min             =  -8.1078971641651E-04
(PID.TID 0000.0001) %MON dynstat_wvel_mean            =  -1.4983740277227E-07
(PID.TID 0000.0001) %MON dynstat_wvel_sd              =   8.8293108301897E-06
(PID.TID 0000.0001) %MON dynstat_wvel_del2            =   9.3351197399444E-08
(PID.TID 0000.0001) %MON dynstat_theta_max            =   3.0925552898548E+01
(PID.TID 0000.0001) %MON dynstat_theta_min            =  -3.0176060292688E+00
(PID.TID 0000.0001) %MON dynstat_theta_mean           =   3.9089374122713E+00
(PID.TID 0000.0001) %MON dynstat_theta_sd             =   4.5705941780490E+00
(PID.TID 0000.0001) %MON dynstat_theta_del2           =   2.6554000816549E-03
(PID.TID 0000.0001) %MON dynstat_salt_max             =   4.1377329932281E+01
(PID.TID 0000.0001) %MON dynstat_salt_min             =   1.8518399274121E+01
(PID.TID 0000.0001) %MON dynstat_salt_mean            =   3.4772196154526E+01
(PID.TID 0000.0001) %MON dynstat_salt_sd              =   5.3093261829855E-01
(PID.TID 0000.0001) %MON dynstat_salt_del2            =   8.0279126617496E-04
(PID.TID 0000.0001) %MON dynstat_sst_max              =   3.0925552898548E+01
(PID.TID 0000.0001) %MON dynstat_sst_min              =  -1.8999296929368E+00
(PID.TID 0000.0001) %MON dynstat_sst_mean             =   1.8099365701528E+01
(PID.TID 0000.0001) %MON dynstat_sst_sd               =   9.8000375008679E+00
(PID.TID 0000.0001) %MON dynstat_sst_del2             =   1.5348480822141E-02
(PID.TID 0000.0001) %MON dynstat_sss_max              =   4.1377329932281E+01
(PID.TID 0000.0001) %MON dynstat_sss_min              =   1.8751462720122E+01
(PID.TID 0000.0001) %MON dynstat_sss_mean             =   3.4641837889616E+01
(PID.TID 0000.0001) %MON dynstat_sss_sd               =   1.4570734628060E+00
(PID.TID 0000.0001) %MON dynstat_sss_del2             =   8.0131197099888E-03
(PID.TID 0000.0001) %MON forcing_qnet_max             =   7.0668798828125E+03
(PID.TID 0000.0001) %MON forcing_qnet_min             =  -1.7276253906250E+04
(PID.TID 0000.0001) %MON forcing_qnet_mean            =  -2.3634263749763E+02
(PID.TID 0000.0001) %MON forcing_qnet_sd              =   1.0181658506820E+03
(PID.TID 0000.0001) %MON forcing_qnet_del2            =   3.2533762214715E+01
(PID.TID 0000.0001) %MON forcing_qsw_max              =   0.0000000000000E+00
(PID.TID 0000.0001) %MON forcing_qsw_min              =   0.0000000000000E+00
(PID.TID 0000.0001) %MON forcing_qsw_mean             =   0.0000000000000E+00
(PID.TID 0000.0001) %MON forcing_qsw_sd               =   0.0000000000000E+00
(PID.TID 0000.0001) %MON forcing_qsw_del2             =   0.0000000000000E+00
(PID.TID 0000.0001) %MON forcing_empmr_max            =   5.5602911859751E-02
(PID.TID 0000.0001) %MON forcing_empmr_min            =  -8.3916735649109E-01
(PID.TID 0000.0001) %MON forcing_empmr_mean           =  -7.1085383070842E-04
(PID.TID 0000.0001) %MON forcing_empmr_sd             =   1.5051923429510E-02
(PID.TID 0000.0001) %MON forcing_empmr_del2           =   5.8873860948562E-04
(PID.TID 0000.0001) %MON forcing_fu_max               =   5.2677829465581E-01
(PID.TID 0000.0001) %MON forcing_fu_min               =  -4.5880423782345E-01
(PID.TID 0000.0001) %MON forcing_fu_mean              =  -4.1814237346585E-03
(PID.TID 0000.0001) %MON forcing_fu_sd                =   6.9375254978744E-02
(PID.TID 0000.0001) %MON forcing_fu_del2              =   6.8235245862431E-04
(PID.TID 0000.0001) %MON forcing_fv_max               =   2.9868584949626E-01
(PID.TID 0000.0001) %MON forcing_fv_min               =  -3.9323508454932E-01
(PID.TID 0000.0001) %MON forcing_fv_mean              =  -1.3672568887233E-02
(PID.TID 0000.0001) %MON forcing_fv_sd                =   6.6233499231519E-02
(PID.TID 0000.0001) %MON forcing_fv_del2              =   5.5204045430852E-04
(PID.TID 0000.0001) %MON trAdv_CFL_u_max              =   4.9578342059453E-05
(PID.TID 0000.0001) %MON trAdv_CFL_v_max              =   7.7526934058654E-05
(PID.TID 0000.0001) %MON trAdv_CFL_w_max              =   3.7233567721944E-04
(PID.TID 0000.0001) %MON advcfl_uvel_max              =   5.2639293250086E-05
(PID.TID 0000.0001) %MON advcfl_vvel_max              =   4.3986961392305E-05
(PID.TID 0000.0001) %MON advcfl_wvel_max              =   8.1078971641651E-04
(PID.TID 0000.0001) %MON advcfl_W_hf_max              =   3.7233567721944E-04
(PID.TID 0000.0001) %MON pe_b_mean                    =   5.6056149996328E-04
(PID.TID 0000.0001) %MON ke_max                       =   1.5248479574492E-01
(PID.TID 0000.0001) %MON ke_mean                      =   1.4823029779234E-04
(PID.TID 0000.0001) %MON ke_vol                       =   1.3398058050121E+18
(PID.TID 0000.0001) %MON vort_r_min                   =  -1.6585907291089E-06
(PID.TID 0000.0001) %MON vort_r_max                   =   1.6608907285003E-06
(PID.TID 0000.0001) %MON vort_a_mean                  =  -2.0549865324846E-05
(PID.TID 0000.0001) %MON vort_a_sd                    =   7.5259521036933E-05
(PID.TID 0000.0001) %MON vort_p_mean                  =  -2.4783425982491E-05
(PID.TID 0000.0001) %MON vort_p_sd                    =   1.2811965731709E-04
(PID.TID 0000.0001) %MON surfExpan_theta_mean         =  -5.7253690974097E-06
(PID.TID 0000.0001) %MON surfExpan_salt_mean          =   6.6264996608266E-07
(PID.TID 0000.0001) // =======================================================
(PID.TID 0000.0001) // End MONITOR dynamic field statistics
(PID.TID 0000.0001) // =======================================================
 cg2d: Sum(rhs),rhsMax =  -4.47588713017690E+00  2.30921244356310E+05
(PID.TID 0000.0001)      cg2d_init_res =   4.71538563406630E-03
(PID.TID 0000.0001)      cg2d_iters(min,last) =      -1       1
(PID.TID 0000.0001)      cg2d_last_res =   4.35597649656824E-08
(PID.TID 0000.0001) // =======================================================
(PID.TID 0000.0001) // Begin MONITOR dynamic field statistics
(PID.TID 0000.0001) // =======================================================
(PID.TID 0000.0001) %MON time_tsnumber                =                 72068
(PID.TID 0000.0001) %MON time_secondsf                =   1.8017000000000E+06
(PID.TID 0000.0001) %MON dynstat_eta_max              =   8.7235586646191E+00
(PID.TID 0000.0001) %MON dynstat_eta_min              =  -1.6925353518275E+00
(PID.TID 0000.0001) %MON dynstat_eta_mean             =   9.2670005127783E-03
(PID.TID 0000.0001) %MON dynstat_eta_sd               =   6.4850403356042E-01
(PID.TID 0000.0001) %MON dynstat_eta_del2             =   8.1398804842265E-03
(PID.TID 0000.0001) %MON dynstat_uvel_max             =   5.7647651710644E-01
(PID.TID 0000.0001) %MON dynstat_uvel_min             =  -3.6317639054420E-01
(PID.TID 0000.0001) %MON dynstat_uvel_mean            =  -4.5960182887606E-04
(PID.TID 0000.0001) %MON dynstat_uvel_sd              =   1.2359378237100E-02
(PID.TID 0000.0001) %MON dynstat_uvel_del2            =   7.2115133381688E-05
(PID.TID 0000.0001) %MON dynstat_vvel_max             =   4.9241670384937E-01
(PID.TID 0000.0001) %MON dynstat_vvel_min             =  -4.8059191599744E-01
(PID.TID 0000.0001) %MON dynstat_vvel_mean            =  -3.8647101182827E-04
(PID.TID 0000.0001) %MON dynstat_vvel_sd              =   1.2974867752363E-02
(PID.TID 0000.0001) %MON dynstat_vvel_del2            =   9.1191851902939E-05
(PID.TID 0000.0001) %MON dynstat_wvel_max             =   1.0343259131819E-04
(PID.TID 0000.0001) %MON dynstat_wvel_min             =  -8.0843449790697E-04
(PID.TID 0000.0001) %MON dynstat_wvel_mean            =  -1.5155876852657E-07
(PID.TID 0000.0001) %MON dynstat_wvel_sd              =   8.8931759866432E-06
(PID.TID 0000.0001) %MON dynstat_wvel_del2            =   9.3625223907576E-08
(PID.TID 0000.0001) %MON dynstat_theta_max            =   3.0925546863570E+01
(PID.TID 0000.0001) %MON dynstat_theta_min            =  -3.0176012184698E+00
(PID.TID 0000.0001) %MON dynstat_theta_mean           =   3.9089378779990E+00
(PID.TID 0000.0001) %MON dynstat_theta_sd             =   4.5705955457382E+00
(PID.TID 0000.0001) %MON dynstat_theta_del2           =   2.6553815720992E-03
(PID.TID 0000.0001) %MON dynstat_salt_max             =   4.1377322620299E+01
(PID.TID 0000.0001) %MON dynstat_salt_min             =   1.8518399540412E+01
(PID.TID 0000.0001) %MON dynstat_salt_mean            =   3.4772195940587E+01
(PID.TID 0000.0001) %MON dynstat_salt_sd              =   5.3093296648953E-01
(PID.TID 0000.0001) %MON dynstat_salt_del2            =   8.0281215318382E-04
(PID.TID 0000.0001) %MON dynstat_sst_max              =   3.0925546863570E+01
(PID.TID 0000.0001) %MON dynstat_sst_min              =  -1.8999286448564E+00
(PID.TID 0000.0001) %MON dynstat_sst_mean             =   1.8099394606544E+01
(PID.TID 0000.0001) %MON dynstat_sst_sd               =   9.8000375541941E+00
(PID.TID 0000.0001) %MON dynstat_sst_del2             =   1.5347981046330E-02
(PID.TID 0000.0001) %MON dynstat_sss_max              =   4.1377322620299E+01
(PID.TID 0000.0001) %MON dynstat_sss_min              =   1.8751451249809E+01
(PID.TID 0000.0001) %MON dynstat_sss_mean             =   3.4641822598088E+01
(PID.TID 0000.0001) %MON dynstat_sss_sd               =   1.4570813449662E+00
(PID.TID 0000.0001) %MON dynstat_sss_del2             =   8.0134466363309E-03
(PID.TID 0000.0001) %MON forcing_qnet_max             =   6.9625883789062E+03
(PID.TID 0000.0001) %MON forcing_qnet_min             =  -1.6759369140625E+04
(PID.TID 0000.0001) %MON forcing_qnet_mean            =  -2.3378276981235E+02
(PID.TID 0000.0001) %MON forcing_qnet_sd              =   1.0023563988354E+03
(PID.TID 0000.0001) %MON forcing_qnet_del2            =   3.1967546023436E+01
(PID.TID 0000.0001) %MON forcing_qsw_max              =   0.0000000000000E+00
(PID.TID 0000.0001) %MON forcing_qsw_min              =   0.0000000000000E+00
(PID.TID 0000.0001) %MON forcing_qsw_mean             =   0.0000000000000E+00
(PID.TID 0000.0001) %MON forcing_qsw_sd               =   0.0000000000000E+00
(PID.TID 0000.0001) %MON forcing_qsw_del2             =   0.0000000000000E+00
(PID.TID 0000.0001) %MON forcing_empmr_max            =   5.5111527442932E-02
(PID.TID 0000.0001) %MON forcing_empmr_min            =  -8.3672970533371E-01
(PID.TID 0000.0001) %MON forcing_empmr_mean           =  -7.1007088088459E-04
(PID.TID 0000.0001) %MON forcing_empmr_sd             =   1.5017432282962E-02
(PID.TID 0000.0001) %MON forcing_empmr_del2           =   5.8742217018858E-04
(PID.TID 0000.0001) %MON forcing_fu_max               =   5.2677829465581E-01
(PID.TID 0000.0001) %MON forcing_fu_min               =  -4.5880423782345E-01
(PID.TID 0000.0001) %MON forcing_fu_mean              =  -4.1814237346585E-03
(PID.TID 0000.0001) %MON forcing_fu_sd                =   6.9375254978744E-02
(PID.TID 0000.0001) %MON forcing_fu_del2              =   6.8235245862431E-04
(PID.TID 0000.0001) %MON forcing_fv_max               =   2.9868584949626E-01
(PID.TID 0000.0001) %MON forcing_fv_min               =  -3.9323508454932E-01
(PID.TID 0000.0001) %MON forcing_fv_mean              =  -1.3672568887233E-02
(PID.TID 0000.0001) %MON forcing_fv_sd                =   6.6233499231519E-02
(PID.TID 0000.0001) %MON forcing_fv_del2              =   5.5204045430852E-04
(PID.TID 0000.0001) %MON trAdv_CFL_u_max              =   5.0178623572198E-05
(PID.TID 0000.0001) %MON trAdv_CFL_v_max              =   7.8674505385053E-05
(PID.TID 0000.0001) %MON trAdv_CFL_w_max              =   3.7111731982357E-04
(PID.TID 0000.0001) %MON advcfl_uvel_max              =   5.3400407053833E-05
(PID.TID 0000.0001) %MON advcfl_vvel_max              =   4.4637092322835E-05
(PID.TID 0000.0001) %MON advcfl_wvel_max              =   8.0843449790697E-04
(PID.TID 0000.0001) %MON advcfl_W_hf_max              =   3.7111731982357E-04
(PID.TID 0000.0001) %MON pe_b_mean                    =   5.6037327943787E-04
(PID.TID 0000.0001) %MON ke_max                       =   1.5663499990819E-01
(PID.TID 0000.0001) %MON ke_mean                      =   1.4844228278730E-04
(PID.TID 0000.0001) %MON ke_vol                       =   1.3398058112601E+18
(PID.TID 0000.0001) %MON vort_r_min                   =  -1.6788118673513E-06
(PID.TID 0000.0001) %MON vort_r_max                   =   1.6856132912132E-06
(PID.TID 0000.0001) %MON vort_a_mean                  =  -2.0549865324846E-05
(PID.TID 0000.0001) %MON vort_a_sd                    =   7.5259521122540E-05
(PID.TID 0000.0001) %MON vort_p_mean                  =  -2.4783425853640E-05
(PID.TID 0000.0001) %MON vort_p_sd                    =   1.2811965577462E-04
(PID.TID 0000.0001) %MON surfExpan_theta_mean         =  -5.7427740798986E-06
(PID.TID 0000.0001) %MON surfExpan_salt_mean          =   6.6496965381111E-07
(PID.TID 0000.0001) // =======================================================
(PID.TID 0000.0001) // End MONITOR dynamic field statistics
(PID.TID 0000.0001) // =======================================================
 cg2d: Sum(rhs),rhsMax =  -4.48745667566305E+00  2.30751677381380E+05
(PID.TID 0000.0001)      cg2d_init_res =   4.74986214401684E-03
(PID.TID 0000.0001)      cg2d_iters(min,last) =      -1       1
(PID.TID 0000.0001)      cg2d_last_res =   4.39696219823255E-08
(PID.TID 0000.0001) // =======================================================
(PID.TID 0000.0001) // Begin MONITOR dynamic field statistics
(PID.TID 0000.0001) // =======================================================
(PID.TID 0000.0001) %MON time_tsnumber                =                 72069
(PID.TID 0000.0001) %MON time_secondsf                =   1.8017250000000E+06
(PID.TID 0000.0001) %MON dynstat_eta_max              =   8.7158343305869E+00
(PID.TID 0000.0001) %MON dynstat_eta_min              =  -1.6904482173914E+00
(PID.TID 0000.0001) %MON dynstat_eta_mean             =   9.2841320113630E-03
(PID.TID 0000.0001) %MON dynstat_eta_sd               =   6.4839380298803E-01
(PID.TID 0000.0001) %MON dynstat_eta_del2             =   8.1252101087685E-03
(PID.TID 0000.0001) %MON dynstat_uvel_max             =   5.8468549127884E-01
(PID.TID 0000.0001) %MON dynstat_uvel_min             =  -3.6612379932695E-01
(PID.TID 0000.0001) %MON dynstat_uvel_mean            =  -4.5903258896287E-04
(PID.TID 0000.0001) %MON dynstat_uvel_sd              =   1.2368604812933E-02
(PID.TID 0000.0001) %MON dynstat_uvel_del2            =   7.2615906791358E-05
(PID.TID 0000.0001) %MON dynstat_vvel_max             =   4.9957050590840E-01
(PID.TID 0000.0001) %MON dynstat_vvel_min             =  -4.8729623010859E-01
(PID.TID 0000.0001) %MON dynstat_vvel_mean            =  -3.8617219304316E-04
(PID.TID 0000.0001) %MON dynstat_vvel_sd              =   1.2983947041332E-02
(PID.TID 0000.0001) %MON dynstat_vvel_del2            =   9.2087386679012E-05
(PID.TID 0000.0001) %MON dynstat_wvel_max             =   1.0343736867336E-04
(PID.TID 0000.0001) %MON dynstat_wvel_min             =  -8.0611717297835E-04
(PID.TID 0000.0001) %MON dynstat_wvel_mean            =  -1.5327915007580E-07
(PID.TID 0000.0001) %MON dynstat_wvel_sd              =   8.9566063858974E-06
(PID.TID 0000.0001) %MON dynstat_wvel_del2            =   9.3897382858026E-08
(PID.TID 0000.0001) %MON dynstat_theta_max            =   3.0925540829242E+01
(PID.TID 0000.0001) %MON dynstat_theta_min            =  -3.0175961670936E+00
(PID.TID 0000.0001) %MON dynstat_theta_mean           =   3.9089383394175E+00
(PID.TID 0000.0001) %MON dynstat_theta_sd             =   4.5705969048022E+00
(PID.TID 0000.0001) %MON dynstat_theta_del2           =   2.6553633167269E-03
(PID.TID 0000.0001) %MON dynstat_salt_max             =   4.1377315199662E+01
(PID.TID 0000.0001) %MON dynstat_salt_min             =   1.8518399806751E+01
(PID.TID 0000.0001) %MON dynstat_salt_mean            =   3.4772195726911E+01
(PID.TID 0000.0001) %MON dynstat_salt_sd              =   5.3093331563943E-01
(PID.TID 0000.0001) %MON dynstat_salt_del2            =   8.0283351677390E-04
(PID.TID 0000.0001) %MON dynstat_sst_max              =   3.0925540829242E+01
(PID.TID 0000.0001) %MON dynstat_sst_min              =  -1.8999275959551E+00
(PID.TID 0000.0001) %MON dynstat_sst_mean             =   1.8099423167201E+01
(PID.TID 0000.0001) %MON dynstat_sst_sd               =   9.8000377889203E+00
(PID.TID 0000.0001) %MON dynstat_sst_del2             =   1.5347488915541E-02
(PID.TID 0000.0001) %MON dynstat_sss_max              =   4.1377315199662E+01
(PID.TID 0000.0001) %MON dynstat_sss_min              =   1.8751441268286E+01
(PID.TID 0000.0001) %MON dynstat_sss_mean             =   3.4641807323418E+01
(PID.TID 0000.0001) %MON dynstat_sss_sd               =   1.4570892411045E+00
(PID.TID 0000.0001) %MON dynstat_sss_del2             =   8.0137811350397E-03
(PID.TID 0000.0001) %MON forcing_qnet_max             =   6.8845385742188E+03
(PID.TID 0000.0001) %MON forcing_qnet_min             =  -1.6271746093750E+04
(PID.TID 0000.0001) %MON forcing_qnet_mean            =  -2.3118799779544E+02
(PID.TID 0000.0001) %MON forcing_qnet_sd              =   9.8700582166332E+02
(PID.TID 0000.0001) %MON forcing_qnet_del2            =   3.1423739004196E+01
(PID.TID 0000.0001) %MON forcing_qsw_max              =   0.0000000000000E+00
(PID.TID 0000.0001) %MON forcing_qsw_min              =   0.0000000000000E+00
(PID.TID 0000.0001) %MON forcing_qsw_mean             =   0.0000000000000E+00
(PID.TID 0000.0001) %MON forcing_qsw_sd               =   0.0000000000000E+00
(PID.TID 0000.0001) %MON forcing_qsw_del2             =   0.0000000000000E+00
(PID.TID 0000.0001) %MON forcing_empmr_max            =   5.4624170064926E-02
(PID.TID 0000.0001) %MON forcing_empmr_min            =  -8.3433127403259E-01
(PID.TID 0000.0001) %MON forcing_empmr_mean           =  -7.0924404141168E-04
(PID.TID 0000.0001) %MON forcing_empmr_sd             =   1.4983169471853E-02
(PID.TID 0000.0001) %MON forcing_empmr_del2           =   5.8610348368870E-04
(PID.TID 0000.0001) %MON forcing_fu_max               =   5.2677829465581E-01
(PID.TID 0000.0001) %MON forcing_fu_min               =  -4.5880423782345E-01
(PID.TID 0000.0001) %MON forcing_fu_mean              =  -4.1814237346585E-03
(PID.TID 0000.0001) %MON forcing_fu_sd                =   6.9375254978744E-02
(PID.TID 0000.0001) %MON forcing_fu_del2              =   6.8235245862431E-04
(PID.TID 0000.0001) %MON forcing_fv_max               =   2.9868584949626E-01
(PID.TID 0000.0001) %MON forcing_fv_min               =  -3.9323508454932E-01
(PID.TID 0000.0001) %MON forcing_fv_mean              =  -1.3672568887233E-02
(PID.TID 0000.0001) %MON forcing_fv_sd                =   6.6233499231519E-02
(PID.TID 0000.0001) %MON forcing_fv_del2              =   5.5204045430852E-04
(PID.TID 0000.0001) %MON trAdv_CFL_u_max              =   5.0777309156351E-05
(PID.TID 0000.0001) %MON trAdv_CFL_v_max              =   7.9818095995411E-05
(PID.TID 0000.0001) %MON trAdv_CFL_w_max              =   3.6991555349572E-04
(PID.TID 0000.0001) %MON advcfl_uvel_max              =   5.4160824086084E-05
(PID.TID 0000.0001) %MON advcfl_vvel_max              =   4.5285577478744E-05
(PID.TID 0000.0001) %MON advcfl_wvel_max              =   8.0611717297835E-04
(PID.TID 0000.0001) %MON advcfl_W_hf_max              =   3.6991555349572E-04
(PID.TID 0000.0001) %MON pe_b_mean                    =   5.6018325449021E-04
(PID.TID 0000.0001) %MON ke_max                       =   1.6082788042664E-01
(PID.TID 0000.0001) %MON ke_mean                      =   1.4865606190691E-04
(PID.TID 0000.0001) %MON ke_vol                       =   1.3398058175013E+18
(PID.TID 0000.0001) %MON vort_r_min                   =  -1.6988004814357E-06
(PID.TID 0000.0001) %MON vort_r_max                   =   1.7102632105576E-06
(PID.TID 0000.0001) %MON vort_a_mean                  =  -2.0549865324846E-05
(PID.TID 0000.0001) %MON vort_a_sd                    =   7.5259521208728E-05
(PID.TID 0000.0001) %MON vort_p_mean                  =  -2.4783425724487E-05
(PID.TID 0000.0001) %MON vort_p_sd                    =   1.2811965423157E-04
(PID.TID 0000.0001) %MON surfExpan_theta_mean         =  -5.7597379839620E-06
(PID.TID 0000.0001) %MON surfExpan_salt_mean          =   6.6731854571420E-07
(PID.TID 0000.0001) // =======================================================
(PID.TID 0000.0001) // End MONITOR dynamic field statistics
(PID.TID 0000.0001) // =======================================================
 cg2d: Sum(rhs),rhsMax =  -4.49865300990031E+00  2.30579677537971E+05
(PID.TID 0000.0001)      cg2d_init_res =   4.70866251988817E-03
(PID.TID 0000.0001)      cg2d_iters(min,last) =      -1       1
(PID.TID 0000.0001)      cg2d_last_res =   4.43744929285243E-08
(PID.TID 0000.0001) // =======================================================
(PID.TID 0000.0001) // Begin MONITOR dynamic field statistics
(PID.TID 0000.0001) // =======================================================
(PID.TID 0000.0001) %MON time_tsnumber                =                 72070
(PID.TID 0000.0001) %MON time_secondsf                =   1.8017500000000E+06
(PID.TID 0000.0001) %MON dynstat_eta_max              =   8.7079991594230E+00
(PID.TID 0000.0001) %MON dynstat_eta_min              =  -1.6884521111067E+00
(PID.TID 0000.0001) %MON dynstat_eta_mean             =   9.3003586298606E-03
(PID.TID 0000.0001) %MON dynstat_eta_sd               =   6.4828344982180E-01
(PID.TID 0000.0001) %MON dynstat_eta_del2             =   8.1102575391444E-03
(PID.TID 0000.0001) %MON dynstat_uvel_max             =   5.9288675345007E-01
(PID.TID 0000.0001) %MON dynstat_uvel_min             =  -3.6906746800346E-01
(PID.TID 0000.0001) %MON dynstat_uvel_mean            =  -4.5845820300442E-04
(PID.TID 0000.0001) %MON dynstat_uvel_sd              =   1.2377899368601E-02
(PID.TID 0000.0001) %MON dynstat_uvel_del2            =   7.3118352336334E-05
(PID.TID 0000.0001) %MON dynstat_vvel_max             =   5.0670604675080E-01
(PID.TID 0000.0001) %MON dynstat_vvel_min             =  -4.9399301243806E-01
(PID.TID 0000.0001) %MON dynstat_vvel_mean            =  -3.8586859409278E-04
(PID.TID 0000.0001) %MON dynstat_vvel_sd              =   1.2993091926283E-02
(PID.TID 0000.0001) %MON dynstat_vvel_del2            =   9.2983056481708E-05
(PID.TID 0000.0001) %MON dynstat_wvel_max             =   1.0494298261145E-04
(PID.TID 0000.0001) %MON dynstat_wvel_min             =  -7.8369829015798E-04
(PID.TID 0000.0001) %MON dynstat_wvel_mean            =  -1.5681877286935E-07
(PID.TID 0000.0001) %MON dynstat_wvel_sd              =   8.9292813925771E-06
(PID.TID 0000.0001) %MON dynstat_wvel_del2            =   9.1289980772673E-08
(PID.TID 0000.0001) %MON dynstat_theta_max            =   3.0925534795373E+01
(PID.TID 0000.0001) %MON dynstat_theta_min            =  -3.0175908042157E+00
(PID.TID 0000.0001) %MON dynstat_theta_mean           =   3.9089382360041E+00
(PID.TID 0000.0001) %MON dynstat_theta_sd             =   4.5705949783674E+00
(PID.TID 0000.0001) %MON dynstat_theta_del2           =   2.6552777809133E-03
(PID.TID 0000.0001) %MON dynstat_salt_max             =   4.1377307865432E+01
(PID.TID 0000.0001) %MON dynstat_salt_min             =   1.8518400073887E+01
(PID.TID 0000.0001) %MON dynstat_salt_mean            =   3.4772195523646E+01
(PID.TID 0000.0001) %MON dynstat_salt_sd              =   5.3093359953336E-01
(PID.TID 0000.0001) %MON dynstat_salt_del2            =   8.0284450590847E-04
(PID.TID 0000.0001) %MON dynstat_sst_max              =   3.0925534795373E+01
(PID.TID 0000.0001) %MON dynstat_sst_min              =  -1.8999265462975E+00
(PID.TID 0000.0001) %MON dynstat_sst_mean             =   1.8099409738398E+01
(PID.TID 0000.0001) %MON dynstat_sst_sd               =   9.7999854925785E+00
(PID.TID 0000.0001) %MON dynstat_sst_del2             =   1.5345164953095E-02
(PID.TID 0000.0001) %MON dynstat_sss_max              =   4.1377307865432E+01
(PID.TID 0000.0001) %MON dynstat_sss_min              =   1.8751431961161E+01
(PID.TID 0000.0001) %MON dynstat_sss_mean             =   3.4641792757606E+01
(PID.TID 0000.0001) %MON dynstat_sss_sd               =   1.4570955477825E+00
(PID.TID 0000.0001) %MON dynstat_sss_del2             =   8.0139523739921E-03
(PID.TID 0000.0001) %MON forcing_qnet_max             =   5.7788164062500E+04
(PID.TID 0000.0001) %MON forcing_qnet_min             =  -1.6249621875000E+05
(PID.TID 0000.0001) %MON forcing_qnet_mean            =   1.1973026931544E+02
(PID.TID 0000.0001) %MON forcing_qnet_sd              =   3.5781479202721E+03
(PID.TID 0000.0001) %MON forcing_qnet_del2            =   1.6338344051676E+02
(PID.TID 0000.0001) %MON forcing_qsw_max              =   0.0000000000000E+00
(PID.TID 0000.0001) %MON forcing_qsw_min              =   0.0000000000000E+00
(PID.TID 0000.0001) %MON forcing_qsw_mean             =   0.0000000000000E+00
(PID.TID 0000.0001) %MON forcing_qsw_sd               =   0.0000000000000E+00
(PID.TID 0000.0001) %MON forcing_qsw_del2             =   0.0000000000000E+00
(PID.TID 0000.0001) %MON forcing_empmr_max            =   1.0861598700285E-01
(PID.TID 0000.0001) %MON forcing_empmr_min            =  -7.4525600671768E-01
(PID.TID 0000.0001) %MON forcing_empmr_mean           =  -6.7178200578745E-04
(PID.TID 0000.0001) %MON forcing_empmr_sd             =   1.3908046535312E-02
(PID.TID 0000.0001) %MON forcing_empmr_del2           =   5.4603436064355E-04
(PID.TID 0000.0001) %MON forcing_fu_max               =   5.4801289228757E-01
(PID.TID 0000.0001) %MON forcing_fu_min               =  -4.4641799185092E-01
(PID.TID 0000.0001) %MON forcing_fu_mean              =  -4.1255168011747E-03
(PID.TID 0000.0001) %MON forcing_fu_sd                =   6.8509574629944E-02
(PID.TID 0000.0001) %MON forcing_fu_del2              =   6.7687679415252E-04
(PID.TID 0000.0001) %MON forcing_fv_max               =   3.0914867831684E-01
(PID.TID 0000.0001) %MON forcing_fv_min               =  -3.4788516937630E-01
(PID.TID 0000.0001) %MON forcing_fv_mean              =  -1.3332087099671E-02
(PID.TID 0000.0001) %MON forcing_fv_sd                =   6.5600041909167E-02
(PID.TID 0000.0001) %MON forcing_fv_del2              =   5.4726463157888E-04
(PID.TID 0000.0001) %MON trAdv_CFL_u_max              =   5.1374381862446E-05
(PID.TID 0000.0001) %MON trAdv_CFL_v_max              =   8.0957673647425E-05
(PID.TID 0000.0001) %MON trAdv_CFL_w_max              =   3.3001182875073E-04
(PID.TID 0000.0001) %MON advcfl_uvel_max              =   5.4920526737109E-05
(PID.TID 0000.0001) %MON advcfl_vvel_max              =   4.5932407273236E-05
(PID.TID 0000.0001) %MON advcfl_wvel_max              =   7.2005411277071E-04
(PID.TID 0000.0001) %MON advcfl_W_hf_max              =   3.3001182875073E-04
(PID.TID 0000.0001) %MON pe_b_mean                    =   5.5999302852808E-04
(PID.TID 0000.0001) %MON ke_max                       =   1.6506276143098E-01
(PID.TID 0000.0001) %MON ke_mean                      =   1.4887155611415E-04
(PID.TID 0000.0001) %MON ke_vol                       =   1.3398058237353E+18
(PID.TID 0000.0001) %MON vort_r_min                   =  -1.7185553364781E-06
(PID.TID 0000.0001) %MON vort_r_max                   =   1.7348402275669E-06
(PID.TID 0000.0001) %MON vort_a_mean                  =  -2.0549865324846E-05
(PID.TID 0000.0001) %MON vort_a_sd                    =   7.5259521296355E-05
(PID.TID 0000.0001) %MON vort_p_mean                  =  -2.4783425595041E-05
(PID.TID 0000.0001) %MON vort_p_sd                    =   1.2811965268919E-04
(PID.TID 0000.0001) %MON surfExpan_theta_mean         =  -6.8458021198602E-06
(PID.TID 0000.0001) %MON surfExpan_salt_mean          =   5.8941012496883E-07
(PID.TID 0000.0001) // =======================================================
(PID.TID 0000.0001) // End MONITOR dynamic field statistics
(PID.TID 0000.0001) // =======================================================
 cg2d: Sum(rhs),rhsMax =  -4.50996304195395E+00  2.30405245708318E+05
(PID.TID 0000.0001)      cg2d_init_res =   4.74407964220662E-03
(PID.TID 0000.0001)      cg2d_iters(min,last) =      -1       1
(PID.TID 0000.0001)      cg2d_last_res =   4.47312775534146E-08
(PID.TID 0000.0001) // =======================================================
(PID.TID 0000.0001) // Begin MONITOR dynamic field statistics
(PID.TID 0000.0001) // =======================================================
(PID.TID 0000.0001) %MON time_tsnumber                =                 72071
(PID.TID 0000.0001) %MON time_secondsf                =   1.8017750000000E+06
(PID.TID 0000.0001) %MON dynstat_eta_max              =   8.7000532974488E+00
(PID.TID 0000.0001) %MON dynstat_eta_min              =  -1.6863995371889E+00
(PID.TID 0000.0001) %MON dynstat_eta_mean             =   9.3166872552487E-03
(PID.TID 0000.0001) %MON dynstat_eta_sd               =   6.4817141152900E-01
(PID.TID 0000.0001) %MON dynstat_eta_del2             =   8.0951691292396E-03
(PID.TID 0000.0001) %MON dynstat_uvel_max             =   6.0108011430639E-01
(PID.TID 0000.0001) %MON dynstat_uvel_min             =  -3.7200736872663E-01
(PID.TID 0000.0001) %MON dynstat_uvel_mean            =  -4.5787943468468E-04
(PID.TID 0000.0001) %MON dynstat_uvel_sd              =   1.2387269995655E-02
(PID.TID 0000.0001) %MON dynstat_uvel_del2            =   7.3622356034125E-05
(PID.TID 0000.0001) %MON dynstat_vvel_max             =   5.1382322152710E-01
(PID.TID 0000.0001) %MON dynstat_vvel_min             =  -5.0068221759920E-01
(PID.TID 0000.0001) %MON dynstat_vvel_mean            =  -3.8556541645695E-04
(PID.TID 0000.0001) %MON dynstat_vvel_sd              =   1.3002292543676E-02
(PID.TID 0000.0001) %MON dynstat_vvel_del2            =   9.3878724265074E-05
(PID.TID 0000.0001) %MON dynstat_wvel_max             =   1.0344700344116E-04
(PID.TID 0000.0001) %MON dynstat_wvel_min             =  -7.9196092910421E-04
(PID.TID 0000.0001) %MON dynstat_wvel_mean            =  -1.5804362528707E-07
(PID.TID 0000.0001) %MON dynstat_wvel_sd              =   8.9885711065255E-06
(PID.TID 0000.0001) %MON dynstat_wvel_del2            =   9.1572772559420E-08
(PID.TID 0000.0001) %MON dynstat_theta_max            =   3.0925528762212E+01
(PID.TID 0000.0001) %MON dynstat_theta_min            =  -3.0175852447938E+00
(PID.TID 0000.0001) %MON dynstat_theta_mean           =   3.9089383164439E+00
(PID.TID 0000.0001) %MON dynstat_theta_sd             =   4.5705940909063E+00
(PID.TID 0000.0001) %MON dynstat_theta_del2           =   2.6552134362328E-03
(PID.TID 0000.0001) %MON dynstat_salt_max             =   4.1377300322435E+01
(PID.TID 0000.0001) %MON dynstat_salt_min             =   1.8518400340479E+01
(PID.TID 0000.0001) %MON dynstat_salt_mean            =   3.4772195314419E+01
(PID.TID 0000.0001) %MON dynstat_salt_sd              =   5.3093390095952E-01
(PID.TID 0000.0001) %MON dynstat_salt_del2            =   8.0285946869145E-04
(PID.TID 0000.0001) %MON dynstat_sst_max              =   3.0925528762212E+01
(PID.TID 0000.0001) %MON dynstat_sst_min              =  -1.8999254956959E+00
(PID.TID 0000.0001) %MON dynstat_sst_mean             =   1.8099410538133E+01
(PID.TID 0000.0001) %MON dynstat_sst_sd               =   9.7999489923116E+00
(PID.TID 0000.0001) %MON dynstat_sst_del2             =   1.5343419208391E-02
(PID.TID 0000.0001) %MON dynstat_sss_max              =   4.1377300322435E+01
(PID.TID 0000.0001) %MON dynstat_sss_min              =   1.8751423928237E+01
(PID.TID 0000.0001) %MON dynstat_sss_mean             =   3.4641777812125E+01
(PID.TID 0000.0001) %MON dynstat_sss_sd               =   1.4571022363423E+00
(PID.TID 0000.0001) %MON dynstat_sss_del2             =   8.0141860416042E-03
(PID.TID 0000.0001) %MON forcing_qnet_max             =   5.6298109375000E+04
(PID.TID 0000.0001) %MON forcing_qnet_min             =  -1.1286005468750E+05
(PID.TID 0000.0001) %MON forcing_qnet_mean            =   3.1107148102910E+00
(PID.TID 0000.0001) %MON forcing_qnet_sd              =   2.8257388536091E+03
(PID.TID 0000.0001) %MON forcing_qnet_del2            =   1.2105730444971E+02
(PID.TID 0000.0001) %MON forcing_qsw_max              =   0.0000000000000E+00
(PID.TID 0000.0001) %MON forcing_qsw_min              =   0.0000000000000E+00
(PID.TID 0000.0001) %MON forcing_qsw_mean             =   0.0000000000000E+00
(PID.TID 0000.0001) %MON forcing_qsw_sd               =   0.0000000000000E+00
(PID.TID 0000.0001) %MON forcing_qsw_del2             =   0.0000000000000E+00
(PID.TID 0000.0001) %MON forcing_empmr_max            =   1.0668670386076E-01
(PID.TID 0000.0001) %MON forcing_empmr_min            =  -7.4334907531738E-01
(PID.TID 0000.0001) %MON forcing_empmr_mean           =  -6.7600509107903E-04
(PID.TID 0000.0001) %MON forcing_empmr_sd             =   1.3869879702573E-02
(PID.TID 0000.0001) %MON forcing_empmr_del2           =   5.4493049479216E-04
(PID.TID 0000.0001) %MON forcing_fu_max               =   5.4801289228757E-01
(PID.TID 0000.0001) %MON forcing_fu_min               =  -4.4641799185092E-01
(PID.TID 0000.0001) %MON forcing_fu_mean              =  -4.1255168011747E-03
(PID.TID 0000.0001) %MON forcing_fu_sd                =   6.8509574629944E-02
(PID.TID 0000.0001) %MON forcing_fu_del2              =   6.7687679415252E-04
(PID.TID 0000.0001) %MON forcing_fv_max               =   3.0914867831684E-01
(PID.TID 0000.0001) %MON forcing_fv_min               =  -3.4788516937630E-01
(PID.TID 0000.0001) %MON forcing_fv_mean              =  -1.3332087099671E-02
(PID.TID 0000.0001) %MON forcing_fv_sd                =   6.5600041909167E-02
(PID.TID 0000.0001) %MON forcing_fv_del2              =   5.4726463157888E-04
(PID.TID 0000.0001) %MON trAdv_CFL_u_max              =   5.1969824811894E-05
(PID.TID 0000.0001) %MON trAdv_CFL_v_max              =   8.2093206320838E-05
(PID.TID 0000.0001) %MON trAdv_CFL_w_max              =   3.2902983869866E-04
(PID.TID 0000.0001) %MON advcfl_uvel_max              =   5.5679497470318E-05
(PID.TID 0000.0001) %MON advcfl_vvel_max              =   4.6577572201810E-05
(PID.TID 0000.0001) %MON advcfl_wvel_max              =   7.1821166697332E-04
(PID.TID 0000.0001) %MON advcfl_W_hf_max              =   3.2902983869866E-04
(PID.TID 0000.0001) %MON pe_b_mean                    =   5.5979992822864E-04
(PID.TID 0000.0001) %MON ke_max                       =   1.6933896333218E-01
(PID.TID 0000.0001) %MON ke_mean                      =   1.4908874422775E-04
(PID.TID 0000.0001) %MON ke_vol                       =   1.3398058296399E+18
(PID.TID 0000.0001) %MON vort_r_min                   =  -1.7400247049117E-06
(PID.TID 0000.0001) %MON vort_r_max                   =   1.7593440839296E-06
(PID.TID 0000.0001) %MON vort_a_mean                  =  -2.0549865324846E-05
(PID.TID 0000.0001) %MON vort_a_sd                    =   7.5259521384257E-05
(PID.TID 0000.0001) %MON vort_p_mean                  =  -2.4783425468942E-05
(PID.TID 0000.0001) %MON vort_p_sd                    =   1.2811965144533E-04
(PID.TID 0000.0001) %MON surfExpan_theta_mean         =  -6.5484836047659E-06
(PID.TID 0000.0001) %MON surfExpan_salt_mean          =   6.1014524938248E-07
(PID.TID 0000.0001) // =======================================================
(PID.TID 0000.0001) // End MONITOR dynamic field statistics
(PID.TID 0000.0001) // =======================================================
 cg2d: Sum(rhs),rhsMax =  -4.52137094901853E+00  2.30228386114483E+05
(PID.TID 0000.0001)      cg2d_init_res =   4.77974248363553E-03
(PID.TID 0000.0001)      cg2d_iters(min,last) =      -1       1
(PID.TID 0000.0001)      cg2d_last_res =   4.51192660679156E-08
(PID.TID 0000.0001) // =======================================================
(PID.TID 0000.0001) // Begin MONITOR dynamic field statistics
(PID.TID 0000.0001) // =======================================================
(PID.TID 0000.0001) %MON time_tsnumber                =                 72072
(PID.TID 0000.0001) %MON time_secondsf                =   1.8018000000000E+06
(PID.TID 0000.0001) %MON dynstat_eta_max              =   8.6919969560815E+00
(PID.TID 0000.0001) %MON dynstat_eta_min              =  -1.6843007414104E+00
(PID.TID 0000.0001) %MON dynstat_eta_mean             =   9.3330841237047E-03
(PID.TID 0000.0001) %MON dynstat_eta_sd               =   6.4805791031221E-01
(PID.TID 0000.0001) %MON dynstat_eta_del2             =   8.0799461554600E-03
(PID.TID 0000.0001) %MON dynstat_uvel_max             =   6.0926538533406E-01
(PID.TID 0000.0001) %MON dynstat_uvel_min             =  -3.7494347413452E-01
(PID.TID 0000.0001) %MON dynstat_uvel_mean            =  -4.5729610446587E-04
(PID.TID 0000.0001) %MON dynstat_uvel_sd              =   1.2396711806658E-02
(PID.TID 0000.0001) %MON dynstat_uvel_del2            =   7.4127821093237E-05
(PID.TID 0000.0001) %MON dynstat_vvel_max             =   5.2092192640266E-01
(PID.TID 0000.0001) %MON dynstat_vvel_min             =  -5.0736372678023E-01
(PID.TID 0000.0001) %MON dynstat_vvel_mean            =  -3.8526132008710E-04
(PID.TID 0000.0001) %MON dynstat_vvel_sd              =   1.3011548233793E-02
(PID.TID 0000.0001) %MON dynstat_vvel_del2            =   9.4774215685292E-05
(PID.TID 0000.0001) %MON dynstat_wvel_max             =   1.0345184233509E-04
(PID.TID 0000.0001) %MON dynstat_wvel_min             =  -8.0010452329979E-04
(PID.TID 0000.0001) %MON dynstat_wvel_mean            =  -1.5944873487478E-07
(PID.TID 0000.0001) %MON dynstat_wvel_sd              =   9.0496006204548E-06
(PID.TID 0000.0001) %MON dynstat_wvel_del2            =   9.1865170312405E-08
(PID.TID 0000.0001) %MON dynstat_theta_max            =   3.0925522729787E+01
(PID.TID 0000.0001) %MON dynstat_theta_min            =  -3.0175794458729E+00
(PID.TID 0000.0001) %MON dynstat_theta_mean           =   3.9089385247090E+00
(PID.TID 0000.0001) %MON dynstat_theta_sd             =   4.5705939292788E+00
(PID.TID 0000.0001) %MON dynstat_theta_del2           =   2.6551637668413E-03
(PID.TID 0000.0001) %MON dynstat_salt_max             =   4.1377292706835E+01
(PID.TID 0000.0001) %MON dynstat_salt_min             =   1.8518400607137E+01
(PID.TID 0000.0001) %MON dynstat_salt_mean            =   3.4772195101529E+01
(PID.TID 0000.0001) %MON dynstat_salt_sd              =   5.3093421411305E-01
(PID.TID 0000.0001) %MON dynstat_salt_del2            =   8.0287728552756E-04
(PID.TID 0000.0001) %MON dynstat_sst_max              =   3.0925522729787E+01
(PID.TID 0000.0001) %MON dynstat_sst_min              =  -1.8999244442011E+00
(PID.TID 0000.0001) %MON dynstat_sst_mean             =   1.8099420974643E+01
(PID.TID 0000.0001) %MON dynstat_sst_sd               =   9.7999236488261E+00
(PID.TID 0000.0001) %MON dynstat_sst_del2             =   1.5342074946337E-02
(PID.TID 0000.0001) %MON dynstat_sss_max              =   4.1377292706835E+01
(PID.TID 0000.0001) %MON dynstat_sss_min              =   1.8751416933046E+01
(PID.TID 0000.0001) %MON dynstat_sss_mean             =   3.4641762612880E+01
(PID.TID 0000.0001) %MON dynstat_sss_sd               =   1.4571092023977E+00
(PID.TID 0000.0001) %MON dynstat_sss_del2             =   8.0144648146419E-03
(PID.TID 0000.0001) %MON forcing_qnet_max             =   5.4843527343750E+04
(PID.TID 0000.0001) %MON forcing_qnet_min             =  -7.8378632812500E+04
(PID.TID 0000.0001) %MON forcing_qnet_mean            =  -7.5614880075352E+01
(PID.TID 0000.0001) %MON forcing_qnet_sd              =   2.3364380542744E+03
(PID.TID 0000.0001) %MON forcing_qnet_del2            =   9.3196367912458E+01
(PID.TID 0000.0001) %MON forcing_qsw_max              =   0.0000000000000E+00
(PID.TID 0000.0001) %MON forcing_qsw_min              =   0.0000000000000E+00
(PID.TID 0000.0001) %MON forcing_qsw_mean             =   0.0000000000000E+00
(PID.TID 0000.0001) %MON forcing_qsw_sd               =   0.0000000000000E+00
(PID.TID 0000.0001) %MON forcing_qsw_del2             =   0.0000000000000E+00
(PID.TID 0000.0001) %MON forcing_empmr_max            =   1.0479366779327E-01
(PID.TID 0000.0001) %MON forcing_empmr_min            =  -7.4144214391708E-01
(PID.TID 0000.0001) %MON forcing_empmr_mean           =  -6.7883035406497E-04
(PID.TID 0000.0001) %MON forcing_empmr_sd             =   1.3836614166238E-02
(PID.TID 0000.0001) %MON forcing_empmr_del2           =   5.4386322406443E-04
(PID.TID 0000.0001) %MON forcing_fu_max               =   5.4801289228757E-01
(PID.TID 0000.0001) %MON forcing_fu_min               =  -4.4641799185092E-01
(PID.TID 0000.0001) %MON forcing_fu_mean              =  -4.1255168011747E-03
(PID.TID 0000.0001) %MON forcing_fu_sd                =   6.8509574629944E-02
(PID.TID 0000.0001) %MON forcing_fu_del2              =   6.7687679415252E-04
(PID.TID 0000.0001) %MON forcing_fv_max               =   3.0914867831684E-01
(PID.TID 0000.0001) %MON forcing_fv_min               =  -3.4788516937630E-01
(PID.TID 0000.0001) %MON forcing_fv_mean              =  -1.3332087099671E-02
(PID.TID 0000.0001) %MON forcing_fv_sd                =   6.5600041909167E-02
(PID.TID 0000.0001) %MON forcing_fv_del2              =   5.4726463157888E-04
(PID.TID 0000.0001) %MON trAdv_CFL_u_max              =   5.2672455615249E-05
(PID.TID 0000.0001) %MON trAdv_CFL_v_max              =   8.3224662073262E-05
(PID.TID 0000.0001) %MON trAdv_CFL_w_max              =   3.2804712699077E-04
(PID.TID 0000.0001) %MON advcfl_uvel_max              =   5.6437718823232E-05
(PID.TID 0000.0001) %MON advcfl_vvel_max              =   4.7221062851957E-05
(PID.TID 0000.0001) %MON advcfl_wvel_max              =   7.1636922117593E-04
(PID.TID 0000.0001) %MON advcfl_W_hf_max              =   3.2804712699077E-04
(PID.TID 0000.0001) %MON pe_b_mean                    =   5.5960433779011E-04
(PID.TID 0000.0001) %MON ke_max                       =   1.7365580258331E-01
(PID.TID 0000.0001) %MON ke_mean                      =   1.4930756543288E-04
(PID.TID 0000.0001) %MON ke_vol                       =   1.3398058355817E+18
(PID.TID 0000.0001) %MON vort_r_min                   =  -1.7627612735912E-06
(PID.TID 0000.0001) %MON vort_r_max                   =   1.7837745225635E-06
(PID.TID 0000.0001) %MON vort_a_mean                  =  -2.0549865324846E-05
(PID.TID 0000.0001) %MON vort_a_sd                    =   7.5259521472720E-05
(PID.TID 0000.0001) %MON vort_p_mean                  =  -2.4783425342030E-05
(PID.TID 0000.0001) %MON vort_p_sd                    =   1.2811965014456E-04
(PID.TID 0000.0001) %MON surfExpan_theta_mean         =  -6.3448320392748E-06
(PID.TID 0000.0001) %MON surfExpan_salt_mean          =   6.2542944731951E-07
(PID.TID 0000.0001) // =======================================================
(PID.TID 0000.0001) // End MONITOR dynamic field statistics
(PID.TID 0000.0001) // =======================================================
 cg2d: Sum(rhs),rhsMax =  -4.53286434741160E+00  2.30049103016573E+05
(PID.TID 0000.0001)      cg2d_init_res =   4.81540248260488E-03
(PID.TID 0000.0001)      cg2d_iters(min,last) =      -1       1
(PID.TID 0000.0001)      cg2d_last_res =   4.55199253052492E-08
(PID.TID 0000.0001) // =======================================================
(PID.TID 0000.0001) // Begin MONITOR dynamic field statistics
(PID.TID 0000.0001) // =======================================================
(PID.TID 0000.0001) %MON time_tsnumber                =                 72073
(PID.TID 0000.0001) %MON time_secondsf                =   1.8018250000000E+06
(PID.TID 0000.0001) %MON dynstat_eta_max              =   8.6838303490402E+00
(PID.TID 0000.0001) %MON dynstat_eta_min              =  -1.6821629672235E+00
(PID.TID 0000.0001) %MON dynstat_eta_mean             =   9.3495226551217E-03
(PID.TID 0000.0001) %MON dynstat_eta_sd               =   6.4794310965572E-01
(PID.TID 0000.0001) %MON dynstat_eta_del2             =   8.0645900740729E-03
(PID.TID 0000.0001) %MON dynstat_uvel_max             =   6.1744237887881E-01
(PID.TID 0000.0001) %MON dynstat_uvel_min             =  -3.7787575684885E-01
(PID.TID 0000.0001) %MON dynstat_uvel_mean            =  -4.5670818093714E-04
(PID.TID 0000.0001) %MON dynstat_uvel_sd              =   1.2406222743306E-02
(PID.TID 0000.0001) %MON dynstat_uvel_del2            =   7.4634647434650E-05
(PID.TID 0000.0001) %MON dynstat_vvel_max             =   5.2800205850409E-01
(PID.TID 0000.0001) %MON dynstat_vvel_min             =  -5.1403743665087E-01
(PID.TID 0000.0001) %MON dynstat_vvel_mean            =  -3.8495639277269E-04
(PID.TID 0000.0001) %MON dynstat_vvel_sd              =   1.3020856539108E-02
(PID.TID 0000.0001) %MON dynstat_vvel_del2            =   9.5669374915775E-05
(PID.TID 0000.0001) %MON dynstat_wvel_max             =   1.0345669798892E-04
(PID.TID 0000.0001) %MON dynstat_wvel_min             =  -8.0812893744339E-04
(PID.TID 0000.0001) %MON dynstat_wvel_mean            =  -1.6090952311429E-07
(PID.TID 0000.0001) %MON dynstat_wvel_sd              =   9.1112531774697E-06
(PID.TID 0000.0001) %MON dynstat_wvel_del2            =   9.2161753621875E-08
(PID.TID 0000.0001) %MON dynstat_theta_max            =   3.0925516698100E+01
(PID.TID 0000.0001) %MON dynstat_theta_min            =  -3.0175734048165E+00
(PID.TID 0000.0001) %MON dynstat_theta_mean           =   3.9089388183500E+00
(PID.TID 0000.0001) %MON dynstat_theta_sd             =   4.5705942639088E+00
(PID.TID 0000.0001) %MON dynstat_theta_del2           =   2.6551217433441E-03
(PID.TID 0000.0001) %MON dynstat_salt_max             =   4.1377284918318E+01
(PID.TID 0000.0001) %MON dynstat_salt_min             =   1.8518400873884E+01
(PID.TID 0000.0001) %MON dynstat_salt_mean            =   3.4772194886122E+01
(PID.TID 0000.0001) %MON dynstat_salt_sd              =   5.3093453579733E-01
(PID.TID 0000.0001) %MON dynstat_salt_del2            =   8.0289720738337E-04
(PID.TID 0000.0001) %MON dynstat_sst_max              =   3.0925516698100E+01
(PID.TID 0000.0001) %MON dynstat_sst_min              =  -1.8999233918120E+00
(PID.TID 0000.0001) %MON dynstat_sst_mean             =   1.8099439056896E+01
(PID.TID 0000.0001) %MON dynstat_sst_sd               =   9.7999057739026E+00
(PID.TID 0000.0001) %MON dynstat_sst_del2             =   1.5340986000035E-02
(PID.TID 0000.0001) %MON dynstat_sss_max              =   4.1377284918318E+01
(PID.TID 0000.0001) %MON dynstat_sss_min              =   1.8751410984439E+01
(PID.TID 0000.0001) %MON dynstat_sss_mean             =   3.4641747591371E+01
(PID.TID 0000.0001) %MON dynstat_sss_sd               =   1.4571165712887E+00
(PID.TID 0000.0001) %MON dynstat_sss_del2             =   8.0147889826529E-03
(PID.TID 0000.0001) %MON forcing_qnet_max             =   5.3442148437500E+04
(PID.TID 0000.0001) %MON forcing_qnet_min             =  -5.4437394531250E+04
(PID.TID 0000.0001) %MON forcing_qnet_mean            =  -1.2824970312277E+02
(PID.TID 0000.0001) %MON forcing_qnet_sd              =   2.0217436567654E+03
(PID.TID 0000.0001) %MON forcing_qnet_del2            =   7.5354688846908E+01
(PID.TID 0000.0001) %MON forcing_qsw_max              =   0.0000000000000E+00
(PID.TID 0000.0001) %MON forcing_qsw_min              =   0.0000000000000E+00
(PID.TID 0000.0001) %MON forcing_qsw_mean             =   0.0000000000000E+00
(PID.TID 0000.0001) %MON forcing_qsw_sd               =   0.0000000000000E+00
(PID.TID 0000.0001) %MON forcing_qsw_del2             =   0.0000000000000E+00
(PID.TID 0000.0001) %MON forcing_empmr_max            =   1.0293284803629E-01
(PID.TID 0000.0001) %MON forcing_empmr_min            =  -7.3953521251678E-01
(PID.TID 0000.0001) %MON forcing_empmr_mean           =  -6.8055520067001E-04
(PID.TID 0000.0001) %MON forcing_empmr_sd             =   1.3805885741514E-02
(PID.TID 0000.0001) %MON forcing_empmr_del2           =   5.4281664505876E-04
(PID.TID 0000.0001) %MON forcing_fu_max               =   5.4801289228757E-01
(PID.TID 0000.0001) %MON forcing_fu_min               =  -4.4641799185092E-01
(PID.TID 0000.0001) %MON forcing_fu_mean              =  -4.1255168011747E-03
(PID.TID 0000.0001) %MON forcing_fu_sd                =   6.8509574629944E-02
(PID.TID 0000.0001) %MON forcing_fu_del2              =   6.7687679415252E-04
(PID.TID 0000.0001) %MON forcing_fv_max               =   3.0914867831684E-01
(PID.TID 0000.0001) %MON forcing_fv_min               =  -3.4788516937630E-01
(PID.TID 0000.0001) %MON forcing_fv_mean              =  -1.3332087099671E-02
(PID.TID 0000.0001) %MON forcing_fv_sd                =   6.5600041909167E-02
(PID.TID 0000.0001) %MON forcing_fv_del2              =   5.4726463157888E-04
(PID.TID 0000.0001) %MON trAdv_CFL_u_max              =   5.3384155863541E-05
(PID.TID 0000.0001) %MON trAdv_CFL_v_max              =   8.4352009170810E-05
(PID.TID 0000.0001) %MON trAdv_CFL_w_max              =   3.2706369555503E-04
(PID.TID 0000.0001) %MON advcfl_uvel_max              =   5.7195173412983E-05
(PID.TID 0000.0001) %MON advcfl_vvel_max              =   4.7862869898303E-05
(PID.TID 0000.0001) %MON advcfl_wvel_max              =   7.1452677537854E-04
(PID.TID 0000.0001) %MON advcfl_W_hf_max              =   3.2706369555503E-04
(PID.TID 0000.0001) %MON pe_b_mean                    =   5.5940654012367E-04
(PID.TID 0000.0001) %MON ke_max                       =   1.7801259205942E-01
(PID.TID 0000.0001) %MON ke_mean                      =   1.4952796988911E-04
(PID.TID 0000.0001) %MON ke_vol                       =   1.3398058415483E+18
(PID.TID 0000.0001) %MON vort_r_min                   =  -1.7852977558619E-06
(PID.TID 0000.0001) %MON vort_r_max                   =   1.8081312872372E-06
(PID.TID 0000.0001) %MON vort_a_mean                  =  -2.0549865324846E-05
(PID.TID 0000.0001) %MON vort_a_sd                    =   7.5259521561721E-05
(PID.TID 0000.0001) %MON vort_p_mean                  =  -2.4783425214451E-05
(PID.TID 0000.0001) %MON vort_p_sd                    =   1.2811964880291E-04
(PID.TID 0000.0001) %MON surfExpan_theta_mean         =  -6.2044212595637E-06
(PID.TID 0000.0001) %MON surfExpan_salt_mean          =   6.3700204645277E-07
(PID.TID 0000.0001) // =======================================================
(PID.TID 0000.0001) // End MONITOR dynamic field statistics
(PID.TID 0000.0001) // =======================================================
 cg2d: Sum(rhs),rhsMax =  -4.54443398899993E+00  2.29867400713566E+05
(PID.TID 0000.0001)      cg2d_init_res =   4.85096009400133E-03
(PID.TID 0000.0001)      cg2d_iters(min,last) =      -1       1
(PID.TID 0000.0001)      cg2d_last_res =   4.59223127017346E-08
(PID.TID 0000.0001) // =======================================================
(PID.TID 0000.0001) // Begin MONITOR dynamic field statistics
(PID.TID 0000.0001) // =======================================================
(PID.TID 0000.0001) %MON time_tsnumber                =                 72074
(PID.TID 0000.0001) %MON time_secondsf                =   1.8018500000000E+06
(PID.TID 0000.0001) %MON dynstat_eta_max              =   8.6755536923319E+00
(PID.TID 0000.0001) %MON dynstat_eta_min              =  -1.6799914569175E+00
(PID.TID 0000.0001) %MON dynstat_eta_mean             =   9.3659828029668E-03
(PID.TID 0000.0001) %MON dynstat_eta_sd               =   6.4782713227880E-01
(PID.TID 0000.0001) %MON dynstat_eta_del2             =   8.0491023911906E-03
(PID.TID 0000.0001) %MON dynstat_uvel_max             =   6.2561090813508E-01
(PID.TID 0000.0001) %MON dynstat_uvel_min             =  -3.8080418955396E-01
(PID.TID 0000.0001) %MON dynstat_uvel_mean            =  -4.5611565557131E-04
(PID.TID 0000.0001) %MON dynstat_uvel_sd              =   1.2415800743991E-02
(PID.TID 0000.0001) %MON dynstat_uvel_del2            =   7.5142738815201E-05
(PID.TID 0000.0001) %MON dynstat_vvel_max             =   5.3506351595328E-01
(PID.TID 0000.0001) %MON dynstat_vvel_min             =  -5.2070324417419E-01
(PID.TID 0000.0001) %MON dynstat_vvel_mean            =  -3.8465070258626E-04
(PID.TID 0000.0001) %MON dynstat_vvel_sd              =   1.3030214974282E-02
(PID.TID 0000.0001) %MON dynstat_vvel_del2            =   9.6564051251873E-05
(PID.TID 0000.0001) %MON dynstat_wvel_max             =   1.0346157037532E-04
(PID.TID 0000.0001) %MON dynstat_wvel_min             =  -8.1603406616857E-04
(PID.TID 0000.0001) %MON dynstat_wvel_mean            =  -1.6240153896033E-07
(PID.TID 0000.0001) %MON dynstat_wvel_sd              =   9.1729123947350E-06
(PID.TID 0000.0001) %MON dynstat_wvel_del2            =   9.2457496922234E-08
(PID.TID 0000.0001) %MON dynstat_theta_max            =   3.0925510667147E+01
(PID.TID 0000.0001) %MON dynstat_theta_min            =  -3.0175671142096E+00
(PID.TID 0000.0001) %MON dynstat_theta_mean           =   3.9089391680042E+00
(PID.TID 0000.0001) %MON dynstat_theta_sd             =   4.5705949366686E+00
(PID.TID 0000.0001) %MON dynstat_theta_del2           =   2.6550872977235E-03
(PID.TID 0000.0001) %MON dynstat_salt_max             =   4.1377277086995E+01
(PID.TID 0000.0001) %MON dynstat_salt_min             =   1.8518401140466E+01
(PID.TID 0000.0001) %MON dynstat_salt_mean            =   3.4772194669095E+01
(PID.TID 0000.0001) %MON dynstat_salt_sd              =   5.3093486427471E-01
(PID.TID 0000.0001) %MON dynstat_salt_del2            =   8.0291874111176E-04
(PID.TID 0000.0001) %MON dynstat_sst_max              =   3.0925510667147E+01
(PID.TID 0000.0001) %MON dynstat_sst_min              =  -1.8999223385206E+00
(PID.TID 0000.0001) %MON dynstat_sst_mean             =   1.8099461210416E+01
(PID.TID 0000.0001) %MON dynstat_sst_sd               =   9.7998934991234E+00
(PID.TID 0000.0001) %MON dynstat_sst_del2             =   1.5340098093638E-02
(PID.TID 0000.0001) %MON dynstat_sss_max              =   4.1377277086995E+01
(PID.TID 0000.0001) %MON dynstat_sss_min              =   1.8751405640906E+01
(PID.TID 0000.0001) %MON dynstat_sss_mean             =   3.4641732417132E+01
(PID.TID 0000.0001) %MON dynstat_sss_sd               =   1.4571240791679E+00
(PID.TID 0000.0001) %MON dynstat_sss_del2             =   8.0151370602411E-03
(PID.TID 0000.0001) %MON forcing_qnet_max             =   5.2067382812500E+04
(PID.TID 0000.0001) %MON forcing_qnet_min             =  -3.7817808593750E+04
(PID.TID 0000.0001) %MON forcing_qnet_mean            =  -1.6283049040408E+02
(PID.TID 0000.0001) %MON forcing_qnet_sd              =   1.8179683287651E+03
(PID.TID 0000.0001) %MON forcing_qnet_del2            =   6.4209730942590E+01
(PID.TID 0000.0001) %MON forcing_qsw_max              =   0.0000000000000E+00
(PID.TID 0000.0001) %MON forcing_qsw_min              =   0.0000000000000E+00
(PID.TID 0000.0001) %MON forcing_qsw_mean             =   0.0000000000000E+00
(PID.TID 0000.0001) %MON forcing_qsw_sd               =   0.0000000000000E+00
(PID.TID 0000.0001) %MON forcing_qsw_del2             =   0.0000000000000E+00
(PID.TID 0000.0001) %MON forcing_empmr_max            =   1.0110829025507E-01
(PID.TID 0000.0001) %MON forcing_empmr_min            =  -7.3762828111649E-01
(PID.TID 0000.0001) %MON forcing_empmr_mean           =  -6.8145012078041E-04
(PID.TID 0000.0001) %MON forcing_empmr_sd             =   1.3776583329763E-02
(PID.TID 0000.0001) %MON forcing_empmr_del2           =   5.4177293500855E-04
(PID.TID 0000.0001) %MON forcing_fu_max               =   5.4801289228757E-01
(PID.TID 0000.0001) %MON forcing_fu_min               =  -4.4641799185092E-01
(PID.TID 0000.0001) %MON forcing_fu_mean              =  -4.1255168011747E-03
(PID.TID 0000.0001) %MON forcing_fu_sd                =   6.8509574629944E-02
(PID.TID 0000.0001) %MON forcing_fu_del2              =   6.7687679415252E-04
(PID.TID 0000.0001) %MON forcing_fv_max               =   3.0914867831684E-01
(PID.TID 0000.0001) %MON forcing_fv_min               =  -3.4788516937630E-01
(PID.TID 0000.0001) %MON forcing_fv_mean              =  -1.3332087099671E-02
(PID.TID 0000.0001) %MON forcing_fv_sd                =   6.5600041909167E-02
(PID.TID 0000.0001) %MON forcing_fv_del2              =   5.4726463157888E-04
(PID.TID 0000.0001) %MON trAdv_CFL_u_max              =   5.4095311694865E-05
(PID.TID 0000.0001) %MON trAdv_CFL_v_max              =   8.5475216043988E-05
(PID.TID 0000.0001) %MON trAdv_CFL_w_max              =   3.2607956065811E-04
(PID.TID 0000.0001) %MON advcfl_uvel_max              =   5.7951843935323E-05
(PID.TID 0000.0001) %MON advcfl_vvel_max              =   4.8502984105699E-05
(PID.TID 0000.0001) %MON advcfl_wvel_max              =   7.1268432958115E-04
(PID.TID 0000.0001) %MON advcfl_W_hf_max              =   3.2607956065811E-04
(PID.TID 0000.0001) %MON pe_b_mean                    =   5.5920674775015E-04
(PID.TID 0000.0001) %MON ke_max                       =   1.8240864105923E-01
(PID.TID 0000.0001) %MON ke_mean                      =   1.4974990724875E-04
(PID.TID 0000.0001) %MON ke_vol                       =   1.3398058475301E+18
(PID.TID 0000.0001) %MON vort_r_min                   =  -1.8076317562079E-06
(PID.TID 0000.0001) %MON vort_r_max                   =   1.8324141227280E-06
(PID.TID 0000.0001) %MON vort_a_mean                  =  -2.0549865324846E-05
(PID.TID 0000.0001) %MON vort_a_sd                    =   7.5259521651239E-05
(PID.TID 0000.0001) %MON vort_p_mean                  =  -2.4783425086332E-05
(PID.TID 0000.0001) %MON vort_p_sd                    =   1.2811964743159E-04
(PID.TID 0000.0001) %MON surfExpan_theta_mean         =  -6.1082746763141E-06
(PID.TID 0000.0001) %MON surfExpan_salt_mean          =   6.4588361741381E-07
(PID.TID 0000.0001) // =======================================================
(PID.TID 0000.0001) // End MONITOR dynamic field statistics
(PID.TID 0000.0001) // =======================================================
 cg2d: Sum(rhs),rhsMax =  -4.55607441630021E+00  2.29683283543168E+05
(PID.TID 0000.0001)      cg2d_init_res =   4.88635902420095E-03
(PID.TID 0000.0001)      cg2d_iters(min,last) =      -1       1
(PID.TID 0000.0001)      cg2d_last_res =   4.63246657103215E-08
(PID.TID 0000.0001) // =======================================================
(PID.TID 0000.0001) // Begin MONITOR dynamic field statistics
(PID.TID 0000.0001) // =======================================================
(PID.TID 0000.0001) %MON time_tsnumber                =                 72075
(PID.TID 0000.0001) %MON time_secondsf                =   1.8018750000000E+06
(PID.TID 0000.0001) %MON dynstat_eta_max              =   8.6671672042380E+00
(PID.TID 0000.0001) %MON dynstat_eta_min              =  -1.6777898365622E+00
(PID.TID 0000.0001) %MON dynstat_eta_mean             =   9.3824523802000E-03
(PID.TID 0000.0001) %MON dynstat_eta_sd               =   6.4771007428648E-01
(PID.TID 0000.0001) %MON dynstat_eta_del2             =   8.0334847271921E-03
(PID.TID 0000.0001) %MON dynstat_uvel_max             =   6.3377078715640E-01
(PID.TID 0000.0001) %MON dynstat_uvel_min             =  -3.8372874499184E-01
(PID.TID 0000.0001) %MON dynstat_uvel_mean            =  -4.5551852242488E-04
(PID.TID 0000.0001) %MON dynstat_uvel_sd              =   1.2425443758554E-02
(PID.TID 0000.0001) %MON dynstat_uvel_del2            =   7.5652001841602E-05
(PID.TID 0000.0001) %MON dynstat_vvel_max             =   5.4210619785650E-01
(PID.TID 0000.0001) %MON dynstat_vvel_min             =  -5.2736104647295E-01
(PID.TID 0000.0001) %MON dynstat_vvel_mean            =  -3.8434431455479E-04
(PID.TID 0000.0001) %MON dynstat_vvel_sd              =   1.3039621076012E-02
(PID.TID 0000.0001) %MON dynstat_vvel_del2            =   9.7458099733939E-05
(PID.TID 0000.0001) %MON dynstat_wvel_max             =   1.0346645952385E-04
(PID.TID 0000.0001) %MON dynstat_wvel_min             =  -8.2381983295620E-04
(PID.TID 0000.0001) %MON dynstat_wvel_mean            =  -1.6392065334756E-07
(PID.TID 0000.0001) %MON dynstat_wvel_sd              =   9.2343481361740E-06
(PID.TID 0000.0001) %MON dynstat_wvel_del2            =   9.2753295497842E-08
(PID.TID 0000.0001) %MON dynstat_theta_max            =   3.0925504636928E+01
(PID.TID 0000.0001) %MON dynstat_theta_min            =  -3.0175605785651E+00
(PID.TID 0000.0001) %MON dynstat_theta_mean           =   3.9089395541340E+00
(PID.TID 0000.0001) %MON dynstat_theta_sd             =   4.5705958401480E+00
(PID.TID 0000.0001) %MON dynstat_theta_del2           =   2.6550582932570E-03
(PID.TID 0000.0001) %MON dynstat_salt_max             =   4.1377268982625E+01
(PID.TID 0000.0001) %MON dynstat_salt_min             =   1.8518401407280E+01
(PID.TID 0000.0001) %MON dynstat_salt_mean            =   3.4772194451115E+01
(PID.TID 0000.0001) %MON dynstat_salt_sd              =   5.3093519781651E-01
(PID.TID 0000.0001) %MON dynstat_salt_del2            =   8.0294153168050E-04
(PID.TID 0000.0001) %MON dynstat_sst_max              =   3.0925504636928E+01
(PID.TID 0000.0001) %MON dynstat_sst_min              =  -1.8999212843220E+00
(PID.TID 0000.0001) %MON dynstat_sst_mean             =   1.8099485975203E+01
(PID.TID 0000.0001) %MON dynstat_sst_sd               =   9.7998852337046E+00
(PID.TID 0000.0001) %MON dynstat_sst_del2             =   1.5339353697518E-02
(PID.TID 0000.0001) %MON dynstat_sss_max              =   4.1377268982625E+01
(PID.TID 0000.0001) %MON dynstat_sss_min              =   1.8751401065682E+01
(PID.TID 0000.0001) %MON dynstat_sss_mean             =   3.4641717142113E+01
(PID.TID 0000.0001) %MON dynstat_sss_sd               =   1.4571316886390E+00
(PID.TID 0000.0001) %MON dynstat_sss_del2             =   8.0155036533402E-03
(PID.TID 0000.0001) %MON forcing_qnet_max             =   5.0736953125000E+04
(PID.TID 0000.0001) %MON forcing_qnet_min             =  -2.6257630859375E+04
(PID.TID 0000.0001) %MON forcing_qnet_mean            =  -1.8538043653933E+02
(PID.TID 0000.0001) %MON forcing_qnet_sd              =   1.6818864049968E+03
(PID.TID 0000.0001) %MON forcing_qnet_del2            =   5.7296762596931E+01
(PID.TID 0000.0001) %MON forcing_qsw_max              =   0.0000000000000E+00
(PID.TID 0000.0001) %MON forcing_qsw_min              =   0.0000000000000E+00
(PID.TID 0000.0001) %MON forcing_qsw_mean             =   0.0000000000000E+00
(PID.TID 0000.0001) %MON forcing_qsw_sd               =   0.0000000000000E+00
(PID.TID 0000.0001) %MON forcing_qsw_del2             =   0.0000000000000E+00
(PID.TID 0000.0001) %MON forcing_empmr_max            =   9.9315948784351E-02
(PID.TID 0000.0001) %MON forcing_empmr_min            =  -7.3574101924896E-01
(PID.TID 0000.0001) %MON forcing_empmr_mean           =  -6.8184049746780E-04
(PID.TID 0000.0001) %MON forcing_empmr_sd             =   1.3748235072662E-02
(PID.TID 0000.0001) %MON forcing_empmr_del2           =   5.4074510522122E-04
(PID.TID 0000.0001) %MON forcing_fu_max               =   5.4801289228757E-01
(PID.TID 0000.0001) %MON forcing_fu_min               =  -4.4641799185092E-01
(PID.TID 0000.0001) %MON forcing_fu_mean              =  -4.1255168011747E-03
(PID.TID 0000.0001) %MON forcing_fu_sd                =   6.8509574629944E-02
(PID.TID 0000.0001) %MON forcing_fu_del2              =   6.7687679415252E-04
(PID.TID 0000.0001) %MON forcing_fv_max               =   3.0914867831684E-01
(PID.TID 0000.0001) %MON forcing_fv_min               =  -3.4788516937630E-01
(PID.TID 0000.0001) %MON forcing_fv_mean              =  -1.3332087099671E-02
(PID.TID 0000.0001) %MON forcing_fv_sd                =   6.5600041909167E-02
(PID.TID 0000.0001) %MON forcing_fv_del2              =   5.4726463157888E-04
(PID.TID 0000.0001) %MON trAdv_CFL_u_max              =   5.4805908878805E-05
(PID.TID 0000.0001) %MON trAdv_CFL_v_max              =   8.6594251293066E-05
(PID.TID 0000.0001) %MON trAdv_CFL_w_max              =   3.2510352027149E-04
(PID.TID 0000.0001) %MON advcfl_uvel_max              =   5.8707713165584E-05
(PID.TID 0000.0001) %MON advcfl_vvel_max              =   4.9141396328227E-05
(PID.TID 0000.0001) %MON advcfl_wvel_max              =   7.1086088816325E-04
(PID.TID 0000.0001) %MON advcfl_W_hf_max              =   3.2510352027149E-04
(PID.TID 0000.0001) %MON pe_b_mean                    =   5.5900512731343E-04
(PID.TID 0000.0001) %MON ke_max                       =   1.8684325541879E-01
(PID.TID 0000.0001) %MON ke_mean                      =   1.4997332742216E-04
(PID.TID 0000.0001) %MON ke_vol                       =   1.3398058535197E+18
(PID.TID 0000.0001) %MON vort_r_min                   =  -1.8297609076485E-06
(PID.TID 0000.0001) %MON vort_r_max                   =   1.8566227748268E-06
(PID.TID 0000.0001) %MON vort_a_mean                  =  -2.0549865324846E-05
(PID.TID 0000.0001) %MON vort_a_sd                    =   7.5259521741250E-05
(PID.TID 0000.0001) %MON vort_p_mean                  =  -2.4783424957766E-05
(PID.TID 0000.0001) %MON vort_p_sd                    =   1.2811964603860E-04
(PID.TID 0000.0001) %MON surfExpan_theta_mean         =  -6.0447791784976E-06
(PID.TID 0000.0001) %MON surfExpan_salt_mean          =   6.5283435092640E-07
(PID.TID 0000.0001) // =======================================================
(PID.TID 0000.0001) // End MONITOR dynamic field statistics
(PID.TID 0000.0001) // =======================================================
 cg2d: Sum(rhs),rhsMax =  -4.56778272201491E+00  2.29496755881767E+05
(PID.TID 0000.0001)      cg2d_init_res =   4.92157357873935E-03
(PID.TID 0000.0001)      cg2d_iters(min,last) =      -1       1
(PID.TID 0000.0001)      cg2d_last_res =   4.67228899759120E-08
(PID.TID 0000.0001) // =======================================================
(PID.TID 0000.0001) // Begin MONITOR dynamic field statistics
(PID.TID 0000.0001) // =======================================================
(PID.TID 0000.0001) %MON time_tsnumber                =                 72076
(PID.TID 0000.0001) %MON time_secondsf                =   1.8019000000000E+06
(PID.TID 0000.0001) %MON dynstat_eta_max              =   8.6586711053012E+00
(PID.TID 0000.0001) %MON dynstat_eta_min              =  -1.6755611174660E+00
(PID.TID 0000.0001) %MON dynstat_eta_mean             =   9.3989244771814E-03
(PID.TID 0000.0001) %MON dynstat_eta_sd               =   6.4759200995614E-01
(PID.TID 0000.0001) %MON dynstat_eta_del2             =   8.0177386550717E-03
(PID.TID 0000.0001) %MON dynstat_uvel_max             =   6.4192183086339E-01
(PID.TID 0000.0001) %MON dynstat_uvel_min             =  -3.8664939596932E-01
(PID.TID 0000.0001) %MON dynstat_uvel_mean            =  -4.5491677825640E-04
(PID.TID 0000.0001) %MON dynstat_uvel_sd              =   1.2435149748567E-02
(PID.TID 0000.0001) %MON dynstat_uvel_del2            =   7.6162345833402E-05
(PID.TID 0000.0001) %MON dynstat_vvel_max             =   5.4913000431559E-01
(PID.TID 0000.0001) %MON dynstat_vvel_min             =  -5.3401074083252E-01
(PID.TID 0000.0001) %MON dynstat_vvel_mean            =  -3.8403729015702E-04
(PID.TID 0000.0001) %MON dynstat_vvel_sd              =   1.3049072402329E-02
(PID.TID 0000.0001) %MON dynstat_vvel_del2            =   9.8351380887867E-05
(PID.TID 0000.0001) %MON dynstat_wvel_max             =   1.0347136542980E-04
(PID.TID 0000.0001) %MON dynstat_wvel_min             =  -8.3148618874366E-04
(PID.TID 0000.0001) %MON dynstat_wvel_mean            =  -1.6552498811484E-07
(PID.TID 0000.0001) %MON dynstat_wvel_sd              =   9.2953329598443E-06
(PID.TID 0000.0001) %MON dynstat_wvel_del2            =   9.3045162077655E-08
(PID.TID 0000.0001) %MON dynstat_theta_max            =   3.0925498607442E+01
(PID.TID 0000.0001) %MON dynstat_theta_min            =  -3.0175537914616E+00
(PID.TID 0000.0001) %MON dynstat_theta_mean           =   3.9089399630544E+00
(PID.TID 0000.0001) %MON dynstat_theta_sd             =   4.5705968977149E+00
(PID.TID 0000.0001) %MON dynstat_theta_del2           =   2.6550332106996E-03
(PID.TID 0000.0001) %MON dynstat_salt_max             =   4.1377260906846E+01
(PID.TID 0000.0001) %MON dynstat_salt_min             =   1.8518401673991E+01
(PID.TID 0000.0001) %MON dynstat_salt_mean            =   3.4772194232621E+01
(PID.TID 0000.0001) %MON dynstat_salt_sd              =   5.3093553556632E-01
(PID.TID 0000.0001) %MON dynstat_salt_del2            =   8.0296533693513E-04
(PID.TID 0000.0001) %MON dynstat_sst_max              =   3.0925498607442E+01
(PID.TID 0000.0001) %MON dynstat_sst_min              =  -1.8999202292078E+00
(PID.TID 0000.0001) %MON dynstat_sst_mean             =   1.8099512331674E+01
(PID.TID 0000.0001) %MON dynstat_sst_sd               =   9.7998798168228E+00
(PID.TID 0000.0001) %MON dynstat_sst_del2             =   1.5338712038682E-02
(PID.TID 0000.0001) %MON dynstat_sss_max              =   4.1377260906846E+01
(PID.TID 0000.0001) %MON dynstat_sss_min              =   1.8751397044616E+01
(PID.TID 0000.0001) %MON dynstat_sss_mean             =   3.4641701801315E+01
(PID.TID 0000.0001) %MON dynstat_sss_sd               =   1.4571393831680E+00
(PID.TID 0000.0001) %MON dynstat_sss_del2             =   8.0158851198328E-03
(PID.TID 0000.0001) %MON forcing_qnet_max             =   4.9442003906250E+04
(PID.TID 0000.0001) %MON forcing_qnet_min             =  -1.8245636718750E+04
(PID.TID 0000.0001) %MON forcing_qnet_mean            =  -1.9949819622011E+02
(PID.TID 0000.0001) %MON forcing_qnet_sd              =   1.5862499968533E+03
(PID.TID 0000.0001) %MON forcing_qnet_del2            =   5.2913994376924E+01
(PID.TID 0000.0001) %MON forcing_qsw_max              =   0.0000000000000E+00
(PID.TID 0000.0001) %MON forcing_qsw_min              =   0.0000000000000E+00
(PID.TID 0000.0001) %MON forcing_qsw_mean             =   0.0000000000000E+00
(PID.TID 0000.0001) %MON forcing_qsw_sd               =   0.0000000000000E+00
(PID.TID 0000.0001) %MON forcing_qsw_del2             =   0.0000000000000E+00
(PID.TID 0000.0001) %MON forcing_empmr_max            =   9.7551792860031E-02
(PID.TID 0000.0001) %MON forcing_empmr_min            =  -7.3385375738144E-01
(PID.TID 0000.0001) %MON forcing_empmr_mean           =  -6.8194481502239E-04
(PID.TID 0000.0001) %MON forcing_empmr_sd             =   1.3720201421971E-02
(PID.TID 0000.0001) %MON forcing_empmr_del2           =   5.3970722583631E-04
(PID.TID 0000.0001) %MON forcing_fu_max               =   5.4801289228757E-01
(PID.TID 0000.0001) %MON forcing_fu_min               =  -4.4641799185092E-01
(PID.TID 0000.0001) %MON forcing_fu_mean              =  -4.1255168011747E-03
(PID.TID 0000.0001) %MON forcing_fu_sd                =   6.8509574629944E-02
(PID.TID 0000.0001) %MON forcing_fu_del2              =   6.7687679415252E-04
(PID.TID 0000.0001) %MON forcing_fv_max               =   3.0914867831684E-01
(PID.TID 0000.0001) %MON forcing_fv_min               =  -3.4788516937630E-01
(PID.TID 0000.0001) %MON forcing_fv_mean              =  -1.3332087099671E-02
(PID.TID 0000.0001) %MON forcing_fv_sd                =   6.5600041909167E-02
(PID.TID 0000.0001) %MON forcing_fv_del2              =   5.4726463157888E-04
(PID.TID 0000.0001) %MON trAdv_CFL_u_max              =   5.5515933228781E-05
(PID.TID 0000.0001) %MON trAdv_CFL_v_max              =   8.7709083686073E-05
(PID.TID 0000.0001) %MON trAdv_CFL_w_max              =   3.2412680857336E-04
(PID.TID 0000.0001) %MON advcfl_uvel_max              =   5.9462763959416E-05
(PID.TID 0000.0001) %MON advcfl_vvel_max              =   4.9778097510217E-05
(PID.TID 0000.0001) %MON advcfl_wvel_max              =   7.0903744674535E-04
(PID.TID 0000.0001) %MON advcfl_W_hf_max              =   3.2412680857336E-04
(PID.TID 0000.0001) %MON pe_b_mean                    =   5.5880180781435E-04
(PID.TID 0000.0001) %MON ke_max                       =   1.9131573760263E-01
(PID.TID 0000.0001) %MON ke_mean                      =   1.5019818057154E-04
(PID.TID 0000.0001) %MON ke_vol                       =   1.3398058595127E+18
(PID.TID 0000.0001) %MON vort_r_min                   =  -1.8516828712121E-06
(PID.TID 0000.0001) %MON vort_r_max                   =   1.8807569903115E-06
(PID.TID 0000.0001) %MON vort_a_mean                  =  -2.0549865324846E-05
(PID.TID 0000.0001) %MON vort_a_sd                    =   7.5259521831736E-05
(PID.TID 0000.0001) %MON vort_p_mean                  =  -2.4783424828813E-05
(PID.TID 0000.0001) %MON vort_p_sd                    =   1.2811964462935E-04
(PID.TID 0000.0001) %MON surfExpan_theta_mean         =  -6.0056020742049E-06
(PID.TID 0000.0001) %MON surfExpan_salt_mean          =   6.5856337154409E-07
(PID.TID 0000.0001) // =======================================================
(PID.TID 0000.0001) // End MONITOR dynamic field statistics
(PID.TID 0000.0001) // =======================================================
 cg2d: Sum(rhs),rhsMax =  -4.57955599810899E+00  2.29307822144357E+05
(PID.TID 0000.0001)      cg2d_init_res =   4.95656472920484E-03
(PID.TID 0000.0001)      cg2d_iters(min,last) =      -1       1
(PID.TID 0000.0001)      cg2d_last_res =   4.71167718803169E-08
(PID.TID 0000.0001) // =======================================================
(PID.TID 0000.0001) // Begin MONITOR dynamic field statistics
(PID.TID 0000.0001) // =======================================================
(PID.TID 0000.0001) %MON time_tsnumber                =                 72077
(PID.TID 0000.0001) %MON time_secondsf                =   1.8019250000000E+06
(PID.TID 0000.0001) %MON dynstat_eta_max              =   8.6500656183121E+00
(PID.TID 0000.0001) %MON dynstat_eta_min              =  -1.6733072336003E+00
(PID.TID 0000.0001) %MON dynstat_eta_mean             =   9.4153921966913E-03
(PID.TID 0000.0001) %MON dynstat_eta_sd               =   6.4747299802554E-01
(PID.TID 0000.0001) %MON dynstat_eta_del2             =   8.0018657557213E-03
(PID.TID 0000.0001) %MON dynstat_uvel_max             =   6.5006385505161E-01
(PID.TID 0000.0001) %MON dynstat_uvel_min             =  -3.8956611535353E-01
(PID.TID 0000.0001) %MON dynstat_uvel_mean            =  -4.5431042165343E-04
(PID.TID 0000.0001) %MON dynstat_uvel_sd              =   1.2444916687754E-02
(PID.TID 0000.0001) %MON dynstat_uvel_del2            =   7.6673682771522E-05
(PID.TID 0000.0001) %MON dynstat_vvel_max             =   5.5613483643034E-01
(PID.TID 0000.0001) %MON dynstat_vvel_min             =  -5.4065222470542E-01
(PID.TID 0000.0001) %MON dynstat_vvel_mean            =  -3.8372969023535E-04
(PID.TID 0000.0001) %MON dynstat_vvel_sd              =   1.3058566535418E-02
(PID.TID 0000.0001) %MON dynstat_vvel_del2            =   9.9243760512107E-05
(PID.TID 0000.0001) %MON dynstat_wvel_max             =   1.0347628809338E-04
(PID.TID 0000.0001) %MON dynstat_wvel_min             =  -8.3903311113453E-04
(PID.TID 0000.0001) %MON dynstat_wvel_mean            =  -1.6714358341698E-07
(PID.TID 0000.0001) %MON dynstat_wvel_sd              =   9.3557970539152E-06
(PID.TID 0000.0001) %MON dynstat_wvel_del2            =   9.3333870921920E-08
(PID.TID 0000.0001) %MON dynstat_theta_max            =   3.0925492578688E+01
(PID.TID 0000.0001) %MON dynstat_theta_min            =  -3.0175467562099E+00
(PID.TID 0000.0001) %MON dynstat_theta_mean           =   3.9089403855267E+00
(PID.TID 0000.0001) %MON dynstat_theta_sd             =   4.5705980583921E+00
(PID.TID 0000.0001) %MON dynstat_theta_del2           =   2.6550109850249E-03
(PID.TID 0000.0001) %MON dynstat_salt_max             =   4.1377252623349E+01
(PID.TID 0000.0001) %MON dynstat_salt_min             =   1.8518401940677E+01
(PID.TID 0000.0001) %MON dynstat_salt_mean            =   3.4772194013981E+01
(PID.TID 0000.0001) %MON dynstat_salt_sd              =   5.3093587662577E-01
(PID.TID 0000.0001) %MON dynstat_salt_del2            =   8.0298997817526E-04
(PID.TID 0000.0001) %MON dynstat_sst_max              =   3.0925492578688E+01
(PID.TID 0000.0001) %MON dynstat_sst_min              =  -1.8999191731665E+00
(PID.TID 0000.0001) %MON dynstat_sst_mean             =   1.8099539595889E+01
(PID.TID 0000.0001) %MON dynstat_sst_sd               =   9.7998764907063E+00
(PID.TID 0000.0001) %MON dynstat_sst_del2             =   1.5338144654631E-02
(PID.TID 0000.0001) %MON dynstat_sss_max              =   4.1377252623349E+01
(PID.TID 0000.0001) %MON dynstat_sss_min              =   1.8751393586992E+01
(PID.TID 0000.0001) %MON dynstat_sss_mean             =   3.4641686424275E+01
(PID.TID 0000.0001) %MON dynstat_sss_sd               =   1.4571471442294E+00
(PID.TID 0000.0001) %MON dynstat_sss_del2             =   8.0162787935614E-03
(PID.TID 0000.0001) %MON forcing_qnet_max             =   4.8182527343750E+04
(PID.TID 0000.0001) %MON forcing_qnet_min             =  -1.3529984375000E+04
(PID.TID 0000.0001) %MON forcing_qnet_mean            =  -2.0793540125413E+02
(PID.TID 0000.0001) %MON forcing_qnet_sd              =   1.5150106815798E+03
(PID.TID 0000.0001) %MON forcing_qnet_del2            =   4.9994132042722E+01
(PID.TID 0000.0001) %MON forcing_qsw_max              =   0.0000000000000E+00
(PID.TID 0000.0001) %MON forcing_qsw_min              =   0.0000000000000E+00
(PID.TID 0000.0001) %MON forcing_qsw_mean             =   0.0000000000000E+00
(PID.TID 0000.0001) %MON forcing_qsw_sd               =   0.0000000000000E+00
(PID.TID 0000.0001) %MON forcing_qsw_del2             =   0.0000000000000E+00
(PID.TID 0000.0001) %MON forcing_empmr_max            =   9.5819868147373E-02
(PID.TID 0000.0001) %MON forcing_empmr_min            =  -7.3196643590927E-01
(PID.TID 0000.0001) %MON forcing_empmr_mean           =  -6.8176358771736E-04
(PID.TID 0000.0001) %MON forcing_empmr_sd             =   1.3692332969369E-02
(PID.TID 0000.0001) %MON forcing_empmr_del2           =   5.3866716116183E-04
(PID.TID 0000.0001) %MON forcing_fu_max               =   5.4801289228757E-01
(PID.TID 0000.0001) %MON forcing_fu_min               =  -4.4641799185092E-01
(PID.TID 0000.0001) %MON forcing_fu_mean              =  -4.1255168011747E-03
(PID.TID 0000.0001) %MON forcing_fu_sd                =   6.8509574629944E-02
(PID.TID 0000.0001) %MON forcing_fu_del2              =   6.7687679415252E-04
(PID.TID 0000.0001) %MON forcing_fv_max               =   3.0914867831684E-01
(PID.TID 0000.0001) %MON forcing_fv_min               =  -3.4788516937630E-01
(PID.TID 0000.0001) %MON forcing_fv_mean              =  -1.3332087099671E-02
(PID.TID 0000.0001) %MON forcing_fv_sd                =   6.5600041909167E-02
(PID.TID 0000.0001) %MON forcing_fv_del2              =   5.4726463157888E-04
(PID.TID 0000.0001) %MON trAdv_CFL_u_max              =   5.6225370602483E-05
(PID.TID 0000.0001) %MON trAdv_CFL_v_max              =   8.8819682163371E-05
(PID.TID 0000.0001) %MON trAdv_CFL_w_max              =   3.2314941536939E-04
(PID.TID 0000.0001) %MON advcfl_uvel_max              =   6.0216979253519E-05
(PID.TID 0000.0001) %MON advcfl_vvel_max              =   5.0413078686459E-05
(PID.TID 0000.0001) %MON advcfl_wvel_max              =   7.0721394773843E-04
(PID.TID 0000.0001) %MON advcfl_W_hf_max              =   3.2314941536939E-04
(PID.TID 0000.0001) %MON pe_b_mean                    =   5.5859689135967E-04
(PID.TID 0000.0001) %MON ke_max                       =   1.9582538681839E-01
(PID.TID 0000.0001) %MON ke_mean                      =   1.5042441714968E-04
(PID.TID 0000.0001) %MON ke_vol                       =   1.3398058655067E+18
(PID.TID 0000.0001) %MON vort_r_min                   =  -1.8733953376720E-06
(PID.TID 0000.0001) %MON vort_r_max                   =   1.9048165169485E-06
(PID.TID 0000.0001) %MON vort_a_mean                  =  -2.0549865324846E-05
(PID.TID 0000.0001) %MON vort_a_sd                    =   7.5259521922675E-05
(PID.TID 0000.0001) %MON vort_p_mean                  =  -2.4783424699502E-05
(PID.TID 0000.0001) %MON vort_p_sd                    =   1.2811964320771E-04
(PID.TID 0000.0001) %MON surfExpan_theta_mean         =  -5.9815874853391E-06
(PID.TID 0000.0001) %MON surfExpan_salt_mean          =   6.6325407822090E-07
(PID.TID 0000.0001) // =======================================================
(PID.TID 0000.0001) // End MONITOR dynamic field statistics
(PID.TID 0000.0001) // =======================================================
 cg2d: Sum(rhs),rhsMax =  -4.59139282457700E+00  2.29116486784320E+05
(PID.TID 0000.0001)      cg2d_init_res =   4.99135677208241E-03
(PID.TID 0000.0001)      cg2d_iters(min,last) =      -1       1
(PID.TID 0000.0001)      cg2d_last_res =   4.75065730246283E-08
(PID.TID 0000.0001) // =======================================================
(PID.TID 0000.0001) // Begin MONITOR dynamic field statistics
(PID.TID 0000.0001) // =======================================================
(PID.TID 0000.0001) %MON time_tsnumber                =                 72078
(PID.TID 0000.0001) %MON time_secondsf                =   1.8019500000000E+06
(PID.TID 0000.0001) %MON dynstat_eta_max              =   8.6413509682957E+00
(PID.TID 0000.0001) %MON dynstat_eta_min              =  -1.6710297349433E+00
(PID.TID 0000.0001) %MON dynstat_eta_mean             =   9.4318517128976E-03
(PID.TID 0000.0001) %MON dynstat_eta_sd               =   6.4735308976890E-01
(PID.TID 0000.0001) %MON dynstat_eta_del2             =   7.9858676172494E-03
(PID.TID 0000.0001) %MON dynstat_uvel_max             =   6.5819667640078E-01
(PID.TID 0000.0001) %MON dynstat_uvel_min             =  -3.9247887607706E-01
(PID.TID 0000.0001) %MON dynstat_uvel_mean            =  -4.5369945304957E-04
(PID.TID 0000.0001) %MON dynstat_uvel_sd              =   1.2454742563197E-02
(PID.TID 0000.0001) %MON dynstat_uvel_del2            =   7.7185927207394E-05
(PID.TID 0000.0001) %MON dynstat_vvel_max             =   5.6312059629361E-01
(PID.TID 0000.0001) %MON dynstat_vvel_min             =  -5.4728539571158E-01
(PID.TID 0000.0001) %MON dynstat_vvel_mean            =  -3.8342157447734E-04
(PID.TID 0000.0001) %MON dynstat_vvel_sd              =   1.3068101080411E-02
(PID.TID 0000.0001) %MON dynstat_vvel_del2            =   1.0013510942256E-04
(PID.TID 0000.0001) %MON dynstat_wvel_max             =   1.0348122752414E-04
(PID.TID 0000.0001) %MON dynstat_wvel_min             =  -8.4646060332247E-04
(PID.TID 0000.0001) %MON dynstat_wvel_mean            =  -1.6877704756096E-07
(PID.TID 0000.0001) %MON dynstat_wvel_sd              =   9.4156986169771E-06
(PID.TID 0000.0001) %MON dynstat_wvel_del2            =   9.3618935699832E-08
(PID.TID 0000.0001) %MON dynstat_theta_max            =   3.0925486550663E+01
(PID.TID 0000.0001) %MON dynstat_theta_min            =  -3.0175394594693E+00
(PID.TID 0000.0001) %MON dynstat_theta_mean           =   3.9089408155047E+00
(PID.TID 0000.0001) %MON dynstat_theta_sd             =   4.5705992865818E+00
(PID.TID 0000.0001) %MON dynstat_theta_del2           =   2.6549908848381E-03
(PID.TID 0000.0001) %MON dynstat_salt_max             =   4.1377244232801E+01
(PID.TID 0000.0001) %MON dynstat_salt_min             =   1.8518402207445E+01
(PID.TID 0000.0001) %MON dynstat_salt_mean            =   3.4772193795368E+01
(PID.TID 0000.0001) %MON dynstat_salt_sd              =   5.3093622055402E-01
(PID.TID 0000.0001) %MON dynstat_salt_del2            =   8.0301533504964E-04
(PID.TID 0000.0001) %MON dynstat_sst_max              =   3.0925486550663E+01
(PID.TID 0000.0001) %MON dynstat_sst_min              =  -1.8999181161838E+00
(PID.TID 0000.0001) %MON dynstat_sst_mean             =   1.8099567322727E+01
(PID.TID 0000.0001) %MON dynstat_sst_sd               =   9.7998746835070E+00
(PID.TID 0000.0001) %MON dynstat_sst_del2             =   1.5337632116353E-02
(PID.TID 0000.0001) %MON dynstat_sss_max              =   4.1377244232801E+01
(PID.TID 0000.0001) %MON dynstat_sss_min              =   1.8751390485373E+01
(PID.TID 0000.0001) %MON dynstat_sss_mean             =   3.4641671026166E+01
(PID.TID 0000.0001) %MON dynstat_sss_sd               =   1.4571549638393E+00
(PID.TID 0000.0001) %MON dynstat_sss_del2             =   8.0166829056080E-03
(PID.TID 0000.0001) %MON forcing_qnet_max             =   4.6949652343750E+04
(PID.TID 0000.0001) %MON forcing_qnet_min             =  -1.3074381835938E+04
(PID.TID 0000.0001) %MON forcing_qnet_mean            =  -2.1264913789359E+02
(PID.TID 0000.0001) %MON forcing_qnet_sd              =   1.4583257514991E+03
(PID.TID 0000.0001) %MON forcing_qnet_del2            =   4.7886484530551E+01
(PID.TID 0000.0001) %MON forcing_qsw_max              =   0.0000000000000E+00
(PID.TID 0000.0001) %MON forcing_qsw_min              =   0.0000000000000E+00
(PID.TID 0000.0001) %MON forcing_qsw_mean             =   0.0000000000000E+00
(PID.TID 0000.0001) %MON forcing_qsw_sd               =   0.0000000000000E+00
(PID.TID 0000.0001) %MON forcing_qsw_del2             =   0.0000000000000E+00
(PID.TID 0000.0001) %MON forcing_empmr_max            =   9.4120167195797E-02
(PID.TID 0000.0001) %MON forcing_empmr_min            =  -7.3007917404175E-01
(PID.TID 0000.0001) %MON forcing_empmr_mean           =  -6.8142397094152E-04
(PID.TID 0000.0001) %MON forcing_empmr_sd             =   1.3664814248117E-02
(PID.TID 0000.0001) %MON forcing_empmr_del2           =   5.3762344705720E-04
(PID.TID 0000.0001) %MON forcing_fu_max               =   5.4801289228757E-01
(PID.TID 0000.0001) %MON forcing_fu_min               =  -4.4641799185092E-01
(PID.TID 0000.0001) %MON forcing_fu_mean              =  -4.1255168011747E-03
(PID.TID 0000.0001) %MON forcing_fu_sd                =   6.8509574629944E-02
(PID.TID 0000.0001) %MON forcing_fu_del2              =   6.7687679415252E-04
(PID.TID 0000.0001) %MON forcing_fv_max               =   3.0914867831684E-01
(PID.TID 0000.0001) %MON forcing_fv_min               =  -3.4788516937630E-01
(PID.TID 0000.0001) %MON forcing_fv_mean              =  -1.3332087099671E-02
(PID.TID 0000.0001) %MON forcing_fv_sd                =   6.5600041909167E-02
(PID.TID 0000.0001) %MON forcing_fv_del2              =   5.4726463157888E-04
(PID.TID 0000.0001) %MON trAdv_CFL_u_max              =   5.6934206902440E-05
(PID.TID 0000.0001) %MON trAdv_CFL_v_max              =   8.9926015837305E-05
(PID.TID 0000.0001) %MON trAdv_CFL_w_max              =   3.2217141036727E-04
(PID.TID 0000.0001) %MON advcfl_uvel_max              =   6.0970342066495E-05
(PID.TID 0000.0001) %MON advcfl_vvel_max              =   5.1046330981771E-05
(PID.TID 0000.0001) %MON advcfl_wvel_max              =   7.0539050632053E-04
(PID.TID 0000.0001) %MON advcfl_W_hf_max              =   3.2217141036727E-04
(PID.TID 0000.0001) %MON pe_b_mean                    =   5.5839046719203E-04
(PID.TID 0000.0001) %MON ke_max                       =   2.0037149911084E-01
(PID.TID 0000.0001) %MON ke_mean                      =   1.5065198789858E-04
(PID.TID 0000.0001) %MON ke_vol                       =   1.3398058714991E+18
(PID.TID 0000.0001) %MON vort_r_min                   =  -1.8948960268798E-06
(PID.TID 0000.0001) %MON vort_r_max                   =   1.9288011035284E-06
(PID.TID 0000.0001) %MON vort_a_mean                  =  -2.0549865324846E-05
(PID.TID 0000.0001) %MON vort_a_sd                    =   7.5259522014046E-05
(PID.TID 0000.0001) %MON vort_p_mean                  =  -2.4783424569864E-05
(PID.TID 0000.0001) %MON vort_p_sd                    =   1.2811964177619E-04
(PID.TID 0000.0001) %MON surfExpan_theta_mean         =  -5.9686505861390E-06
(PID.TID 0000.0001) %MON surfExpan_salt_mean          =   6.6740774829589E-07
(PID.TID 0000.0001) // =======================================================
(PID.TID 0000.0001) // End MONITOR dynamic field statistics
(PID.TID 0000.0001) // =======================================================
 cg2d: Sum(rhs),rhsMax =  -4.60329196468949E+00  2.28922754293525E+05
(PID.TID 0000.0001)      cg2d_init_res =   5.02592902362050E-03
(PID.TID 0000.0001)      cg2d_iters(min,last) =      -1       1
(PID.TID 0000.0001)      cg2d_last_res =   4.78905676622753E-08
(PID.TID 0000.0001) // =======================================================
(PID.TID 0000.0001) // Begin MONITOR dynamic field statistics
(PID.TID 0000.0001) // =======================================================
(PID.TID 0000.0001) %MON time_tsnumber                =                 72079
(PID.TID 0000.0001) %MON time_secondsf                =   1.8019750000000E+06
(PID.TID 0000.0001) %MON dynstat_eta_max              =   8.6325273824975E+00
(PID.TID 0000.0001) %MON dynstat_eta_min              =  -1.6687297102768E+00
(PID.TID 0000.0001) %MON dynstat_eta_mean             =   9.4482995810913E-03
(PID.TID 0000.0001) %MON dynstat_eta_sd               =   6.4723232636053E-01
(PID.TID 0000.0001) %MON dynstat_eta_del2             =   7.9697459416086E-03
(PID.TID 0000.0001) %MON dynstat_uvel_max             =   6.6632011247766E-01
(PID.TID 0000.0001) %MON dynstat_uvel_min             =  -3.9538765113438E-01
(PID.TID 0000.0001) %MON dynstat_uvel_mean            =  -4.5308387467191E-04
(PID.TID 0000.0001) %MON dynstat_uvel_sd              =   1.2464625375439E-02
(PID.TID 0000.0001) %MON dynstat_uvel_del2            =   7.7698996201080E-05
(PID.TID 0000.0001) %MON dynstat_vvel_max             =   5.7008718699730E-01
(PID.TID 0000.0001) %MON dynstat_vvel_min             =  -5.5391015164072E-01
(PID.TID 0000.0001) %MON dynstat_vvel_mean            =  -3.8311300289567E-04
(PID.TID 0000.0001) %MON dynstat_vvel_sd              =   1.3077673667638E-02
(PID.TID 0000.0001) %MON dynstat_vvel_del2            =   1.0102530326797E-04
(PID.TID 0000.0001) %MON dynstat_wvel_max             =   1.0348618372800E-04
(PID.TID 0000.0001) %MON dynstat_wvel_min             =  -8.5376869252480E-04
(PID.TID 0000.0001) %MON dynstat_wvel_mean            =  -1.7041619994109E-07
(PID.TID 0000.0001) %MON dynstat_wvel_sd              =   9.4750179789124E-06
(PID.TID 0000.0001) %MON dynstat_wvel_del2            =   9.3903012906160E-08
(PID.TID 0000.0001) %MON dynstat_theta_max            =   3.0925480523367E+01
(PID.TID 0000.0001) %MON dynstat_theta_min            =  -3.0175319108213E+00
(PID.TID 0000.0001) %MON dynstat_theta_mean           =   3.9089412486851E+00
(PID.TID 0000.0001) %MON dynstat_theta_sd             =   4.5706005572277E+00
(PID.TID 0000.0001) %MON dynstat_theta_del2           =   2.6549723561927E-03
(PID.TID 0000.0001) %MON dynstat_salt_max             =   4.1377235835871E+01
(PID.TID 0000.0001) %MON dynstat_salt_min             =   1.8518402474253E+01
(PID.TID 0000.0001) %MON dynstat_salt_mean            =   3.4772193576930E+01
(PID.TID 0000.0001) %MON dynstat_salt_sd              =   5.3093656687568E-01
(PID.TID 0000.0001) %MON dynstat_salt_del2            =   8.0304132303152E-04
(PID.TID 0000.0001) %MON dynstat_sst_max              =   3.0925480523367E+01
(PID.TID 0000.0001) %MON dynstat_sst_min              =  -1.8999170582474E+00
(PID.TID 0000.0001) %MON dynstat_sst_mean             =   1.8099595195146E+01
(PID.TID 0000.0001) %MON dynstat_sst_sd               =   9.7998739981239E+00
(PID.TID 0000.0001) %MON dynstat_sst_del2             =   1.5337159799310E-02
(PID.TID 0000.0001) %MON dynstat_sss_max              =   4.1377235835871E+01
(PID.TID 0000.0001) %MON dynstat_sss_min              =   1.8751387718111E+01
(PID.TID 0000.0001) %MON dynstat_sss_mean             =   3.4641655619422E+01
(PID.TID 0000.0001) %MON dynstat_sss_sd               =   1.4571628325062E+00
(PID.TID 0000.0001) %MON dynstat_sss_del2             =   8.0170962532053E-03
(PID.TID 0000.0001) %MON forcing_qnet_max             =   4.5761125000000E+04
(PID.TID 0000.0001) %MON forcing_qnet_min             =  -1.2636297851562E+04
(PID.TID 0000.0001) %MON forcing_qnet_mean            =  -2.1470332733318E+02
(PID.TID 0000.0001) %MON forcing_qnet_sd              =   1.4111488590502E+03
(PID.TID 0000.0001) %MON forcing_qnet_del2            =   4.6248064746773E+01
(PID.TID 0000.0001) %MON forcing_qsw_max              =   0.0000000000000E+00
(PID.TID 0000.0001) %MON forcing_qsw_min              =   0.0000000000000E+00
(PID.TID 0000.0001) %MON forcing_qsw_mean             =   0.0000000000000E+00
(PID.TID 0000.0001) %MON forcing_qsw_sd               =   0.0000000000000E+00
(PID.TID 0000.0001) %MON forcing_qsw_del2             =   0.0000000000000E+00
(PID.TID 0000.0001) %MON forcing_empmr_max            =   9.2448651790619E-02
(PID.TID 0000.0001) %MON forcing_empmr_min            =  -7.2821158170700E-01
(PID.TID 0000.0001) %MON forcing_empmr_mean           =  -6.8094174320266E-04
(PID.TID 0000.0001) %MON forcing_empmr_sd             =   1.3637586131835E-02
(PID.TID 0000.0001) %MON forcing_empmr_del2           =   5.3660069155358E-04
(PID.TID 0000.0001) %MON forcing_fu_max               =   5.4801289228757E-01
(PID.TID 0000.0001) %MON forcing_fu_min               =  -4.4641799185092E-01
(PID.TID 0000.0001) %MON forcing_fu_mean              =  -4.1255168011747E-03
(PID.TID 0000.0001) %MON forcing_fu_sd                =   6.8509574629944E-02
(PID.TID 0000.0001) %MON forcing_fu_del2              =   6.7687679415252E-04
(PID.TID 0000.0001) %MON forcing_fv_max               =   3.0914867831684E-01
(PID.TID 0000.0001) %MON forcing_fv_min               =  -3.4788516937630E-01
(PID.TID 0000.0001) %MON forcing_fv_mean              =  -1.3332087099671E-02
(PID.TID 0000.0001) %MON forcing_fv_sd                =   6.5600041909167E-02
(PID.TID 0000.0001) %MON forcing_fv_del2              =   5.4726463157888E-04
(PID.TID 0000.0001) %MON trAdv_CFL_u_max              =   5.7642428076042E-05
(PID.TID 0000.0001) %MON trAdv_CFL_v_max              =   9.1028053992794E-05
(PID.TID 0000.0001) %MON trAdv_CFL_w_max              =   3.2120156449902E-04
(PID.TID 0000.0001) %MON advcfl_uvel_max              =   6.1722835499114E-05
(PID.TID 0000.0001) %MON advcfl_vvel_max              =   5.1677845611524E-05
(PID.TID 0000.0001) %MON advcfl_wvel_max              =   7.0358606928213E-04
(PID.TID 0000.0001) %MON advcfl_W_hf_max              =   3.2120156449902E-04
(PID.TID 0000.0001) %MON pe_b_mean                    =   5.5818260708689E-04
(PID.TID 0000.0001) %MON ke_max                       =   2.0495336746540E-01
(PID.TID 0000.0001) %MON ke_mean                      =   1.5088084387780E-04
(PID.TID 0000.0001) %MON ke_vol                       =   1.3398058774885E+18
(PID.TID 0000.0001) %MON vort_r_min                   =  -1.9161826877692E-06
(PID.TID 0000.0001) %MON vort_r_max                   =   1.9527104998135E-06
(PID.TID 0000.0001) %MON vort_a_mean                  =  -2.0549865324846E-05
(PID.TID 0000.0001) %MON vort_a_sd                    =   7.5259522105830E-05
(PID.TID 0000.0001) %MON vort_p_mean                  =  -2.4783424439920E-05
(PID.TID 0000.0001) %MON vort_p_sd                    =   1.2811964033670E-04
(PID.TID 0000.0001) %MON surfExpan_theta_mean         =  -5.9639985823914E-06
(PID.TID 0000.0001) %MON surfExpan_salt_mean          =   6.7108493702687E-07
(PID.TID 0000.0001) // =======================================================
(PID.TID 0000.0001) // End MONITOR dynamic field statistics
(PID.TID 0000.0001) // =======================================================
 cg2d: Sum(rhs),rhsMax =  -4.61525363461858E+00  2.28726629201994E+05
(PID.TID 0000.0001)      cg2d_init_res =   5.06025811385336E-03
(PID.TID 0000.0001)      cg2d_iters(min,last) =      -1       1
(PID.TID 0000.0001)      cg2d_last_res =   4.82697735416034E-08
(PID.TID 0000.0001) // =======================================================
(PID.TID 0000.0001) // Begin MONITOR dynamic field statistics
(PID.TID 0000.0001) // =======================================================
(PID.TID 0000.0001) %MON time_tsnumber                =                 72080
(PID.TID 0000.0001) %MON time_secondsf                =   1.8020000000000E+06
(PID.TID 0000.0001) %MON dynstat_eta_max              =   8.6235950903704E+00
(PID.TID 0000.0001) %MON dynstat_eta_min              =  -1.6664082493909E+00
(PID.TID 0000.0001) %MON dynstat_eta_mean             =   9.4647353400950E-03
(PID.TID 0000.0001) %MON dynstat_eta_sd               =   6.4711074733134E-01
(PID.TID 0000.0001) %MON dynstat_eta_del2             =   7.9535022011473E-03
(PID.TID 0000.0001) %MON dynstat_uvel_max             =   6.7443398174824E-01
(PID.TID 0000.0001) %MON dynstat_uvel_min             =  -3.9829241358499E-01
(PID.TID 0000.0001) %MON dynstat_uvel_mean            =  -4.5246369013235E-04
(PID.TID 0000.0001) %MON dynstat_uvel_sd              =   1.2474563138549E-02
(PID.TID 0000.0001) %MON dynstat_uvel_del2            =   7.8212809194757E-05
(PID.TID 0000.0001) %MON dynstat_vvel_max             =   5.7703451263865E-01
(PID.TID 0000.0001) %MON dynstat_vvel_min             =  -5.6052639045295E-01
(PID.TID 0000.0001) %MON dynstat_vvel_mean            =  -3.8280403516785E-04
(PID.TID 0000.0001) %MON dynstat_vvel_sd              =   1.3087281952867E-02
(PID.TID 0000.0001) %MON dynstat_vvel_del2            =   1.0191422231948E-04
(PID.TID 0000.0001) %MON dynstat_wvel_max             =   1.0349115671911E-04
(PID.TID 0000.0001) %MON dynstat_wvel_min             =  -8.6095742893435E-04
(PID.TID 0000.0001) %MON dynstat_wvel_mean            =  -1.7212747752893E-07
(PID.TID 0000.0001) %MON dynstat_wvel_sd              =   9.5336804395757E-06
(PID.TID 0000.0001) %MON dynstat_wvel_del2            =   9.4180956515330E-08
(PID.TID 0000.0001) %MON dynstat_theta_max            =   3.0925474496800E+01
(PID.TID 0000.0001) %MON dynstat_theta_min            =  -3.0175241062749E+00
(PID.TID 0000.0001) %MON dynstat_theta_mean           =   3.9089416823014E+00
(PID.TID 0000.0001) %MON dynstat_theta_sd             =   4.5706018530797E+00
(PID.TID 0000.0001) %MON dynstat_theta_del2           =   2.6549550284215E-03
(PID.TID 0000.0001) %MON dynstat_salt_max             =   4.1377227231774E+01
(PID.TID 0000.0001) %MON dynstat_salt_min             =   1.8518402741099E+01
(PID.TID 0000.0001) %MON dynstat_salt_mean            =   3.4772193358827E+01
(PID.TID 0000.0001) %MON dynstat_salt_sd              =   5.3093691525705E-01
(PID.TID 0000.0001) %MON dynstat_salt_del2            =   8.0306788096612E-04
(PID.TID 0000.0001) %MON dynstat_sst_max              =   3.0925474496800E+01
(PID.TID 0000.0001) %MON dynstat_sst_min              =  -1.8999159993489E+00
(PID.TID 0000.0001) %MON dynstat_sst_mean             =   1.8099623015777E+01
(PID.TID 0000.0001) %MON dynstat_sst_sd               =   9.7998741424510E+00
(PID.TID 0000.0001) %MON dynstat_sst_del2             =   1.5336717927614E-02
(PID.TID 0000.0001) %MON dynstat_sss_max              =   4.1377227231774E+01
(PID.TID 0000.0001) %MON dynstat_sss_min              =   1.8751385377988E+01
(PID.TID 0000.0001) %MON dynstat_sss_mean             =   3.4641640219077E+01
(PID.TID 0000.0001) %MON dynstat_sss_sd               =   1.4571707439809E+00
(PID.TID 0000.0001) %MON dynstat_sss_del2             =   8.0175179311086E-03
(PID.TID 0000.0001) %MON forcing_qnet_max             =   4.4599199218750E+04
(PID.TID 0000.0001) %MON forcing_qnet_min             =  -1.2209892578125E+04
(PID.TID 0000.0001) %MON forcing_qnet_mean            =  -2.1504392069931E+02
(PID.TID 0000.0001) %MON forcing_qnet_sd              =   1.3702143645790E+03
(PID.TID 0000.0001) %MON forcing_qnet_del2            =   4.4886764883106E+01
(PID.TID 0000.0001) %MON forcing_qsw_max              =   0.0000000000000E+00
(PID.TID 0000.0001) %MON forcing_qsw_min              =   0.0000000000000E+00
(PID.TID 0000.0001) %MON forcing_qsw_mean             =   0.0000000000000E+00
(PID.TID 0000.0001) %MON forcing_qsw_sd               =   0.0000000000000E+00
(PID.TID 0000.0001) %MON forcing_qsw_del2             =   0.0000000000000E+00
(PID.TID 0000.0001) %MON forcing_empmr_max            =   9.0809360146523E-02
(PID.TID 0000.0001) %MON forcing_empmr_min            =  -7.2632431983948E-01
(PID.TID 0000.0001) %MON forcing_empmr_mean           =  -6.8044042276614E-04
(PID.TID 0000.0001) %MON forcing_empmr_sd             =   1.3610008151541E-02
(PID.TID 0000.0001) %MON forcing_empmr_del2           =   5.3555683208476E-04
(PID.TID 0000.0001) %MON forcing_fu_max               =   5.4801289228757E-01
(PID.TID 0000.0001) %MON forcing_fu_min               =  -4.4641799185092E-01
(PID.TID 0000.0001) %MON forcing_fu_mean              =  -4.1255168011747E-03
(PID.TID 0000.0001) %MON forcing_fu_sd                =   6.8509574629944E-02
(PID.TID 0000.0001) %MON forcing_fu_del2              =   6.7687679415252E-04
(PID.TID 0000.0001) %MON forcing_fv_max               =   3.0914867831684E-01
(PID.TID 0000.0001) %MON forcing_fv_min               =  -3.4788516937630E-01
(PID.TID 0000.0001) %MON forcing_fv_mean              =  -1.3332087099671E-02
(PID.TID 0000.0001) %MON forcing_fv_sd                =   6.5600041909167E-02
(PID.TID 0000.0001) %MON forcing_fv_del2              =   5.4726463157888E-04
(PID.TID 0000.0001) %MON trAdv_CFL_u_max              =   5.8350020116372E-05
(PID.TID 0000.0001) %MON trAdv_CFL_v_max              =   9.2125766091565E-05
(PID.TID 0000.0001) %MON trAdv_CFL_w_max              =   3.2022233184176E-04
(PID.TID 0000.0001) %MON advcfl_uvel_max              =   6.2474442735442E-05
(PID.TID 0000.0001) %MON advcfl_vvel_max              =   5.2307613882230E-05
(PID.TID 0000.0001) %MON advcfl_wvel_max              =   7.0176262786423E-04
(PID.TID 0000.0001) %MON advcfl_W_hf_max              =   3.2022233184176E-04
(PID.TID 0000.0001) %MON pe_b_mean                    =   5.5797338001380E-04
(PID.TID 0000.0001) %MON ke_max                       =   2.0957028191971E-01
(PID.TID 0000.0001) %MON ke_mean                      =   1.5111093646776E-04
(PID.TID 0000.0001) %MON ke_vol                       =   1.3398058834737E+18
(PID.TID 0000.0001) %MON vort_r_min                   =  -1.9372530989102E-06
(PID.TID 0000.0001) %MON vort_r_max                   =   1.9765444565940E-06
(PID.TID 0000.0001) %MON vort_a_mean                  =  -2.0549865324846E-05
(PID.TID 0000.0001) %MON vort_a_sd                    =   7.5259522198006E-05
(PID.TID 0000.0001) %MON vort_p_mean                  =  -2.4783424309688E-05
(PID.TID 0000.0001) %MON vort_p_sd                    =   1.2811963889042E-04
(PID.TID 0000.0001) %MON surfExpan_theta_mean         =  -5.9665687679487E-06
(PID.TID 0000.0001) %MON surfExpan_salt_mean          =   6.7435550191007E-07
(PID.TID 0000.0001) // =======================================================
(PID.TID 0000.0001) // End MONITOR dynamic field statistics
(PID.TID 0000.0001) // =======================================================
 cg2d: Sum(rhs),rhsMax =  -4.62727735466396E+00  2.28528116077937E+05
(PID.TID 0000.0001)      cg2d_init_res =   5.09437428958343E-03
(PID.TID 0000.0001)      cg2d_iters(min,last) =      -1       1
(PID.TID 0000.0001)      cg2d_last_res =   4.86433146365635E-08
(PID.TID 0000.0001) // =======================================================
(PID.TID 0000.0001) // Begin MONITOR dynamic field statistics
(PID.TID 0000.0001) // =======================================================
(PID.TID 0000.0001) %MON time_tsnumber                =                 72081
(PID.TID 0000.0001) %MON time_secondsf                =   1.8020250000000E+06
(PID.TID 0000.0001) %MON dynstat_eta_max              =   8.6145543235605E+00
(PID.TID 0000.0001) %MON dynstat_eta_min              =  -1.6640659806421E+00
(PID.TID 0000.0001) %MON dynstat_eta_mean             =   9.4811570968747E-03
(PID.TID 0000.0001) %MON dynstat_eta_sd               =   6.4698838501839E-01
(PID.TID 0000.0001) %MON dynstat_eta_del2             =   7.9371380058272E-03
(PID.TID 0000.0001) %MON dynstat_uvel_max             =   6.8253810358056E-01
(PID.TID 0000.0001) %MON dynstat_uvel_min             =  -4.0119313655261E-01
(PID.TID 0000.0001) %MON dynstat_uvel_mean            =  -4.5183890412362E-04
(PID.TID 0000.0001) %MON dynstat_uvel_sd              =   1.2484553881205E-02
(PID.TID 0000.0001) %MON dynstat_uvel_del2            =   7.8727287959643E-05
(PID.TID 0000.0001) %MON dynstat_vvel_max             =   5.8396247831168E-01
(PID.TID 0000.0001) %MON dynstat_vvel_min             =  -5.6713401028188E-01
(PID.TID 0000.0001) %MON dynstat_vvel_mean            =  -3.8249473146769E-04
(PID.TID 0000.0001) %MON dynstat_vvel_sd              =   1.3096923618719E-02
(PID.TID 0000.0001) %MON dynstat_vvel_del2            =   1.0280175127337E-04
(PID.TID 0000.0001) %MON dynstat_wvel_max             =   1.0349614650902E-04
(PID.TID 0000.0001) %MON dynstat_wvel_min             =  -8.6802688471642E-04
(PID.TID 0000.0001) %MON dynstat_wvel_mean            =  -1.7382256442511E-07
(PID.TID 0000.0001) %MON dynstat_wvel_sd              =   9.5917324994597E-06
(PID.TID 0000.0001) %MON dynstat_wvel_del2            =   9.4456155584868E-08
(PID.TID 0000.0001) %MON dynstat_theta_max            =   3.0925468470959E+01
(PID.TID 0000.0001) %MON dynstat_theta_min            =  -3.0175160410185E+00
(PID.TID 0000.0001) %MON dynstat_theta_mean           =   3.9089421147595E+00
(PID.TID 0000.0001) %MON dynstat_theta_sd             =   4.5706031638900E+00
(PID.TID 0000.0001) %MON dynstat_theta_del2           =   2.6549386109641E-03
(PID.TID 0000.0001) %MON dynstat_salt_max             =   4.1377218621665E+01
(PID.TID 0000.0001) %MON dynstat_salt_min             =   1.8518403007984E+01
(PID.TID 0000.0001) %MON dynstat_salt_mean            =   3.4772193141041E+01
(PID.TID 0000.0001) %MON dynstat_salt_sd              =   5.3093726553106E-01
(PID.TID 0000.0001) %MON dynstat_salt_del2            =   8.0309496843255E-04
(PID.TID 0000.0001) %MON dynstat_sst_max              =   3.0925468470959E+01
(PID.TID 0000.0001) %MON dynstat_sst_min              =  -1.8999149394745E+00
(PID.TID 0000.0001) %MON dynstat_sst_mean             =   1.8099650671193E+01
(PID.TID 0000.0001) %MON dynstat_sst_sd               =   9.7998749357012E+00
(PID.TID 0000.0001) %MON dynstat_sst_del2             =   1.5336298956039E-02
(PID.TID 0000.0001) %MON dynstat_sss_max              =   4.1377218621665E+01
(PID.TID 0000.0001) %MON dynstat_sss_min              =   1.8751383276347E+01
(PID.TID 0000.0001) %MON dynstat_sss_mean             =   3.4641624824954E+01
(PID.TID 0000.0001) %MON dynstat_sss_sd               =   1.4571786954236E+00
(PID.TID 0000.0001) %MON dynstat_sss_del2             =   8.0179474028983E-03
(PID.TID 0000.0001) %MON forcing_qnet_max             =   4.3463882812500E+04
(PID.TID 0000.0001) %MON forcing_qnet_min             =  -1.1795163085938E+04
(PID.TID 0000.0001) %MON forcing_qnet_mean            =  -2.1440851124077E+02
(PID.TID 0000.0001) %MON forcing_qnet_sd              =   1.3336884480066E+03
(PID.TID 0000.0001) %MON forcing_qnet_del2            =   4.3696201033652E+01
(PID.TID 0000.0001) %MON forcing_qsw_max              =   0.0000000000000E+00
(PID.TID 0000.0001) %MON forcing_qsw_min              =   0.0000000000000E+00
(PID.TID 0000.0001) %MON forcing_qsw_mean             =   0.0000000000000E+00
(PID.TID 0000.0001) %MON forcing_qsw_sd               =   0.0000000000000E+00
(PID.TID 0000.0001) %MON forcing_qsw_del2             =   0.0000000000000E+00
(PID.TID 0000.0001) %MON forcing_empmr_max            =   8.9198268949986E-02
(PID.TID 0000.0001) %MON forcing_empmr_min            =  -7.2445666790009E-01
(PID.TID 0000.0001) %MON forcing_empmr_mean           =  -6.7986073068701E-04
(PID.TID 0000.0001) %MON forcing_empmr_sd             =   1.3582788814804E-02
(PID.TID 0000.0001) %MON forcing_empmr_del2           =   5.3452124734299E-04
(PID.TID 0000.0001) %MON forcing_fu_max               =   5.4801289228757E-01
(PID.TID 0000.0001) %MON forcing_fu_min               =  -4.4641799185092E-01
(PID.TID 0000.0001) %MON forcing_fu_mean              =  -4.1255168011747E-03
(PID.TID 0000.0001) %MON forcing_fu_sd                =   6.8509574629944E-02
(PID.TID 0000.0001) %MON forcing_fu_del2              =   6.7687679415252E-04
(PID.TID 0000.0001) %MON forcing_fv_max               =   3.0914867831684E-01
(PID.TID 0000.0001) %MON forcing_fv_min               =  -3.4788516937630E-01
(PID.TID 0000.0001) %MON forcing_fv_mean              =  -1.3332087099671E-02
(PID.TID 0000.0001) %MON forcing_fv_sd                =   6.5600041909167E-02
(PID.TID 0000.0001) %MON forcing_fv_del2              =   5.4726463157888E-04
(PID.TID 0000.0001) %MON trAdv_CFL_u_max              =   5.9056969062250E-05
(PID.TID 0000.0001) %MON trAdv_CFL_v_max              =   9.3219121769845E-05
(PID.TID 0000.0001) %MON trAdv_CFL_w_max              =   3.1925126457332E-04
(PID.TID 0000.0001) %MON advcfl_uvel_max              =   6.3225147043108E-05
(PID.TID 0000.0001) %MON advcfl_vvel_max              =   5.2935627190752E-05
(PID.TID 0000.0001) %MON advcfl_wvel_max              =   6.9995813323680E-04
(PID.TID 0000.0001) %MON advcfl_W_hf_max              =   3.1925126457332E-04
(PID.TID 0000.0001) %MON pe_b_mean                    =   5.5776284245902E-04
(PID.TID 0000.0001) %MON ke_max                       =   2.1422152965517E-01
(PID.TID 0000.0001) %MON ke_mean                      =   1.5134221739928E-04
(PID.TID 0000.0001) %MON ke_vol                       =   1.3398058894544E+18
(PID.TID 0000.0001) %MON vort_r_min                   =  -1.9581050686642E-06
(PID.TID 0000.0001) %MON vort_r_max                   =   2.0003027256567E-06
(PID.TID 0000.0001) %MON vort_a_mean                  =  -2.0549865324846E-05
(PID.TID 0000.0001) %MON vort_a_sd                    =   7.5259522290553E-05
(PID.TID 0000.0001) %MON vort_p_mean                  =  -2.4783424179166E-05
(PID.TID 0000.0001) %MON vort_p_sd                    =   1.2811963743818E-04
(PID.TID 0000.0001) %MON surfExpan_theta_mean         =  -5.9722416055207E-06
(PID.TID 0000.0001) %MON surfExpan_salt_mean          =   6.7757578786549E-07
(PID.TID 0000.0001) // =======================================================
(PID.TID 0000.0001) // End MONITOR dynamic field statistics
(PID.TID 0000.0001) // =======================================================
 cg2d: Sum(rhs),rhsMax =  -4.63936391779811E+00  2.28327219527273E+05
(PID.TID 0000.0001)      cg2d_init_res =   5.12829600774460E-03
(PID.TID 0000.0001)      cg2d_iters(min,last) =      -1       1
(PID.TID 0000.0001)      cg2d_last_res =   4.90130479326633E-08
(PID.TID 0000.0001) // =======================================================
(PID.TID 0000.0001) // Begin MONITOR dynamic field statistics
(PID.TID 0000.0001) // =======================================================
(PID.TID 0000.0001) %MON time_tsnumber                =                 72082
(PID.TID 0000.0001) %MON time_secondsf                =   1.8020500000000E+06
(PID.TID 0000.0001) %MON dynstat_eta_max              =   8.6054053158934E+00
(PID.TID 0000.0001) %MON dynstat_eta_min              =  -1.6617036102525E+00
(PID.TID 0000.0001) %MON dynstat_eta_mean             =   9.4975655627286E-03
(PID.TID 0000.0001) %MON dynstat_eta_sd               =   6.4686527053447E-01
(PID.TID 0000.0001) %MON dynstat_eta_del2             =   7.9206548981041E-03
(PID.TID 0000.0001) %MON dynstat_uvel_max             =   6.9063229825775E-01
(PID.TID 0000.0001) %MON dynstat_uvel_min             =  -4.0408979322139E-01
(PID.TID 0000.0001) %MON dynstat_uvel_mean            =  -4.5120952253311E-04
(PID.TID 0000.0001) %MON dynstat_uvel_sd              =   1.2494595647166E-02
(PID.TID 0000.0001) %MON dynstat_uvel_del2            =   7.9242356527783E-05
(PID.TID 0000.0001) %MON dynstat_vvel_max             =   5.9087099011710E-01
(PID.TID 0000.0001) %MON dynstat_vvel_min             =  -5.7373290943496E-01
(PID.TID 0000.0001) %MON dynstat_vvel_mean            =  -3.8218515167649E-04
(PID.TID 0000.0001) %MON dynstat_vvel_sd              =   1.3106596374268E-02
(PID.TID 0000.0001) %MON dynstat_vvel_del2            =   1.0368777904963E-04
(PID.TID 0000.0001) %MON dynstat_wvel_max             =   1.0350115309764E-04
(PID.TID 0000.0001) %MON dynstat_wvel_min             =  -8.7497715302670E-04
(PID.TID 0000.0001) %MON dynstat_wvel_mean            =  -1.7555120797259E-07
(PID.TID 0000.0001) %MON dynstat_wvel_sd              =   9.6491574379959E-06
(PID.TID 0000.0001) %MON dynstat_wvel_del2            =   9.4728936533528E-08
(PID.TID 0000.0001) %MON dynstat_theta_max            =   3.0925462445843E+01
(PID.TID 0000.0001) %MON dynstat_theta_min            =  -3.0175077151362E+00
(PID.TID 0000.0001) %MON dynstat_theta_mean           =   3.9089425448220E+00
(PID.TID 0000.0001) %MON dynstat_theta_sd             =   4.5706044817857E+00
(PID.TID 0000.0001) %MON dynstat_theta_del2           =   2.6549228877695E-03
(PID.TID 0000.0001) %MON dynstat_salt_max             =   4.1377209804765E+01
(PID.TID 0000.0001) %MON dynstat_salt_min             =   1.8518403274905E+01
(PID.TID 0000.0001) %MON dynstat_salt_mean            =   3.4772192923683E+01
(PID.TID 0000.0001) %MON dynstat_salt_sd              =   5.3093761747181E-01
(PID.TID 0000.0001) %MON dynstat_salt_del2            =   8.0312255433127E-04
(PID.TID 0000.0001) %MON dynstat_sst_max              =   3.0925462445843E+01
(PID.TID 0000.0001) %MON dynstat_sst_min              =  -1.8999138786114E+00
(PID.TID 0000.0001) %MON dynstat_sst_mean             =   1.8099678074652E+01
(PID.TID 0000.0001) %MON dynstat_sst_sd               =   9.7998762418179E+00
(PID.TID 0000.0001) %MON dynstat_sst_del2             =   1.5335897427696E-02
(PID.TID 0000.0001) %MON dynstat_sss_max              =   4.1377209804765E+01
(PID.TID 0000.0001) %MON dynstat_sss_min              =   1.8751381518039E+01
(PID.TID 0000.0001) %MON dynstat_sss_mean             =   3.4641609446829E+01
(PID.TID 0000.0001) %MON dynstat_sss_sd               =   1.4571866829730E+00
(PID.TID 0000.0001) %MON dynstat_sss_del2             =   8.0183842659081E-03
(PID.TID 0000.0001) %MON forcing_qnet_max             =   4.2364042968750E+04
(PID.TID 0000.0001) %MON forcing_qnet_min             =  -1.1403796875000E+04
(PID.TID 0000.0001) %MON forcing_qnet_mean            =  -2.1300636517249E+02
(PID.TID 0000.0001) %MON forcing_qnet_sd              =   1.3005069519489E+03
(PID.TID 0000.0001) %MON forcing_qnet_del2            =   4.2617582129693E+01
(PID.TID 0000.0001) %MON forcing_qsw_max              =   0.0000000000000E+00
(PID.TID 0000.0001) %MON forcing_qsw_min              =   0.0000000000000E+00
(PID.TID 0000.0001) %MON forcing_qsw_mean             =   0.0000000000000E+00
(PID.TID 0000.0001) %MON forcing_qsw_sd               =   0.0000000000000E+00
(PID.TID 0000.0001) %MON forcing_qsw_del2             =   0.0000000000000E+00
(PID.TID 0000.0001) %MON forcing_empmr_max            =   8.7615363299847E-02
(PID.TID 0000.0001) %MON forcing_empmr_min            =  -7.2260868549347E-01
(PID.TID 0000.0001) %MON forcing_empmr_mean           =  -6.7931048633638E-04
(PID.TID 0000.0001) %MON forcing_empmr_sd             =   1.3556092625007E-02
(PID.TID 0000.0001) %MON forcing_empmr_del2           =   5.3350244149097E-04
(PID.TID 0000.0001) %MON forcing_fu_max               =   5.4801289228757E-01
(PID.TID 0000.0001) %MON forcing_fu_min               =  -4.4641799185092E-01
(PID.TID 0000.0001) %MON forcing_fu_mean              =  -4.1255168011747E-03
(PID.TID 0000.0001) %MON forcing_fu_sd                =   6.8509574629944E-02
(PID.TID 0000.0001) %MON forcing_fu_del2              =   6.7687679415252E-04
(PID.TID 0000.0001) %MON forcing_fv_max               =   3.0914867831684E-01
(PID.TID 0000.0001) %MON forcing_fv_min               =  -3.4788516937630E-01
(PID.TID 0000.0001) %MON forcing_fv_mean              =  -1.3332087099671E-02
(PID.TID 0000.0001) %MON forcing_fv_sd                =   6.5600041909167E-02
(PID.TID 0000.0001) %MON forcing_fv_del2              =   5.4726463157888E-04
(PID.TID 0000.0001) %MON trAdv_CFL_u_max              =   5.9763260999151E-05
(PID.TID 0000.0001) %MON trAdv_CFL_v_max              =   9.4308090828015E-05
(PID.TID 0000.0001) %MON trAdv_CFL_w_max              =   3.1828840527056E-04
(PID.TID 0000.0001) %MON advcfl_uvel_max              =   6.3974931774503E-05
(PID.TID 0000.0001) %MON advcfl_vvel_max              =   5.3561877025214E-05
(PID.TID 0000.0001) %MON advcfl_wvel_max              =   6.9817264298886E-04
(PID.TID 0000.0001) %MON advcfl_W_hf_max              =   3.1828840527056E-04
(PID.TID 0000.0001) %MON pe_b_mean                    =   5.5755104882753E-04
(PID.TID 0000.0001) %MON ke_max                       =   2.1890639504994E-01
(PID.TID 0000.0001) %MON ke_mean                      =   1.5157463875409E-04
(PID.TID 0000.0001) %MON ke_vol                       =   1.3398058954301E+18
(PID.TID 0000.0001) %MON vort_r_min                   =  -1.9787364355594E-06
(PID.TID 0000.0001) %MON vort_r_max                   =   2.0239850597868E-06
(PID.TID 0000.0001) %MON vort_a_mean                  =  -2.0549865324846E-05
(PID.TID 0000.0001) %MON vort_a_sd                    =   7.5259522383451E-05
(PID.TID 0000.0001) %MON vort_p_mean                  =  -2.4783424048368E-05
(PID.TID 0000.0001) %MON vort_p_sd                    =   1.2811963598054E-04
(PID.TID 0000.0001) %MON surfExpan_theta_mean         =  -5.9806401488006E-06
(PID.TID 0000.0001) %MON surfExpan_salt_mean          =   6.8066043317041E-07
(PID.TID 0000.0001) // =======================================================
(PID.TID 0000.0001) // End MONITOR dynamic field statistics
(PID.TID 0000.0001) // =======================================================
 cg2d: Sum(rhs),rhsMax =  -4.65151357798808E+00  2.28123944193932E+05
(PID.TID 0000.0001)      cg2d_init_res =   5.16193772560579E-03
(PID.TID 0000.0001)      cg2d_iters(min,last) =      -1       1
(PID.TID 0000.0001)      cg2d_last_res =   4.93735590004484E-08
(PID.TID 0000.0001) // =======================================================
(PID.TID 0000.0001) // Begin MONITOR dynamic field statistics
(PID.TID 0000.0001) // =======================================================
(PID.TID 0000.0001) %MON time_tsnumber                =                 72083
(PID.TID 0000.0001) %MON time_secondsf                =   1.8020750000000E+06
(PID.TID 0000.0001) %MON dynstat_eta_max              =   8.5961483033604E+00
(PID.TID 0000.0001) %MON dynstat_eta_min              =  -1.6593215369416E+00
(PID.TID 0000.0001) %MON dynstat_eta_mean             =   9.5139603363413E-03
(PID.TID 0000.0001) %MON dynstat_eta_sd               =   6.4674143779159E-01
(PID.TID 0000.0001) %MON dynstat_eta_del2             =   7.9040543931808E-03
(PID.TID 0000.0001) %MON dynstat_uvel_max             =   6.9871638698209E-01
(PID.TID 0000.0001) %MON dynstat_uvel_min             =  -4.0698235684546E-01
(PID.TID 0000.0001) %MON dynstat_uvel_mean            =  -4.5057555260095E-04
(PID.TID 0000.0001) %MON dynstat_uvel_sd              =   1.2504686495013E-02
(PID.TID 0000.0001) %MON dynstat_uvel_del2            =   7.9757941054609E-05
(PID.TID 0000.0001) %MON dynstat_vvel_max             =   5.9775995516338E-01
(PID.TID 0000.0001) %MON dynstat_vvel_min             =  -5.8032298639711E-01
(PID.TID 0000.0001) %MON dynstat_vvel_mean            =  -3.8187535766313E-04
(PID.TID 0000.0001) %MON dynstat_vvel_sd              =   1.3116297957797E-02
(PID.TID 0000.0001) %MON dynstat_vvel_del2            =   1.0457219866047E-04
(PID.TID 0000.0001) %MON dynstat_wvel_max             =   1.0350617648532E-04
(PID.TID 0000.0001) %MON dynstat_wvel_min             =  -8.8180834667741E-04
(PID.TID 0000.0001) %MON dynstat_wvel_mean            =  -1.7732044996945E-07
(PID.TID 0000.0001) %MON dynstat_wvel_sd              =   9.7059113361894E-06
(PID.TID 0000.0001) %MON dynstat_wvel_del2            =   9.4998068604034E-08
(PID.TID 0000.0001) %MON dynstat_theta_max            =   3.0925456421451E+01
(PID.TID 0000.0001) %MON dynstat_theta_min            =  -3.0174991274491E+00
(PID.TID 0000.0001) %MON dynstat_theta_mean           =   3.9089429719712E+00
(PID.TID 0000.0001) %MON dynstat_theta_sd             =   4.5706058015473E+00
(PID.TID 0000.0001) %MON dynstat_theta_del2           =   2.6549077367693E-03
(PID.TID 0000.0001) %MON dynstat_salt_max             =   4.1377200881746E+01
(PID.TID 0000.0001) %MON dynstat_salt_min             =   1.8518403541861E+01
(PID.TID 0000.0001) %MON dynstat_salt_mean            =   3.4772192706721E+01
(PID.TID 0000.0001) %MON dynstat_salt_sd              =   5.3093797091248E-01
(PID.TID 0000.0001) %MON dynstat_salt_del2            =   8.0315061321379E-04
(PID.TID 0000.0001) %MON dynstat_sst_max              =   3.0925456421451E+01
(PID.TID 0000.0001) %MON dynstat_sst_min              =  -1.8999128167517E+00
(PID.TID 0000.0001) %MON dynstat_sst_mean             =   1.8099705190860E+01
(PID.TID 0000.0001) %MON dynstat_sst_sd               =   9.7998779395069E+00
(PID.TID 0000.0001) %MON dynstat_sst_del2             =   1.5335510126670E-02
(PID.TID 0000.0001) %MON dynstat_sss_max              =   4.1377200881746E+01
(PID.TID 0000.0001) %MON dynstat_sss_min              =   1.8751379924959E+01
(PID.TID 0000.0001) %MON dynstat_sss_mean             =   3.4641594083840E+01
(PID.TID 0000.0001) %MON dynstat_sss_sd               =   1.4571947031343E+00
(PID.TID 0000.0001) %MON dynstat_sss_del2             =   8.0188281663629E-03
(PID.TID 0000.0001) %MON forcing_qnet_max             =   4.1281937500000E+04
(PID.TID 0000.0001) %MON forcing_qnet_min             =  -1.1018268554688E+04
(PID.TID 0000.0001) %MON forcing_qnet_mean            =  -2.1125952476449E+02
(PID.TID 0000.0001) %MON forcing_qnet_sd              =   1.2695115885267E+03
(PID.TID 0000.0001) %MON forcing_qnet_del2            =   4.1611351802049E+01
(PID.TID 0000.0001) %MON forcing_qsw_max              =   0.0000000000000E+00
(PID.TID 0000.0001) %MON forcing_qsw_min              =   0.0000000000000E+00
(PID.TID 0000.0001) %MON forcing_qsw_mean             =   0.0000000000000E+00
(PID.TID 0000.0001) %MON forcing_qsw_sd               =   0.0000000000000E+00
(PID.TID 0000.0001) %MON forcing_qsw_del2             =   0.0000000000000E+00
(PID.TID 0000.0001) %MON forcing_empmr_max            =   8.6060665547848E-02
(PID.TID 0000.0001) %MON forcing_empmr_min            =  -7.2074109315872E-01
(PID.TID 0000.0001) %MON forcing_empmr_mean           =  -6.7874362758438E-04
(PID.TID 0000.0001) %MON forcing_empmr_sd             =   1.3529053408389E-02
(PID.TID 0000.0001) %MON forcing_empmr_del2           =   5.3247674600272E-04
(PID.TID 0000.0001) %MON forcing_fu_max               =   5.4801289228757E-01
(PID.TID 0000.0001) %MON forcing_fu_min               =  -4.4641799185092E-01
(PID.TID 0000.0001) %MON forcing_fu_mean              =  -4.1255168011747E-03
(PID.TID 0000.0001) %MON forcing_fu_sd                =   6.8509574629944E-02
(PID.TID 0000.0001) %MON forcing_fu_del2              =   6.7687679415252E-04
(PID.TID 0000.0001) %MON forcing_fv_max               =   3.0914867831684E-01
(PID.TID 0000.0001) %MON forcing_fv_min               =  -3.4788516937630E-01
(PID.TID 0000.0001) %MON forcing_fv_mean              =  -1.3332087099671E-02
(PID.TID 0000.0001) %MON forcing_fv_sd                =   6.5600041909167E-02
(PID.TID 0000.0001) %MON forcing_fv_del2              =   5.4726463157888E-04
(PID.TID 0000.0001) %MON trAdv_CFL_u_max              =   6.0468882059368E-05
(PID.TID 0000.0001) %MON trAdv_CFL_v_max              =   9.5392643307939E-05
(PID.TID 0000.0001) %MON trAdv_CFL_w_max              =   3.1731623551646E-04
(PID.TID 0000.0001) %MON advcfl_uvel_max              =   6.4723780367167E-05
(PID.TID 0000.0001) %MON advcfl_vvel_max              =   5.4186354965089E-05
(PID.TID 0000.0001) %MON advcfl_wvel_max              =   6.9636820595046E-04
(PID.TID 0000.0001) %MON advcfl_W_hf_max              =   3.1731623551646E-04
(PID.TID 0000.0001) %MON pe_b_mean                    =   5.5733805828309E-04
(PID.TID 0000.0001) %MON ke_max                       =   2.2362416001441E-01
(PID.TID 0000.0001) %MON ke_mean                      =   1.5180815299649E-04
(PID.TID 0000.0001) %MON ke_vol                       =   1.3398059014009E+18
(PID.TID 0000.0001) %MON vort_r_min                   =  -1.9991450684049E-06
(PID.TID 0000.0001) %MON vort_r_max                   =   2.0475912127987E-06
(PID.TID 0000.0001) %MON vort_a_mean                  =  -2.0549865324846E-05
(PID.TID 0000.0001) %MON vort_a_sd                    =   7.5259522476679E-05
(PID.TID 0000.0001) %MON vort_p_mean                  =  -2.4783423917288E-05
(PID.TID 0000.0001) %MON vort_p_sd                    =   1.2811963451757E-04
(PID.TID 0000.0001) %MON surfExpan_theta_mean         =  -5.9939545953610E-06
(PID.TID 0000.0001) %MON surfExpan_salt_mean          =   6.8358955624268E-07
(PID.TID 0000.0001) // =======================================================
(PID.TID 0000.0001) // End MONITOR dynamic field statistics
(PID.TID 0000.0001) // =======================================================
 cg2d: Sum(rhs),rhsMax =  -4.66372819479120E+00  2.27918294759476E+05
(PID.TID 0000.0001)      cg2d_init_res =   5.19536024028768E-03
(PID.TID 0000.0001)      cg2d_iters(min,last) =      -1       1
(PID.TID 0000.0001)      cg2d_last_res =   4.97310079196467E-08
(PID.TID 0000.0001) // =======================================================
(PID.TID 0000.0001) // Begin MONITOR dynamic field statistics
(PID.TID 0000.0001) // =======================================================
(PID.TID 0000.0001) %MON time_tsnumber                =                 72084
(PID.TID 0000.0001) %MON time_secondsf                =   1.8021000000000E+06
(PID.TID 0000.0001) %MON dynstat_eta_max              =   8.5867835241044E+00
(PID.TID 0000.0001) %MON dynstat_eta_min              =  -1.6569204682797E+00
(PID.TID 0000.0001) %MON dynstat_eta_mean             =   9.5303442911045E-03
(PID.TID 0000.0001) %MON dynstat_eta_sd               =   6.4661691018687E-01
(PID.TID 0000.0001) %MON dynstat_eta_del2             =   7.8873380033521E-03
(PID.TID 0000.0001) %MON dynstat_uvel_max             =   7.0679019188214E-01
(PID.TID 0000.0001) %MON dynstat_uvel_min             =  -4.0987080073824E-01
(PID.TID 0000.0001) %MON dynstat_uvel_mean            =  -4.4993700278864E-04
(PID.TID 0000.0001) %MON dynstat_uvel_sd              =   1.2514824498788E-02
(PID.TID 0000.0001) %MON dynstat_uvel_del2            =   8.0273969799172E-05
(PID.TID 0000.0001) %MON dynstat_vvel_max             =   6.0462928155910E-01
(PID.TID 0000.0001) %MON dynstat_vvel_min             =  -5.8690413983014E-01
(PID.TID 0000.0001) %MON dynstat_vvel_mean            =  -3.8156541040491E-04
(PID.TID 0000.0001) %MON dynstat_vvel_sd              =   1.3126026136164E-02
(PID.TID 0000.0001) %MON dynstat_vvel_del2            =   1.0545490700179E-04
(PID.TID 0000.0001) %MON dynstat_wvel_max             =   1.0351121671729E-04
(PID.TID 0000.0001) %MON dynstat_wvel_min             =  -8.8852059713692E-04
(PID.TID 0000.0001) %MON dynstat_wvel_mean            =  -1.7915060612319E-07
(PID.TID 0000.0001) %MON dynstat_wvel_sd              =   9.7619964567094E-06
(PID.TID 0000.0001) %MON dynstat_wvel_del2            =   9.5262634573126E-08
(PID.TID 0000.0001) %MON dynstat_theta_max            =   3.0925450397783E+01
(PID.TID 0000.0001) %MON dynstat_theta_min            =  -3.0174902768379E+00
(PID.TID 0000.0001) %MON dynstat_theta_mean           =   3.9089433957966E+00
(PID.TID 0000.0001) %MON dynstat_theta_sd             =   4.5706071198257E+00
(PID.TID 0000.0001) %MON dynstat_theta_del2           =   2.6548930346818E-03
(PID.TID 0000.0001) %MON dynstat_salt_max             =   4.1377191953277E+01
(PID.TID 0000.0001) %MON dynstat_salt_min             =   1.8518403808853E+01
(PID.TID 0000.0001) %MON dynstat_salt_mean            =   3.4772192490208E+01
(PID.TID 0000.0001) %MON dynstat_salt_sd              =   5.3093832581209E-01
(PID.TID 0000.0001) %MON dynstat_salt_del2            =   8.0317913129531E-04
(PID.TID 0000.0001) %MON dynstat_sst_max              =   3.0925450397783E+01
(PID.TID 0000.0001) %MON dynstat_sst_min              =  -1.8999117538811E+00
(PID.TID 0000.0001) %MON dynstat_sst_mean             =   1.8099731995510E+01
(PID.TID 0000.0001) %MON dynstat_sst_sd               =   9.7998799584359E+00
(PID.TID 0000.0001) %MON dynstat_sst_del2             =   1.5335133906954E-02
(PID.TID 0000.0001) %MON dynstat_sss_max              =   4.1377191953277E+01
(PID.TID 0000.0001) %MON dynstat_sss_min              =   1.8751378611179E+01
(PID.TID 0000.0001) %MON dynstat_sss_mean             =   3.4641578741074E+01
(PID.TID 0000.0001) %MON dynstat_sss_sd               =   1.4572027560796E+00
(PID.TID 0000.0001) %MON dynstat_sss_del2             =   8.0192789420560E-03
(PID.TID 0000.0001) %MON forcing_qnet_max             =   4.0235304687500E+04
(PID.TID 0000.0001) %MON forcing_qnet_min             =  -1.0650259765625E+04
(PID.TID 0000.0001) %MON forcing_qnet_mean            =  -2.0926798938307E+02
(PID.TID 0000.0001) %MON forcing_qnet_sd              =   1.2408494646341E+03
(PID.TID 0000.0001) %MON forcing_qnet_del2            =   4.0681756406011E+01
(PID.TID 0000.0001) %MON forcing_qsw_max              =   0.0000000000000E+00
(PID.TID 0000.0001) %MON forcing_qsw_min              =   0.0000000000000E+00
(PID.TID 0000.0001) %MON forcing_qsw_mean             =   0.0000000000000E+00
(PID.TID 0000.0001) %MON forcing_qsw_sd               =   0.0000000000000E+00
(PID.TID 0000.0001) %MON forcing_qsw_del2             =   0.0000000000000E+00
(PID.TID 0000.0001) %MON forcing_empmr_max            =   8.4534145891666E-02
(PID.TID 0000.0001) %MON forcing_empmr_min            =  -7.1889317035675E-01
(PID.TID 0000.0001) %MON forcing_empmr_mean           =  -6.7829572718705E-04
(PID.TID 0000.0001) %MON forcing_empmr_sd             =   1.3502310482407E-02
(PID.TID 0000.0001) %MON forcing_empmr_del2           =   5.3145417988311E-04
(PID.TID 0000.0001) %MON forcing_fu_max               =   5.4801289228757E-01
(PID.TID 0000.0001) %MON forcing_fu_min               =  -4.4641799185092E-01
(PID.TID 0000.0001) %MON forcing_fu_mean              =  -4.1255168011747E-03
(PID.TID 0000.0001) %MON forcing_fu_sd                =   6.8509574629944E-02
(PID.TID 0000.0001) %MON forcing_fu_del2              =   6.7687679415252E-04
(PID.TID 0000.0001) %MON forcing_fv_max               =   3.0914867831684E-01
(PID.TID 0000.0001) %MON forcing_fv_min               =  -3.4788516937630E-01
(PID.TID 0000.0001) %MON forcing_fv_mean              =  -1.3332087099671E-02
(PID.TID 0000.0001) %MON forcing_fv_sd                =   6.5600041909167E-02
(PID.TID 0000.0001) %MON forcing_fv_del2              =   5.4726463157888E-04
(PID.TID 0000.0001) %MON trAdv_CFL_u_max              =   6.1173818422437E-05
(PID.TID 0000.0001) %MON trAdv_CFL_v_max              =   9.6472749336931E-05
(PID.TID 0000.0001) %MON trAdv_CFL_w_max              =   3.1635230678643E-04
(PID.TID 0000.0001) %MON advcfl_uvel_max              =   6.5471676344440E-05
(PID.TID 0000.0001) %MON advcfl_vvel_max              =   5.4809052680509E-05
(PID.TID 0000.0001) %MON advcfl_wvel_max              =   6.9458277329155E-04
(PID.TID 0000.0001) %MON advcfl_W_hf_max              =   3.1635230678643E-04
(PID.TID 0000.0001) %MON pe_b_mean                    =   5.5712391191697E-04
(PID.TID 0000.0001) %MON ke_max                       =   2.2837410369739E-01
(PID.TID 0000.0001) %MON ke_mean                      =   1.5204271297247E-04
(PID.TID 0000.0001) %MON ke_vol                       =   1.3398059073667E+18
(PID.TID 0000.0001) %MON vort_r_min                   =  -2.0193288665138E-06
(PID.TID 0000.0001) %MON vort_r_max                   =   2.0711209395009E-06
(PID.TID 0000.0001) %MON vort_a_mean                  =  -2.0549865324846E-05
(PID.TID 0000.0001) %MON vort_a_sd                    =   7.5259522570218E-05
(PID.TID 0000.0001) %MON vort_p_mean                  =  -2.4783423785929E-05
(PID.TID 0000.0001) %MON vort_p_sd                    =   1.2811963304967E-04
(PID.TID 0000.0001) %MON surfExpan_theta_mean         =  -6.0084925873196E-06
(PID.TID 0000.0001) %MON surfExpan_salt_mean          =   6.8642824368494E-07
(PID.TID 0000.0001) // =======================================================
(PID.TID 0000.0001) // End MONITOR dynamic field statistics
(PID.TID 0000.0001) // =======================================================
 cg2d: Sum(rhs),rhsMax =  -4.67600727215797E+00  2.27710275942900E+05
(PID.TID 0000.0001)      cg2d_init_res =   5.22853733599224E-03
(PID.TID 0000.0001)      cg2d_iters(min,last) =      -1       1
(PID.TID 0000.0001)      cg2d_last_res =   5.00822326856438E-08
(PID.TID 0000.0001) // =======================================================
(PID.TID 0000.0001) // Begin MONITOR dynamic field statistics
(PID.TID 0000.0001) // =======================================================
(PID.TID 0000.0001) %MON time_tsnumber                =                 72085
(PID.TID 0000.0001) %MON time_secondsf                =   1.8021250000000E+06
(PID.TID 0000.0001) %MON dynstat_eta_max              =   8.5773112184058E+00
(PID.TID 0000.0001) %MON dynstat_eta_min              =  -1.6545006500420E+00
(PID.TID 0000.0001) %MON dynstat_eta_mean             =   9.5467154727948E-03
(PID.TID 0000.0001) %MON dynstat_eta_sd               =   6.4649171708321E-01
(PID.TID 0000.0001) %MON dynstat_eta_del2             =   7.8705071760531E-03
(PID.TID 0000.0001) %MON dynstat_uvel_max             =   7.1485353601947E-01
(PID.TID 0000.0001) %MON dynstat_uvel_min             =  -4.1275509828372E-01
(PID.TID 0000.0001) %MON dynstat_uvel_mean            =  -4.4929388277160E-04
(PID.TID 0000.0001) %MON dynstat_uvel_sd              =   1.2525007748445E-02
(PID.TID 0000.0001) %MON dynstat_uvel_del2            =   8.0790373030019E-05
(PID.TID 0000.0001) %MON dynstat_vvel_max             =   6.1147887842501E-01
(PID.TID 0000.0001) %MON dynstat_vvel_min             =  -5.9347626857614E-01
(PID.TID 0000.0001) %MON dynstat_vvel_mean            =  -3.8125537157724E-04
(PID.TID 0000.0001) %MON dynstat_vvel_sd              =   1.3135778706348E-02
(PID.TID 0000.0001) %MON dynstat_vvel_del2            =   1.0633580471202E-04
(PID.TID 0000.0001) %MON dynstat_wvel_max             =   1.0351627380210E-04
(PID.TID 0000.0001) %MON dynstat_wvel_min             =  -8.9511405350065E-04
(PID.TID 0000.0001) %MON dynstat_wvel_mean            =  -1.8097028590068E-07
(PID.TID 0000.0001) %MON dynstat_wvel_sd              =   9.8174040915401E-06
(PID.TID 0000.0001) %MON dynstat_wvel_del2            =   9.5523832855360E-08
(PID.TID 0000.0001) %MON dynstat_theta_max            =   3.0925444374836E+01
(PID.TID 0000.0001) %MON dynstat_theta_min            =  -3.0174811622426E+00
(PID.TID 0000.0001) %MON dynstat_theta_mean           =   3.9089438162066E+00
(PID.TID 0000.0001) %MON dynstat_theta_sd             =   4.5706084349646E+00
(PID.TID 0000.0001) %MON dynstat_theta_del2           =   2.6548787173608E-03
(PID.TID 0000.0001) %MON dynstat_salt_max             =   4.1377182818588E+01
(PID.TID 0000.0001) %MON dynstat_salt_min             =   1.8518404075878E+01
(PID.TID 0000.0001) %MON dynstat_salt_mean            =   3.4772192274159E+01
(PID.TID 0000.0001) %MON dynstat_salt_sd              =   5.3093868200076E-01
(PID.TID 0000.0001) %MON dynstat_salt_del2            =   8.0320809348745E-04
(PID.TID 0000.0001) %MON dynstat_sst_max              =   3.0925444374836E+01
(PID.TID 0000.0001) %MON dynstat_sst_min              =  -1.8999106899874E+00
(PID.TID 0000.0001) %MON dynstat_sst_mean             =   1.8099758486273E+01
(PID.TID 0000.0001) %MON dynstat_sst_sd               =   9.7998822527552E+00
(PID.TID 0000.0001) %MON dynstat_sst_del2             =   1.5334767224930E-02
(PID.TID 0000.0001) %MON dynstat_sss_max              =   4.1377182818588E+01
(PID.TID 0000.0001) %MON dynstat_sss_min              =   1.8751377406656E+01
(PID.TID 0000.0001) %MON dynstat_sss_mean             =   3.4641563420918E+01
(PID.TID 0000.0001) %MON dynstat_sss_sd               =   1.4572108385414E+00
(PID.TID 0000.0001) %MON dynstat_sss_del2             =   8.0197363988235E-03
(PID.TID 0000.0001) %MON forcing_qnet_max             =   3.9224152343750E+04
(PID.TID 0000.0001) %MON forcing_qnet_min             =  -1.0288088867188E+04
(PID.TID 0000.0001) %MON forcing_qnet_mean            =  -2.0721282421063E+02
(PID.TID 0000.0001) %MON forcing_qnet_sd              =   1.2139579692209E+03
(PID.TID 0000.0001) %MON forcing_qnet_del2            =   3.9801047293002E+01
(PID.TID 0000.0001) %MON forcing_qsw_max              =   0.0000000000000E+00
(PID.TID 0000.0001) %MON forcing_qsw_min              =   0.0000000000000E+00
(PID.TID 0000.0001) %MON forcing_qsw_mean             =   0.0000000000000E+00
(PID.TID 0000.0001) %MON forcing_qsw_sd               =   0.0000000000000E+00
(PID.TID 0000.0001) %MON forcing_qsw_del2             =   0.0000000000000E+00
(PID.TID 0000.0001) %MON forcing_empmr_max            =   8.3035826683044E-02
(PID.TID 0000.0001) %MON forcing_empmr_min            =  -7.1704518795013E-01
(PID.TID 0000.0001) %MON forcing_empmr_mean           =  -6.7776692197041E-04
(PID.TID 0000.0001) %MON forcing_empmr_sd             =   1.3475552102545E-02
(PID.TID 0000.0001) %MON forcing_empmr_del2           =   5.3043467386882E-04
(PID.TID 0000.0001) %MON forcing_fu_max               =   5.4801289228757E-01
(PID.TID 0000.0001) %MON forcing_fu_min               =  -4.4641799185092E-01
(PID.TID 0000.0001) %MON forcing_fu_mean              =  -4.1255168011747E-03
(PID.TID 0000.0001) %MON forcing_fu_sd                =   6.8509574629944E-02
(PID.TID 0000.0001) %MON forcing_fu_del2              =   6.7687679415252E-04
(PID.TID 0000.0001) %MON forcing_fv_max               =   3.0914867831684E-01
(PID.TID 0000.0001) %MON forcing_fv_min               =  -3.4788516937630E-01
(PID.TID 0000.0001) %MON forcing_fv_mean              =  -1.3332087099671E-02
(PID.TID 0000.0001) %MON forcing_fv_sd                =   6.5600041909167E-02
(PID.TID 0000.0001) %MON forcing_fv_del2              =   5.4726463157888E-04
(PID.TID 0000.0001) %MON trAdv_CFL_u_max              =   6.1878056315547E-05
(PID.TID 0000.0001) %MON trAdv_CFL_v_max              =   9.7548379273230E-05
(PID.TID 0000.0001) %MON trAdv_CFL_w_max              =   3.1538782829732E-04
(PID.TID 0000.0001) %MON advcfl_uvel_max              =   6.6218603316088E-05
(PID.TID 0000.0001) %MON advcfl_vvel_max              =   5.5429961933358E-05
(PID.TID 0000.0001) %MON advcfl_wvel_max              =   6.9279728304361E-04
(PID.TID 0000.0001) %MON advcfl_W_hf_max              =   3.1538782829732E-04
(PID.TID 0000.0001) %MON pe_b_mean                    =   5.5690866094648E-04
(PID.TID 0000.0001) %MON ke_max                       =   2.3315550293333E-01
(PID.TID 0000.0001) %MON ke_mean                      =   1.5227827193472E-04
(PID.TID 0000.0001) %MON ke_vol                       =   1.3398059133286E+18
(PID.TID 0000.0001) %MON vort_r_min                   =  -2.0392857600124E-06
(PID.TID 0000.0001) %MON vort_r_max                   =   2.0945739957264E-06
(PID.TID 0000.0001) %MON vort_a_mean                  =  -2.0549865324846E-05
(PID.TID 0000.0001) %MON vort_a_sd                    =   7.5259522664046E-05
(PID.TID 0000.0001) %MON vort_p_mean                  =  -2.4783423654273E-05
(PID.TID 0000.0001) %MON vort_p_sd                    =   1.2811963157667E-04
(PID.TID 0000.0001) %MON surfExpan_theta_mean         =  -6.0243967620454E-06
(PID.TID 0000.0001) %MON surfExpan_salt_mean          =   6.8922873761198E-07
(PID.TID 0000.0001) // =======================================================
(PID.TID 0000.0001) // End MONITOR dynamic field statistics
(PID.TID 0000.0001) // =======================================================
 cg2d: Sum(rhs),rhsMax =  -4.68835017002799E+00  2.27499892500574E+05
(PID.TID 0000.0001)      cg2d_init_res =   5.26144661332291E-03
(PID.TID 0000.0001)      cg2d_iters(min,last) =      -1       1
(PID.TID 0000.0001)      cg2d_last_res =   5.04258496883360E-08
(PID.TID 0000.0001) // =======================================================
(PID.TID 0000.0001) // Begin MONITOR dynamic field statistics
(PID.TID 0000.0001) // =======================================================
(PID.TID 0000.0001) %MON time_tsnumber                =                 72086
(PID.TID 0000.0001) %MON time_secondsf                =   1.8021500000000E+06
(PID.TID 0000.0001) %MON dynstat_eta_max              =   8.5677316286684E+00
(PID.TID 0000.0001) %MON dynstat_eta_min              =  -1.6520625596488E+00
(PID.TID 0000.0001) %MON dynstat_eta_mean             =   9.5630716325478E-03
(PID.TID 0000.0001) %MON dynstat_eta_sd               =   6.4636588362990E-01
(PID.TID 0000.0001) %MON dynstat_eta_del2             =   7.8535633068903E-03
(PID.TID 0000.0001) %MON dynstat_uvel_max             =   7.2290624339540E-01
(PID.TID 0000.0001) %MON dynstat_uvel_min             =  -4.1563522292575E-01
(PID.TID 0000.0001) %MON dynstat_uvel_mean            =  -4.4864620325361E-04
(PID.TID 0000.0001) %MON dynstat_uvel_sd              =   1.2535234350122E-02
(PID.TID 0000.0001) %MON dynstat_uvel_del2            =   8.1307082910978E-05
(PID.TID 0000.0001) %MON dynstat_vvel_max             =   6.1830865588307E-01
(PID.TID 0000.0001) %MON dynstat_vvel_min             =  -6.0003927166025E-01
(PID.TID 0000.0001) %MON dynstat_vvel_mean            =  -3.8094530365838E-04
(PID.TID 0000.0001) %MON dynstat_vvel_sd              =   1.3145553495715E-02
(PID.TID 0000.0001) %MON dynstat_vvel_del2            =   1.0721479600035E-04
(PID.TID 0000.0001) %MON dynstat_wvel_max             =   1.0352134776472E-04
(PID.TID 0000.0001) %MON dynstat_wvel_min             =  -9.0158888148462E-04
(PID.TID 0000.0001) %MON dynstat_wvel_mean            =  -1.8277181960976E-07
(PID.TID 0000.0001) %MON dynstat_wvel_sd              =   9.8721204457094E-06
(PID.TID 0000.0001) %MON dynstat_wvel_del2            =   9.5780815292820E-08
(PID.TID 0000.0001) %MON dynstat_theta_max            =   3.0925438352610E+01
(PID.TID 0000.0001) %MON dynstat_theta_min            =  -3.0174717826618E+00
(PID.TID 0000.0001) %MON dynstat_theta_mean           =   3.9089442330961E+00
(PID.TID 0000.0001) %MON dynstat_theta_sd             =   4.5706097457263E+00
(PID.TID 0000.0001) %MON dynstat_theta_del2           =   2.6548647197451E-03
(PID.TID 0000.0001) %MON dynstat_salt_max             =   4.1377173578353E+01
(PID.TID 0000.0001) %MON dynstat_salt_min             =   1.8518404342936E+01
(PID.TID 0000.0001) %MON dynstat_salt_mean            =   3.4772192058562E+01
(PID.TID 0000.0001) %MON dynstat_salt_sd              =   5.3093903946682E-01
(PID.TID 0000.0001) %MON dynstat_salt_del2            =   8.0323749300871E-04
(PID.TID 0000.0001) %MON dynstat_sst_max              =   3.0925438352610E+01
(PID.TID 0000.0001) %MON dynstat_sst_min              =  -1.8999096250540E+00
(PID.TID 0000.0001) %MON dynstat_sst_mean             =   1.8099784659698E+01
(PID.TID 0000.0001) %MON dynstat_sst_sd               =   9.7998847904983E+00
(PID.TID 0000.0001) %MON dynstat_sst_del2             =   1.5334408427405E-02
(PID.TID 0000.0001) %MON dynstat_sss_max              =   4.1377173578353E+01
(PID.TID 0000.0001) %MON dynstat_sss_min              =   1.8751376363106E+01
(PID.TID 0000.0001) %MON dynstat_sss_mean             =   3.4641548123139E+01
(PID.TID 0000.0001) %MON dynstat_sss_sd               =   1.4572189505518E+00
(PID.TID 0000.0001) %MON dynstat_sss_del2             =   8.0202004673099E-03
(PID.TID 0000.0001) %MON forcing_qnet_max             =   3.8230738281250E+04
(PID.TID 0000.0001) %MON forcing_qnet_min             =  -9.9991933593750E+03
(PID.TID 0000.0001) %MON forcing_qnet_mean            =  -2.0509903131140E+02
(PID.TID 0000.0001) %MON forcing_qnet_sd              =   1.1885572946540E+03
(PID.TID 0000.0001) %MON forcing_qnet_del2            =   3.8964560335418E+01
(PID.TID 0000.0001) %MON forcing_qsw_max              =   0.0000000000000E+00
(PID.TID 0000.0001) %MON forcing_qsw_min              =   0.0000000000000E+00
(PID.TID 0000.0001) %MON forcing_qsw_mean             =   0.0000000000000E+00
(PID.TID 0000.0001) %MON forcing_qsw_sd               =   0.0000000000000E+00
(PID.TID 0000.0001) %MON forcing_qsw_del2             =   0.0000000000000E+00
(PID.TID 0000.0001) %MON forcing_empmr_max            =   8.1561677157879E-02
(PID.TID 0000.0001) %MON forcing_empmr_min            =  -7.1519726514816E-01
(PID.TID 0000.0001) %MON forcing_empmr_mean           =  -6.7714501378954E-04
(PID.TID 0000.0001) %MON forcing_empmr_sd             =   1.3448653728243E-02
(PID.TID 0000.0001) %MON forcing_empmr_del2           =   5.2940573367510E-04
(PID.TID 0000.0001) %MON forcing_fu_max               =   5.4801289228757E-01
(PID.TID 0000.0001) %MON forcing_fu_min               =  -4.4641799185092E-01
(PID.TID 0000.0001) %MON forcing_fu_mean              =  -4.1255168011747E-03
(PID.TID 0000.0001) %MON forcing_fu_sd                =   6.8509574629944E-02
(PID.TID 0000.0001) %MON forcing_fu_del2              =   6.7687679415252E-04
(PID.TID 0000.0001) %MON forcing_fv_max               =   3.0914867831684E-01
(PID.TID 0000.0001) %MON forcing_fv_min               =  -3.4788516937630E-01
(PID.TID 0000.0001) %MON forcing_fv_mean              =  -1.3332087099671E-02
(PID.TID 0000.0001) %MON forcing_fv_sd                =   6.5600041909167E-02
(PID.TID 0000.0001) %MON forcing_fv_del2              =   5.4726463157888E-04
(PID.TID 0000.0001) %MON trAdv_CFL_u_max              =   6.2581582013950E-05
(PID.TID 0000.0001) %MON trAdv_CFL_v_max              =   9.8619503657274E-05
(PID.TID 0000.0001) %MON trAdv_CFL_w_max              =   3.1442287000526E-04
(PID.TID 0000.0001) %MON advcfl_uvel_max              =   6.6964544978931E-05
(PID.TID 0000.0001) %MON advcfl_vvel_max              =   5.6049074576282E-05
(PID.TID 0000.0001) %MON advcfl_wvel_max              =   6.9101185038470E-04
(PID.TID 0000.0001) %MON advcfl_W_hf_max              =   3.1442287000526E-04
(PID.TID 0000.0001) %MON pe_b_mean                    =   5.5669234928987E-04
(PID.TID 0000.0001) %MON ke_max                       =   2.3796763222774E-01
(PID.TID 0000.0001) %MON ke_mean                      =   1.5251478354982E-04
(PID.TID 0000.0001) %MON ke_vol                       =   1.3398059192859E+18
(PID.TID 0000.0001) %MON vort_r_min                   =  -2.0619439532160E-06
(PID.TID 0000.0001) %MON vort_r_max                   =   2.1179501383360E-06
(PID.TID 0000.0001) %MON vort_a_mean                  =  -2.0549865324846E-05
(PID.TID 0000.0001) %MON vort_a_sd                    =   7.5259522758142E-05
(PID.TID 0000.0001) %MON vort_p_mean                  =  -2.4783423522335E-05
(PID.TID 0000.0001) %MON vort_p_sd                    =   1.2811963009875E-04
(PID.TID 0000.0001) %MON surfExpan_theta_mean         =  -6.0400344582329E-06
(PID.TID 0000.0001) %MON surfExpan_salt_mean          =   6.9189731123768E-07
(PID.TID 0000.0001) // =======================================================
(PID.TID 0000.0001) // End MONITOR dynamic field statistics
(PID.TID 0000.0001) // =======================================================
 cg2d: Sum(rhs),rhsMax =  -4.70075762780277E+00  2.27287149226087E+05
(PID.TID 0000.0001)      cg2d_init_res =   5.29416115179450E-03
(PID.TID 0000.0001)      cg2d_iters(min,last) =      -1       1
(PID.TID 0000.0001)      cg2d_last_res =   5.07633202659651E-08
(PID.TID 0000.0001) // =======================================================
(PID.TID 0000.0001) // Begin MONITOR dynamic field statistics
(PID.TID 0000.0001) // =======================================================
(PID.TID 0000.0001) %MON time_tsnumber                =                 72087
(PID.TID 0000.0001) %MON time_secondsf                =   1.8021750000000E+06
(PID.TID 0000.0001) %MON dynstat_eta_max              =   8.5580449994052E+00
(PID.TID 0000.0001) %MON dynstat_eta_min              =  -1.6496065208051E+00
(PID.TID 0000.0001) %MON dynstat_eta_mean             =   9.5794133329848E-03
(PID.TID 0000.0001) %MON dynstat_eta_sd               =   6.4623943568091E-01
(PID.TID 0000.0001) %MON dynstat_eta_del2             =   7.8365079041764E-03
(PID.TID 0000.0001) %MON dynstat_uvel_max             =   7.3094813895761E-01
(PID.TID 0000.0001) %MON dynstat_uvel_min             =  -4.1851114817934E-01
(PID.TID 0000.0001) %MON dynstat_uvel_mean            =  -4.4799397568204E-04
(PID.TID 0000.0001) %MON dynstat_uvel_sd              =   1.2545502426183E-02
(PID.TID 0000.0001) %MON dynstat_uvel_del2            =   8.1824033487156E-05
(PID.TID 0000.0001) %MON dynstat_vvel_max             =   6.2511852506533E-01
(PID.TID 0000.0001) %MON dynstat_vvel_min             =  -6.0659304828804E-01
(PID.TID 0000.0001) %MON dynstat_vvel_mean            =  -3.8063526932456E-04
(PID.TID 0000.0001) %MON dynstat_vvel_sd              =   1.3155348363042E-02
(PID.TID 0000.0001) %MON dynstat_vvel_del2            =   1.0809178852334E-04
(PID.TID 0000.0001) %MON dynstat_wvel_max             =   1.0352643862649E-04
(PID.TID 0000.0001) %MON dynstat_wvel_min             =  -9.0794526229690E-04
(PID.TID 0000.0001) %MON dynstat_wvel_mean            =  -1.8454358940399E-07
(PID.TID 0000.0001) %MON dynstat_wvel_sd              =   9.9262226360528E-06
(PID.TID 0000.0001) %MON dynstat_wvel_del2            =   9.6036550659089E-08
(PID.TID 0000.0001) %MON dynstat_theta_max            =   3.0925432331103E+01
(PID.TID 0000.0001) %MON dynstat_theta_min            =  -3.0174621371504E+00
(PID.TID 0000.0001) %MON dynstat_theta_mean           =   3.9089446463694E+00
(PID.TID 0000.0001) %MON dynstat_theta_sd             =   4.5706110506046E+00
(PID.TID 0000.0001) %MON dynstat_theta_del2           =   2.6548509787315E-03
(PID.TID 0000.0001) %MON dynstat_salt_max             =   4.1377164232764E+01
(PID.TID 0000.0001) %MON dynstat_salt_min             =   1.8518404610026E+01
(PID.TID 0000.0001) %MON dynstat_salt_mean            =   3.4772191843417E+01
(PID.TID 0000.0001) %MON dynstat_salt_sd              =   5.3093939821225E-01
(PID.TID 0000.0001) %MON dynstat_salt_del2            =   8.0326731931921E-04
(PID.TID 0000.0001) %MON dynstat_sst_max              =   3.0925432331103E+01
(PID.TID 0000.0001) %MON dynstat_sst_min              =  -1.8999085590745E+00
(PID.TID 0000.0001) %MON dynstat_sst_mean             =   1.8099810513684E+01
(PID.TID 0000.0001) %MON dynstat_sst_sd               =   9.7998875310866E+00
(PID.TID 0000.0001) %MON dynstat_sst_del2             =   1.5334055997831E-02
(PID.TID 0000.0001) %MON dynstat_sss_max              =   4.1377164232764E+01
(PID.TID 0000.0001) %MON dynstat_sss_min              =   1.8751375460258E+01
(PID.TID 0000.0001) %MON dynstat_sss_mean             =   3.4641532848982E+01
(PID.TID 0000.0001) %MON dynstat_sss_sd               =   1.4572270930259E+00
(PID.TID 0000.0001) %MON dynstat_sss_del2             =   8.0206710191434E-03
(PID.TID 0000.0001) %MON forcing_qnet_max             =   3.7255058593750E+04
(PID.TID 0000.0001) %MON forcing_qnet_min             =  -9.8237783203125E+03
(PID.TID 0000.0001) %MON forcing_qnet_mean            =  -2.0292709201488E+02
(PID.TID 0000.0001) %MON forcing_qnet_sd              =   1.1644045711583E+03
(PID.TID 0000.0001) %MON forcing_qnet_del2            =   3.8163669058995E+01
(PID.TID 0000.0001) %MON forcing_qsw_max              =   0.0000000000000E+00
(PID.TID 0000.0001) %MON forcing_qsw_min              =   0.0000000000000E+00
(PID.TID 0000.0001) %MON forcing_qsw_mean             =   0.0000000000000E+00
(PID.TID 0000.0001) %MON forcing_qsw_sd               =   0.0000000000000E+00
(PID.TID 0000.0001) %MON forcing_qsw_del2             =   0.0000000000000E+00
(PID.TID 0000.0001) %MON forcing_empmr_max            =   8.0115720629692E-02
(PID.TID 0000.0001) %MON forcing_empmr_min            =  -7.1336895227432E-01
(PID.TID 0000.0001) %MON forcing_empmr_mean           =  -6.7654639808786E-04
(PID.TID 0000.0001) %MON forcing_empmr_sd             =   1.3422653445065E-02
(PID.TID 0000.0001) %MON forcing_empmr_del2           =   5.2841464054147E-04
(PID.TID 0000.0001) %MON forcing_fu_max               =   5.4801289228757E-01
(PID.TID 0000.0001) %MON forcing_fu_min               =  -4.4641799185092E-01
(PID.TID 0000.0001) %MON forcing_fu_mean              =  -4.1255168011747E-03
(PID.TID 0000.0001) %MON forcing_fu_sd                =   6.8509574629944E-02
(PID.TID 0000.0001) %MON forcing_fu_del2              =   6.7687679415252E-04
(PID.TID 0000.0001) %MON forcing_fv_max               =   3.0914867831684E-01
(PID.TID 0000.0001) %MON forcing_fv_min               =  -3.4788516937630E-01
(PID.TID 0000.0001) %MON forcing_fv_mean              =  -1.3332087099671E-02
(PID.TID 0000.0001) %MON forcing_fv_sd                =   6.5600041909167E-02
(PID.TID 0000.0001) %MON forcing_fv_del2              =   5.4726463157888E-04
(PID.TID 0000.0001) %MON trAdv_CFL_u_max              =   6.3284381841368E-05
(PID.TID 0000.0001) %MON trAdv_CFL_v_max              =   9.9686093215051E-05
(PID.TID 0000.0001) %MON trAdv_CFL_w_max              =   3.1346617546478E-04
(PID.TID 0000.0001) %MON advcfl_uvel_max              =   6.7709485117450E-05
(PID.TID 0000.0001) %MON advcfl_vvel_max              =   5.6666382553487E-05
(PID.TID 0000.0001) %MON advcfl_wvel_max              =   6.8924536451625E-04
(PID.TID 0000.0001) %MON advcfl_W_hf_max              =   3.1346617546478E-04
(PID.TID 0000.0001) %MON pe_b_mean                    =   5.5647502211973E-04
(PID.TID 0000.0001) %MON ke_max                       =   2.4280976387056E-01
(PID.TID 0000.0001) %MON ke_mean                      =   1.5275220191183E-04
(PID.TID 0000.0001) %MON ke_vol                       =   1.3398059252377E+18
(PID.TID 0000.0001) %MON vort_r_min                   =  -2.0867094649819E-06
(PID.TID 0000.0001) %MON vort_r_max                   =   2.1412491251922E-06
(PID.TID 0000.0001) %MON vort_a_mean                  =  -2.0549865324846E-05
(PID.TID 0000.0001) %MON vort_a_sd                    =   7.5259522852487E-05
(PID.TID 0000.0001) %MON vort_p_mean                  =  -2.4783423390131E-05
(PID.TID 0000.0001) %MON vort_p_sd                    =   1.2811962861602E-04
(PID.TID 0000.0001) %MON surfExpan_theta_mean         =  -6.0556426942858E-06
(PID.TID 0000.0001) %MON surfExpan_salt_mean          =   6.9466433939837E-07
(PID.TID 0000.0001) // =======================================================
(PID.TID 0000.0001) // End MONITOR dynamic field statistics
(PID.TID 0000.0001) // =======================================================
 cg2d: Sum(rhs),rhsMax =  -4.71322987495765E+00  2.27072050950087E+05
(PID.TID 0000.0001)      cg2d_init_res =   5.32660762790366E-03
(PID.TID 0000.0001)      cg2d_iters(min,last) =      -1       1
(PID.TID 0000.0001)      cg2d_last_res =   5.10939856614198E-08
(PID.TID 0000.0001) // =======================================================
(PID.TID 0000.0001) // Begin MONITOR dynamic field statistics
(PID.TID 0000.0001) // =======================================================
(PID.TID 0000.0001) %MON time_tsnumber                =                 72088
(PID.TID 0000.0001) %MON time_secondsf                =   1.8022000000000E+06
(PID.TID 0000.0001) %MON dynstat_eta_max              =   8.5482515772240E+00
(PID.TID 0000.0001) %MON dynstat_eta_min              =  -1.6471329345992E+00
(PID.TID 0000.0001) %MON dynstat_eta_mean             =   9.5957400884444E-03
(PID.TID 0000.0001) %MON dynstat_eta_sd               =   6.4611239742629E-01
(PID.TID 0000.0001) %MON dynstat_eta_del2             =   7.8193423321100E-03
(PID.TID 0000.0001) %MON dynstat_uvel_max             =   7.3897904860653E-01
(PID.TID 0000.0001) %MON dynstat_uvel_min             =  -4.2138284762096E-01
(PID.TID 0000.0001) %MON dynstat_uvel_mean            =  -4.4733721249166E-04
(PID.TID 0000.0001) %MON dynstat_uvel_sd              =   1.2555810115976E-02
(PID.TID 0000.0001) %MON dynstat_uvel_del2            =   8.2341160583811E-05
(PID.TID 0000.0001) %MON dynstat_vvel_max             =   6.3190839811390E-01
(PID.TID 0000.0001) %MON dynstat_vvel_min             =  -6.1313749785144E-01
(PID.TID 0000.0001) %MON dynstat_vvel_mean            =  -3.8032533209417E-04
(PID.TID 0000.0001) %MON dynstat_vvel_sd              =   1.3165161199341E-02
(PID.TID 0000.0001) %MON dynstat_vvel_del2            =   1.0896669322759E-04
(PID.TID 0000.0001) %MON dynstat_wvel_max             =   1.0353154639643E-04
(PID.TID 0000.0001) %MON dynstat_wvel_min             =  -9.1418339163822E-04
(PID.TID 0000.0001) %MON dynstat_wvel_mean            =  -1.8630906412759E-07
(PID.TID 0000.0001) %MON dynstat_wvel_sd              =   9.9796218427571E-06
(PID.TID 0000.0001) %MON dynstat_wvel_del2            =   9.6287149777773E-08
(PID.TID 0000.0001) %MON dynstat_theta_max            =   3.0925426310314E+01
(PID.TID 0000.0001) %MON dynstat_theta_min            =  -3.0174522248231E+00
(PID.TID 0000.0001) %MON dynstat_theta_mean           =   3.9089450557011E+00
(PID.TID 0000.0001) %MON dynstat_theta_sd             =   4.5706123473969E+00
(PID.TID 0000.0001) %MON dynstat_theta_del2           =   2.6548374733100E-03
(PID.TID 0000.0001) %MON dynstat_salt_max             =   4.1377154782015E+01
(PID.TID 0000.0001) %MON dynstat_salt_min             =   1.8518404877147E+01
(PID.TID 0000.0001) %MON dynstat_salt_mean            =   3.4772191628726E+01
(PID.TID 0000.0001) %MON dynstat_salt_sd              =   5.3093975814368E-01
(PID.TID 0000.0001) %MON dynstat_salt_del2            =   8.0329757808748E-04
(PID.TID 0000.0001) %MON dynstat_sst_max              =   3.0925426310314E+01
(PID.TID 0000.0001) %MON dynstat_sst_min              =  -1.8999074920345E+00
(PID.TID 0000.0001) %MON dynstat_sst_mean             =   1.8099836027950E+01
(PID.TID 0000.0001) %MON dynstat_sst_sd               =   9.7998904341139E+00
(PID.TID 0000.0001) %MON dynstat_sst_del2             =   1.5333709491548E-02
(PID.TID 0000.0001) %MON dynstat_sss_max              =   4.1377154782015E+01
(PID.TID 0000.0001) %MON dynstat_sss_min              =   1.8751374680395E+01
(PID.TID 0000.0001) %MON dynstat_sss_mean             =   3.4641517599576E+01
(PID.TID 0000.0001) %MON dynstat_sss_sd               =   1.4572352641386E+00
(PID.TID 0000.0001) %MON dynstat_sss_del2             =   8.0211481748803E-03
(PID.TID 0000.0001) %MON forcing_qnet_max             =   3.6314855468750E+04
(PID.TID 0000.0001) %MON forcing_qnet_min             =  -9.6581093750000E+03
(PID.TID 0000.0001) %MON forcing_qnet_mean            =  -2.0055686409823E+02
(PID.TID 0000.0001) %MON forcing_qnet_sd              =   1.1415391967252E+03
(PID.TID 0000.0001) %MON forcing_qnet_del2            =   3.7398175942314E+01
(PID.TID 0000.0001) %MON forcing_qsw_max              =   0.0000000000000E+00
(PID.TID 0000.0001) %MON forcing_qsw_min              =   0.0000000000000E+00
(PID.TID 0000.0001) %MON forcing_qsw_mean             =   0.0000000000000E+00
(PID.TID 0000.0001) %MON forcing_qsw_sd               =   0.0000000000000E+00
(PID.TID 0000.0001) %MON forcing_qsw_del2             =   0.0000000000000E+00
(PID.TID 0000.0001) %MON forcing_empmr_max            =   7.8693933784962E-02
(PID.TID 0000.0001) %MON forcing_empmr_min            =  -7.1154063940048E-01
(PID.TID 0000.0001) %MON forcing_empmr_mean           =  -6.7592767602244E-04
(PID.TID 0000.0001) %MON forcing_empmr_sd             =   1.3396431675505E-02
(PID.TID 0000.0001) %MON forcing_empmr_del2           =   5.2741078269475E-04
(PID.TID 0000.0001) %MON forcing_fu_max               =   5.4801289228757E-01
(PID.TID 0000.0001) %MON forcing_fu_min               =  -4.4641799185092E-01
(PID.TID 0000.0001) %MON forcing_fu_mean              =  -4.1255168011747E-03
(PID.TID 0000.0001) %MON forcing_fu_sd                =   6.8509574629944E-02
(PID.TID 0000.0001) %MON forcing_fu_del2              =   6.7687679415252E-04
(PID.TID 0000.0001) %MON forcing_fv_max               =   3.0914867831684E-01
(PID.TID 0000.0001) %MON forcing_fv_min               =  -3.4788516937630E-01
(PID.TID 0000.0001) %MON forcing_fv_mean              =  -1.3332087099671E-02
(PID.TID 0000.0001) %MON forcing_fv_sd                =   6.5600041909167E-02
(PID.TID 0000.0001) %MON forcing_fv_del2              =   5.4726463157888E-04
(PID.TID 0000.0001) %MON trAdv_CFL_u_max              =   6.3986442170400E-05
(PID.TID 0000.0001) %MON trAdv_CFL_v_max              =   1.0074811885688E-04
(PID.TID 0000.0001) %MON trAdv_CFL_w_max              =   3.1250900755676E-04
(PID.TID 0000.0001) %MON advcfl_uvel_max              =   6.8453407604385E-05
(PID.TID 0000.0001) %MON advcfl_vvel_max              =   5.7281877900740E-05
(PID.TID 0000.0001) %MON advcfl_wvel_max              =   6.8747887864781E-04
(PID.TID 0000.0001) %MON advcfl_W_hf_max              =   3.1250900755676E-04
(PID.TID 0000.0001) %MON pe_b_mean                    =   5.5625672168540E-04
(PID.TID 0000.0001) %MON ke_max                       =   2.4768116802780E-01
(PID.TID 0000.0001) %MON ke_mean                      =   1.5299048156227E-04
(PID.TID 0000.0001) %MON ke_vol                       =   1.3398059311842E+18
(PID.TID 0000.0001) %MON vort_r_min                   =  -2.1114033922289E-06
(PID.TID 0000.0001) %MON vort_r_max                   =   2.1644707152003E-06
(PID.TID 0000.0001) %MON vort_a_mean                  =  -2.0549865324846E-05
(PID.TID 0000.0001) %MON vort_a_sd                    =   7.5259522947059E-05
(PID.TID 0000.0001) %MON vort_p_mean                  =  -2.4783423257661E-05
(PID.TID 0000.0001) %MON vort_p_sd                    =   1.2811962712829E-04
(PID.TID 0000.0001) %MON surfExpan_theta_mean         =  -6.0706829938493E-06
(PID.TID 0000.0001) %MON surfExpan_salt_mean          =   6.9759714033251E-07
(PID.TID 0000.0001) // =======================================================
(PID.TID 0000.0001) // End MONITOR dynamic field statistics
(PID.TID 0000.0001) // =======================================================
 cg2d: Sum(rhs),rhsMax =  -4.72576584948615E+00  2.26854602540134E+05
(PID.TID 0000.0001)      cg2d_init_res =   5.35878514819135E-03
(PID.TID 0000.0001)      cg2d_iters(min,last) =      -1       1
(PID.TID 0000.0001)      cg2d_last_res =   5.14179073622759E-08
(PID.TID 0000.0001) // =======================================================
(PID.TID 0000.0001) // Begin MONITOR dynamic field statistics
(PID.TID 0000.0001) // =======================================================
(PID.TID 0000.0001) %MON time_tsnumber                =                 72089
(PID.TID 0000.0001) %MON time_secondsf                =   1.8022250000000E+06
(PID.TID 0000.0001) %MON dynstat_eta_max              =   8.5383516108134E+00
(PID.TID 0000.0001) %MON dynstat_eta_min              =  -1.6446420482674E+00
(PID.TID 0000.0001) %MON dynstat_eta_mean             =   9.6120487801857E-03
(PID.TID 0000.0001) %MON dynstat_eta_sd               =   6.4598479310681E-01
(PID.TID 0000.0001) %MON dynstat_eta_del2             =   7.8020679357290E-03
(PID.TID 0000.0001) %MON dynstat_uvel_max             =   7.4699879920175E-01
(PID.TID 0000.0001) %MON dynstat_uvel_min             =  -4.2425029489574E-01
(PID.TID 0000.0001) %MON dynstat_uvel_mean            =  -4.4667592728653E-04
(PID.TID 0000.0001) %MON dynstat_uvel_sd              =   1.2566155575533E-02
(PID.TID 0000.0001) %MON dynstat_uvel_del2            =   8.2858401729259E-05
(PID.TID 0000.0001) %MON dynstat_vvel_max             =   6.3867818817222E-01
(PID.TID 0000.0001) %MON dynstat_vvel_min             =  -6.1967251992909E-01
(PID.TID 0000.0001) %MON dynstat_vvel_mean            =  -3.8001555551710E-04
(PID.TID 0000.0001) %MON dynstat_vvel_sd              =   1.3174989928361E-02
(PID.TID 0000.0001) %MON dynstat_vvel_del2            =   1.0983942422826E-04
(PID.TID 0000.0001) %MON dynstat_wvel_max             =   1.0353667108513E-04
(PID.TID 0000.0001) %MON dynstat_wvel_min             =  -9.2030347887900E-04
(PID.TID 0000.0001) %MON dynstat_wvel_mean            =  -1.8805253182441E-07
(PID.TID 0000.0001) %MON dynstat_wvel_sd              =   1.0032304839182E-05
(PID.TID 0000.0001) %MON dynstat_wvel_del2            =   9.6533177136632E-08
(PID.TID 0000.0001) %MON dynstat_theta_max            =   3.0925420290243E+01
(PID.TID 0000.0001) %MON dynstat_theta_min            =  -3.0174420448535E+00
(PID.TID 0000.0001) %MON dynstat_theta_mean           =   3.9089454609312E+00
(PID.TID 0000.0001) %MON dynstat_theta_sd             =   4.5706136350379E+00
(PID.TID 0000.0001) %MON dynstat_theta_del2           =   2.6548241583359E-03
(PID.TID 0000.0001) %MON dynstat_salt_max             =   4.1377145226302E+01
(PID.TID 0000.0001) %MON dynstat_salt_min             =   1.8518405144298E+01
(PID.TID 0000.0001) %MON dynstat_salt_mean            =   3.4772191414443E+01
(PID.TID 0000.0001) %MON dynstat_salt_sd              =   5.3094011923636E-01
(PID.TID 0000.0001) %MON dynstat_salt_del2            =   8.0332825534145E-04
(PID.TID 0000.0001) %MON dynstat_sst_max              =   3.0925420290243E+01
(PID.TID 0000.0001) %MON dynstat_sst_min              =  -1.8999064239214E+00
(PID.TID 0000.0001) %MON dynstat_sst_mean             =   1.8099861194060E+01
(PID.TID 0000.0001) %MON dynstat_sst_sd               =   9.7998934804177E+00
(PID.TID 0000.0001) %MON dynstat_sst_del2             =   1.5333367790078E-02
(PID.TID 0000.0001) %MON dynstat_sss_max              =   4.1377145226302E+01
(PID.TID 0000.0001) %MON dynstat_sss_min              =   1.8751374008030E+01
(PID.TID 0000.0001) %MON dynstat_sss_mean             =   3.4641502372137E+01
(PID.TID 0000.0001) %MON dynstat_sss_sd               =   1.4572434636076E+00
(PID.TID 0000.0001) %MON dynstat_sss_del2             =   8.0216317407671E-03
(PID.TID 0000.0001) %MON forcing_qnet_max             =   3.5401261718750E+04
(PID.TID 0000.0001) %MON forcing_qnet_min             =  -9.4826933593750E+03
(PID.TID 0000.0001) %MON forcing_qnet_mean            =  -1.9808859149475E+02
(PID.TID 0000.0001) %MON forcing_qnet_sd              =   1.1197195090846E+03
(PID.TID 0000.0001) %MON forcing_qnet_del2            =   3.6669720405389E+01
(PID.TID 0000.0001) %MON forcing_qsw_max              =   0.0000000000000E+00
(PID.TID 0000.0001) %MON forcing_qsw_min              =   0.0000000000000E+00
(PID.TID 0000.0001) %MON forcing_qsw_mean             =   0.0000000000000E+00
(PID.TID 0000.0001) %MON forcing_qsw_sd               =   0.0000000000000E+00
(PID.TID 0000.0001) %MON forcing_qsw_del2             =   0.0000000000000E+00
(PID.TID 0000.0001) %MON forcing_empmr_max            =   7.7296301722527E-02
(PID.TID 0000.0001) %MON forcing_empmr_min            =  -7.0971232652664E-01
(PID.TID 0000.0001) %MON forcing_empmr_mean           =  -6.7517983808622E-04
(PID.TID 0000.0001) %MON forcing_empmr_sd             =   1.3370073618958E-02
(PID.TID 0000.0001) %MON forcing_empmr_del2           =   5.2640146418995E-04
(PID.TID 0000.0001) %MON forcing_fu_max               =   5.4801289228757E-01
(PID.TID 0000.0001) %MON forcing_fu_min               =  -4.4641799185092E-01
(PID.TID 0000.0001) %MON forcing_fu_mean              =  -4.1255168011747E-03
(PID.TID 0000.0001) %MON forcing_fu_sd                =   6.8509574629944E-02
(PID.TID 0000.0001) %MON forcing_fu_del2              =   6.7687679415252E-04
(PID.TID 0000.0001) %MON forcing_fv_max               =   3.0914867831684E-01
(PID.TID 0000.0001) %MON forcing_fv_min               =  -3.4788516937630E-01
(PID.TID 0000.0001) %MON forcing_fv_mean              =  -1.3332087099671E-02
(PID.TID 0000.0001) %MON forcing_fv_sd                =   6.5600041909167E-02
(PID.TID 0000.0001) %MON forcing_fv_del2              =   5.4726463157888E-04
(PID.TID 0000.0001) %MON trAdv_CFL_u_max              =   6.4687749422918E-05
(PID.TID 0000.0001) %MON trAdv_CFL_v_max              =   1.0180555168103E-04
(PID.TID 0000.0001) %MON trAdv_CFL_w_max              =   3.1155138308312E-04
(PID.TID 0000.0001) %MON advcfl_uvel_max              =   6.9196296401320E-05
(PID.TID 0000.0001) %MON advcfl_vvel_max              =   5.7895552744581E-05
(PID.TID 0000.0001) %MON advcfl_wvel_max              =   6.8571239277936E-04
(PID.TID 0000.0001) %MON advcfl_W_hf_max              =   3.1155138308312E-04
(PID.TID 0000.0001) %MON pe_b_mean                    =   5.5603749022621E-04
(PID.TID 0000.0001) %MON ke_max                       =   2.5258111285951E-01
(PID.TID 0000.0001) %MON ke_mean                      =   1.5322957749398E-04
(PID.TID 0000.0001) %MON ke_vol                       =   1.3398059371253E+18
(PID.TID 0000.0001) %MON vort_r_min                   =  -2.1360251008100E-06
(PID.TID 0000.0001) %MON vort_r_max                   =   2.1876146682831E-06
(PID.TID 0000.0001) %MON vort_a_mean                  =  -2.0549865324846E-05
(PID.TID 0000.0001) %MON vort_a_sd                    =   7.5259523041838E-05
(PID.TID 0000.0001) %MON vort_p_mean                  =  -2.4783423124933E-05
(PID.TID 0000.0001) %MON vort_p_sd                    =   1.2811962563536E-04
(PID.TID 0000.0001) %MON surfExpan_theta_mean         =  -6.0858597429545E-06
(PID.TID 0000.0001) %MON surfExpan_salt_mean          =   7.0020338569104E-07
(PID.TID 0000.0001) // =======================================================
(PID.TID 0000.0001) // End MONITOR dynamic field statistics
(PID.TID 0000.0001) // =======================================================
 cg2d: Sum(rhs),rhsMax =  -4.73836743804166E+00  2.26634808900545E+05
(PID.TID 0000.0001)      cg2d_init_res =   5.39069377003995E-03
(PID.TID 0000.0001)      cg2d_iters(min,last) =      -1       1
(PID.TID 0000.0001)      cg2d_last_res =   5.17350853363934E-08
(PID.TID 0000.0001) // =======================================================
(PID.TID 0000.0001) // Begin MONITOR dynamic field statistics
(PID.TID 0000.0001) // =======================================================
(PID.TID 0000.0001) %MON time_tsnumber                =                 72090
(PID.TID 0000.0001) %MON time_secondsf                =   1.8022500000000E+06
(PID.TID 0000.0001) %MON dynstat_eta_max              =   8.5283453509278E+00
(PID.TID 0000.0001) %MON dynstat_eta_min              =  -1.6421344174618E+00
(PID.TID 0000.0001) %MON dynstat_eta_mean             =   9.6283422850578E-03
(PID.TID 0000.0001) %MON dynstat_eta_sd               =   6.4585664437974E-01
(PID.TID 0000.0001) %MON dynstat_eta_del2             =   7.7846860114080E-03
(PID.TID 0000.0001) %MON dynstat_uvel_max             =   7.5500721856815E-01
(PID.TID 0000.0001) %MON dynstat_uvel_min             =  -4.2711346371392E-01
(PID.TID 0000.0001) %MON dynstat_uvel_mean            =  -4.4601013482242E-04
(PID.TID 0000.0001) %MON dynstat_uvel_sd              =   1.2576536978146E-02
(PID.TID 0000.0001) %MON dynstat_uvel_del2            =   8.3375696092173E-05
(PID.TID 0000.0001) %MON dynstat_vvel_max             =   6.4542780939329E-01
(PID.TID 0000.0001) %MON dynstat_vvel_min             =  -6.2619801428811E-01
(PID.TID 0000.0001) %MON dynstat_vvel_mean            =  -3.7970600332414E-04
(PID.TID 0000.0001) %MON dynstat_vvel_sd              =   1.3184832507197E-02
(PID.TID 0000.0001) %MON dynstat_vvel_del2            =   1.1070989866409E-04
(PID.TID 0000.0001) %MON dynstat_wvel_max             =   1.0354181274558E-04
(PID.TID 0000.0001) %MON dynstat_wvel_min             =  -9.2630574587260E-04
(PID.TID 0000.0001) %MON dynstat_wvel_mean            =  -1.8984577125715E-07
(PID.TID 0000.0001) %MON dynstat_wvel_sd              =   1.0084295535028E-05
(PID.TID 0000.0001) %MON dynstat_wvel_del2            =   9.6775200481240E-08
(PID.TID 0000.0001) %MON dynstat_theta_max            =   3.0925414270887E+01
(PID.TID 0000.0001) %MON dynstat_theta_min            =  -3.0174315964743E+00
(PID.TID 0000.0001) %MON dynstat_theta_mean           =   3.9089458624512E+00
(PID.TID 0000.0001) %MON dynstat_theta_sd             =   4.5706149141451E+00
(PID.TID 0000.0001) %MON dynstat_theta_del2           =   2.6548110332134E-03
(PID.TID 0000.0001) %MON dynstat_salt_max             =   4.1377135666296E+01
(PID.TID 0000.0001) %MON dynstat_salt_min             =   1.8518405411478E+01
(PID.TID 0000.0001) %MON dynstat_salt_mean            =   3.4772191200583E+01
(PID.TID 0000.0001) %MON dynstat_salt_sd              =   5.3094048143450E-01
(PID.TID 0000.0001) %MON dynstat_salt_del2            =   8.0335935194678E-04
(PID.TID 0000.0001) %MON dynstat_sst_max              =   3.0925414270887E+01
(PID.TID 0000.0001) %MON dynstat_sst_min              =  -1.8999053547233E+00
(PID.TID 0000.0001) %MON dynstat_sst_mean             =   1.8099886043790E+01
(PID.TID 0000.0001) %MON dynstat_sst_sd               =   9.7998966497034E+00
(PID.TID 0000.0001) %MON dynstat_sst_del2             =   1.5333030971718E-02
(PID.TID 0000.0001) %MON dynstat_sss_max              =   4.1377135666296E+01
(PID.TID 0000.0001) %MON dynstat_sss_min              =   1.8751373360222E+01
(PID.TID 0000.0001) %MON dynstat_sss_mean             =   3.4641487168506E+01
(PID.TID 0000.0001) %MON dynstat_sss_sd               =   1.4572516903019E+00
(PID.TID 0000.0001) %MON dynstat_sss_del2             =   8.0221217535880E-03
(PID.TID 0000.0001) %MON forcing_qnet_max             =   3.4505406250000E+04
(PID.TID 0000.0001) %MON forcing_qnet_min             =  -9.3170224609375E+03
(PID.TID 0000.0001) %MON forcing_qnet_mean            =  -1.9585714050831E+02
(PID.TID 0000.0001) %MON forcing_qnet_sd              =   1.0989017593398E+03
(PID.TID 0000.0001) %MON forcing_qnet_del2            =   3.5967662764654E+01
(PID.TID 0000.0001) %MON forcing_qsw_max              =   0.0000000000000E+00
(PID.TID 0000.0001) %MON forcing_qsw_min              =   0.0000000000000E+00
(PID.TID 0000.0001) %MON forcing_qsw_mean             =   0.0000000000000E+00
(PID.TID 0000.0001) %MON forcing_qsw_sd               =   0.0000000000000E+00
(PID.TID 0000.0001) %MON forcing_qsw_del2             =   0.0000000000000E+00
(PID.TID 0000.0001) %MON forcing_empmr_max            =   7.5922846794128E-02
(PID.TID 0000.0001) %MON forcing_empmr_min            =  -7.0788413286209E-01
(PID.TID 0000.0001) %MON forcing_empmr_mean           =  -6.7455110169138E-04
(PID.TID 0000.0001) %MON forcing_empmr_sd             =   1.3343648759647E-02
(PID.TID 0000.0001) %MON forcing_empmr_del2           =   5.2538724458372E-04
(PID.TID 0000.0001) %MON forcing_fu_max               =   5.4801289228757E-01
(PID.TID 0000.0001) %MON forcing_fu_min               =  -4.4641799185092E-01
(PID.TID 0000.0001) %MON forcing_fu_mean              =  -4.1255168011747E-03
(PID.TID 0000.0001) %MON forcing_fu_sd                =   6.8509574629944E-02
(PID.TID 0000.0001) %MON forcing_fu_del2              =   6.7687679415252E-04
(PID.TID 0000.0001) %MON forcing_fv_max               =   3.0914867831684E-01
(PID.TID 0000.0001) %MON forcing_fv_min               =  -3.4788516937630E-01
(PID.TID 0000.0001) %MON forcing_fv_mean              =  -1.3332087099671E-02
(PID.TID 0000.0001) %MON forcing_fv_sd                =   6.5600041909167E-02
(PID.TID 0000.0001) %MON forcing_fv_del2              =   5.4726463157888E-04
(PID.TID 0000.0001) %MON trAdv_CFL_u_max              =   6.5388290070467E-05
(PID.TID 0000.0001) %MON trAdv_CFL_v_max              =   1.0285836297504E-04
(PID.TID 0000.0001) %MON trAdv_CFL_w_max              =   3.1059337208626E-04
(PID.TID 0000.0001) %MON advcfl_uvel_max              =   6.9938135559262E-05
(PID.TID 0000.0001) %MON advcfl_vvel_max              =   5.8507399303063E-05
(PID.TID 0000.0001) %MON advcfl_wvel_max              =   6.8394602208898E-04
(PID.TID 0000.0001) %MON advcfl_W_hf_max              =   3.1059337208626E-04
(PID.TID 0000.0001) %MON pe_b_mean                    =   5.5581736565925E-04
(PID.TID 0000.0001) %MON ke_max                       =   2.5750886462608E-01
(PID.TID 0000.0001) %MON ke_mean                      =   1.5346944516644E-04
(PID.TID 0000.0001) %MON ke_vol                       =   1.3398059430598E+18
(PID.TID 0000.0001) %MON vort_r_min                   =  -2.1605739608828E-06
(PID.TID 0000.0001) %MON vort_r_max                   =   2.2106807453837E-06
(PID.TID 0000.0001) %MON vort_a_mean                  =  -2.0549865324846E-05
(PID.TID 0000.0001) %MON vort_a_sd                    =   7.5259523136802E-05
(PID.TID 0000.0001) %MON vort_p_mean                  =  -2.4783422991969E-05
(PID.TID 0000.0001) %MON vort_p_sd                    =   1.2811962413753E-04
(PID.TID 0000.0001) %MON surfExpan_theta_mean         =  -6.1013449545496E-06
(PID.TID 0000.0001) %MON surfExpan_salt_mean          =   7.0308915207865E-07
(PID.TID 0000.0001) // =======================================================
(PID.TID 0000.0001) // End MONITOR dynamic field statistics
(PID.TID 0000.0001) // =======================================================
 cg2d: Sum(rhs),rhsMax =  -4.75103641493541E+00  2.26412674972235E+05
(PID.TID 0000.0001)      cg2d_init_res =   5.42237134482640E-03
(PID.TID 0000.0001)      cg2d_iters(min,last) =      -1       1
(PID.TID 0000.0001)      cg2d_last_res =   5.20456600372565E-08
(PID.TID 0000.0001) // =======================================================
(PID.TID 0000.0001) // Begin MONITOR dynamic field statistics
(PID.TID 0000.0001) // =======================================================
(PID.TID 0000.0001) %MON time_tsnumber                =                 72091
(PID.TID 0000.0001) %MON time_secondsf                =   1.8022750000000E+06
(PID.TID 0000.0001) %MON dynstat_eta_max              =   8.5182330503736E+00
(PID.TID 0000.0001) %MON dynstat_eta_min              =  -1.6396102126645E+00
(PID.TID 0000.0001) %MON dynstat_eta_mean             =   9.6446232325528E-03
(PID.TID 0000.0001) %MON dynstat_eta_sd               =   6.4572797777924E-01
(PID.TID 0000.0001) %MON dynstat_eta_del2             =   7.7671978913385E-03
(PID.TID 0000.0001) %MON dynstat_uvel_max             =   7.6300413550202E-01
(PID.TID 0000.0001) %MON dynstat_uvel_min             =  -4.2997232785392E-01
(PID.TID 0000.0001) %MON dynstat_uvel_mean            =  -4.4533985046634E-04
(PID.TID 0000.0001) %MON dynstat_uvel_sd              =   1.2586952514601E-02
(PID.TID 0000.0001) %MON dynstat_uvel_del2            =   8.3892984429540E-05
(PID.TID 0000.0001) %MON dynstat_vvel_max             =   6.5215717693903E-01
(PID.TID 0000.0001) %MON dynstat_vvel_min             =  -6.3271388088578E-01
(PID.TID 0000.0001) %MON dynstat_vvel_mean            =  -3.7939673943345E-04
(PID.TID 0000.0001) %MON dynstat_vvel_sd              =   1.3194686927214E-02
(PID.TID 0000.0001) %MON dynstat_vvel_del2            =   1.1157803658600E-04
(PID.TID 0000.0001) %MON dynstat_wvel_max             =   1.0354697139613E-04
(PID.TID 0000.0001) %MON dynstat_wvel_min             =  -9.3219042616336E-04
(PID.TID 0000.0001) %MON dynstat_wvel_mean            =  -1.9169167889540E-07
(PID.TID 0000.0001) %MON dynstat_wvel_sd              =   1.0135601663830E-05
(PID.TID 0000.0001) %MON dynstat_wvel_del2            =   9.7013773438478E-08
(PID.TID 0000.0001) %MON dynstat_theta_max            =   3.0925408252245E+01
(PID.TID 0000.0001) %MON dynstat_theta_min            =  -3.0174208789740E+00
(PID.TID 0000.0001) %MON dynstat_theta_mean           =   3.9089462603057E+00
(PID.TID 0000.0001) %MON dynstat_theta_sd             =   4.5706161847619E+00
(PID.TID 0000.0001) %MON dynstat_theta_del2           =   2.6547980784364E-03
(PID.TID 0000.0001) %MON dynstat_salt_max             =   4.1377126001719E+01
(PID.TID 0000.0001) %MON dynstat_salt_min             =   1.8518405678685E+01
(PID.TID 0000.0001) %MON dynstat_salt_mean            =   3.4772190987149E+01
(PID.TID 0000.0001) %MON dynstat_salt_sd              =   5.3094084469894E-01
(PID.TID 0000.0001) %MON dynstat_salt_del2            =   8.0339086345474E-04
(PID.TID 0000.0001) %MON dynstat_sst_max              =   3.0925408252245E+01
(PID.TID 0000.0001) %MON dynstat_sst_min              =  -1.8999042844277E+00
(PID.TID 0000.0001) %MON dynstat_sst_mean             =   1.8099910582170E+01
(PID.TID 0000.0001) %MON dynstat_sst_sd               =   9.7998999389700E+00
(PID.TID 0000.0001) %MON dynstat_sst_del2             =   1.5332698540845E-02
(PID.TID 0000.0001) %MON dynstat_sss_max              =   4.1377126001719E+01
(PID.TID 0000.0001) %MON dynstat_sss_min              =   1.8751372799350E+01
(PID.TID 0000.0001) %MON dynstat_sss_mean             =   3.4641471989442E+01
(PID.TID 0000.0001) %MON dynstat_sss_sd               =   1.4572599432926E+00
(PID.TID 0000.0001) %MON dynstat_sss_del2             =   8.0226181546006E-03
(PID.TID 0000.0001) %MON forcing_qnet_max             =   3.3636156250000E+04
(PID.TID 0000.0001) %MON forcing_qnet_min             =  -9.1610976562500E+03
(PID.TID 0000.0001) %MON forcing_qnet_mean            =  -1.9364415715768E+02
(PID.TID 0000.0001) %MON forcing_qnet_sd              =   1.0789413404838E+03
(PID.TID 0000.0001) %MON forcing_qnet_del2            =   3.5294955018554E+01
(PID.TID 0000.0001) %MON forcing_qsw_max              =   0.0000000000000E+00
(PID.TID 0000.0001) %MON forcing_qsw_min              =   0.0000000000000E+00
(PID.TID 0000.0001) %MON forcing_qsw_mean             =   0.0000000000000E+00
(PID.TID 0000.0001) %MON forcing_qsw_sd               =   0.0000000000000E+00
(PID.TID 0000.0001) %MON forcing_qsw_del2             =   0.0000000000000E+00
(PID.TID 0000.0001) %MON forcing_empmr_max            =   7.4577584862709E-02
(PID.TID 0000.0001) %MON forcing_empmr_min            =  -7.0605581998825E-01
(PID.TID 0000.0001) %MON forcing_empmr_mean           =  -6.7403122631304E-04
(PID.TID 0000.0001) %MON forcing_empmr_sd             =   1.3317601256713E-02
(PID.TID 0000.0001) %MON forcing_empmr_del2           =   5.2438956188595E-04
(PID.TID 0000.0001) %MON forcing_fu_max               =   5.4801289228757E-01
(PID.TID 0000.0001) %MON forcing_fu_min               =  -4.4641799185092E-01
(PID.TID 0000.0001) %MON forcing_fu_mean              =  -4.1255168011747E-03
(PID.TID 0000.0001) %MON forcing_fu_sd                =   6.8509574629944E-02
(PID.TID 0000.0001) %MON forcing_fu_del2              =   6.7687679415252E-04
(PID.TID 0000.0001) %MON forcing_fv_max               =   3.0914867831684E-01
(PID.TID 0000.0001) %MON forcing_fv_min               =  -3.4788516937630E-01
(PID.TID 0000.0001) %MON forcing_fv_mean              =  -1.3332087099671E-02
(PID.TID 0000.0001) %MON forcing_fv_sd                =   6.5600041909167E-02
(PID.TID 0000.0001) %MON forcing_fv_del2              =   5.4726463157888E-04
(PID.TID 0000.0001) %MON trAdv_CFL_u_max              =   6.6088050634662E-05
(PID.TID 0000.0001) %MON trAdv_CFL_v_max              =   1.0390652421619E-04
(PID.TID 0000.0001) %MON trAdv_CFL_w_max              =   3.0963488499967E-04
(PID.TID 0000.0001) %MON advcfl_uvel_max              =   7.0678909219198E-05
(PID.TID 0000.0001) %MON advcfl_vvel_max              =   5.9117409885696E-05
(PID.TID 0000.0001) %MON advcfl_wvel_max              =   6.8217953622053E-04
(PID.TID 0000.0001) %MON advcfl_W_hf_max              =   3.0963488499967E-04
(PID.TID 0000.0001) %MON pe_b_mean                    =   5.5559639425808E-04
(PID.TID 0000.0001) %MON ke_max                       =   2.6246368778854E-01
(PID.TID 0000.0001) %MON ke_mean                      =   1.5371004052108E-04
(PID.TID 0000.0001) %MON ke_vol                       =   1.3398059489888E+18
(PID.TID 0000.0001) %MON vort_r_min                   =  -2.1850493468996E-06
(PID.TID 0000.0001) %MON vort_r_max                   =   2.2336687084973E-06
(PID.TID 0000.0001) %MON vort_a_mean                  =  -2.0549865324846E-05
(PID.TID 0000.0001) %MON vort_a_sd                    =   7.5259523231933E-05
(PID.TID 0000.0001) %MON vort_p_mean                  =  -2.4783422858753E-05
(PID.TID 0000.0001) %MON vort_p_sd                    =   1.2811962263429E-04
(PID.TID 0000.0001) %MON surfExpan_theta_mean         =  -6.1186151580523E-06
(PID.TID 0000.0001) %MON surfExpan_salt_mean          =   7.0598497832286E-07
(PID.TID 0000.0001) // =======================================================
(PID.TID 0000.0001) // End MONITOR dynamic field statistics
(PID.TID 0000.0001) // =======================================================
 cg2d: Sum(rhs),rhsMax =  -4.76377311978754E+00  2.26188205732568E+05
(PID.TID 0000.0001)      cg2d_init_res =   5.45379193715754E-03
(PID.TID 0000.0001)      cg2d_iters(min,last) =      -1       1
(PID.TID 0000.0001)      cg2d_last_res =   5.23492151577533E-08
(PID.TID 0000.0001) // =======================================================
(PID.TID 0000.0001) // Begin MONITOR dynamic field statistics
(PID.TID 0000.0001) // =======================================================
(PID.TID 0000.0001) %MON time_tsnumber                =                 72092
(PID.TID 0000.0001) %MON time_secondsf                =   1.8023000000000E+06
(PID.TID 0000.0001) %MON dynstat_eta_max              =   8.5080149639938E+00
(PID.TID 0000.0001) %MON dynstat_eta_min              =  -1.6370697585324E+00
(PID.TID 0000.0001) %MON dynstat_eta_mean             =   9.6608913238741E-03
(PID.TID 0000.0001) %MON dynstat_eta_sd               =   6.4559881829569E-01
(PID.TID 0000.0001) %MON dynstat_eta_del2             =   7.7496049657050E-03
(PID.TID 0000.0001) %MON dynstat_uvel_max             =   7.7098937977698E-01
(PID.TID 0000.0001) %MON dynstat_uvel_min             =  -4.3282686115883E-01
(PID.TID 0000.0001) %MON dynstat_uvel_mean            =  -4.4466509066082E-04
(PID.TID 0000.0001) %MON dynstat_uvel_sd              =   1.2597400393755E-02
(PID.TID 0000.0001) %MON dynstat_uvel_del2            =   8.4410209047748E-05
(PID.TID 0000.0001) %MON dynstat_vvel_max             =   6.5886620697095E-01
(PID.TID 0000.0001) %MON dynstat_vvel_min             =  -6.3922001987128E-01
(PID.TID 0000.0001) %MON dynstat_vvel_mean            =  -3.7908782795726E-04
(PID.TID 0000.0001) %MON dynstat_vvel_sd              =   1.3204551214527E-02
(PID.TID 0000.0001) %MON dynstat_vvel_del2            =   1.1244376085522E-04
(PID.TID 0000.0001) %MON dynstat_wvel_max             =   1.0355214706138E-04
(PID.TID 0000.0001) %MON dynstat_wvel_min             =  -9.3795776402509E-04
(PID.TID 0000.0001) %MON dynstat_wvel_mean            =  -1.9353249743882E-07
(PID.TID 0000.0001) %MON dynstat_wvel_sd              =   1.0186249647644E-05
(PID.TID 0000.0001) %MON dynstat_wvel_del2            =   9.7250453313862E-08
(PID.TID 0000.0001) %MON dynstat_theta_max            =   3.0925402234318E+01
(PID.TID 0000.0001) %MON dynstat_theta_min            =  -3.0174098917009E+00
(PID.TID 0000.0001) %MON dynstat_theta_mean           =   3.9089466547403E+00
(PID.TID 0000.0001) %MON dynstat_theta_sd             =   4.5706174472978E+00
(PID.TID 0000.0001) %MON dynstat_theta_del2           =   2.6547852665812E-03
(PID.TID 0000.0001) %MON dynstat_salt_max             =   4.1377116132294E+01
(PID.TID 0000.0001) %MON dynstat_salt_min             =   1.8518405945920E+01
(PID.TID 0000.0001) %MON dynstat_salt_mean            =   3.4772190774083E+01
(PID.TID 0000.0001) %MON dynstat_salt_sd              =   5.3094120902446E-01
(PID.TID 0000.0001) %MON dynstat_salt_del2            =   8.0342278937881E-04
(PID.TID 0000.0001) %MON dynstat_sst_max              =   3.0925402234318E+01
(PID.TID 0000.0001) %MON dynstat_sst_min              =  -1.8999032130182E+00
(PID.TID 0000.0001) %MON dynstat_sst_mean             =   1.8099934829653E+01
(PID.TID 0000.0001) %MON dynstat_sst_sd               =   9.7999033364842E+00
(PID.TID 0000.0001) %MON dynstat_sst_del2             =   1.5332369858768E-02
(PID.TID 0000.0001) %MON dynstat_sss_max              =   4.1377116132294E+01
(PID.TID 0000.0001) %MON dynstat_sss_min              =   1.8751372314465E+01
(PID.TID 0000.0001) %MON dynstat_sss_mean             =   3.4641456831144E+01
(PID.TID 0000.0001) %MON dynstat_sss_sd               =   1.4572682228706E+00
(PID.TID 0000.0001) %MON dynstat_sss_del2             =   8.0231209623194E-03
(PID.TID 0000.0001) %MON forcing_qnet_max             =   3.2784644531250E+04
(PID.TID 0000.0001) %MON forcing_qnet_min             =  -8.9954267578125E+03
(PID.TID 0000.0001) %MON forcing_qnet_mean            =  -1.9157650317898E+02
(PID.TID 0000.0001) %MON forcing_qnet_sd              =   1.0597177564839E+03
(PID.TID 0000.0001) %MON forcing_qnet_del2            =   3.4647758139552E+01
(PID.TID 0000.0001) %MON forcing_qsw_max              =   0.0000000000000E+00
(PID.TID 0000.0001) %MON forcing_qsw_min              =   0.0000000000000E+00
(PID.TID 0000.0001) %MON forcing_qsw_mean             =   0.0000000000000E+00
(PID.TID 0000.0001) %MON forcing_qsw_sd               =   0.0000000000000E+00
(PID.TID 0000.0001) %MON forcing_qsw_del2             =   0.0000000000000E+00
(PID.TID 0000.0001) %MON forcing_empmr_max            =   7.3252454400063E-02
(PID.TID 0000.0001) %MON forcing_empmr_min            =  -7.0424717664719E-01
(PID.TID 0000.0001) %MON forcing_empmr_mean           =  -6.7349898069626E-04
(PID.TID 0000.0001) %MON forcing_empmr_sd             =   1.3291988930334E-02
(PID.TID 0000.0001) %MON forcing_empmr_del2           =   5.2341125958655E-04
(PID.TID 0000.0001) %MON forcing_fu_max               =   5.4801289228757E-01
(PID.TID 0000.0001) %MON forcing_fu_min               =  -4.4641799185092E-01
(PID.TID 0000.0001) %MON forcing_fu_mean              =  -4.1255168011747E-03
(PID.TID 0000.0001) %MON forcing_fu_sd                =   6.8509574629944E-02
(PID.TID 0000.0001) %MON forcing_fu_del2              =   6.7687679415252E-04
(PID.TID 0000.0001) %MON forcing_fv_max               =   3.0914867831684E-01
(PID.TID 0000.0001) %MON forcing_fv_min               =  -3.4788516937630E-01
(PID.TID 0000.0001) %MON forcing_fv_mean              =  -1.3332087099671E-02
(PID.TID 0000.0001) %MON forcing_fv_sd                =   6.5600041909167E-02
(PID.TID 0000.0001) %MON forcing_fv_del2              =   5.4726463157888E-04
(PID.TID 0000.0001) %MON trAdv_CFL_u_max              =   6.6787017687576E-05
(PID.TID 0000.0001) %MON trAdv_CFL_v_max              =   1.0495000707311E-04
(PID.TID 0000.0001) %MON trAdv_CFL_w_max              =   3.0868477133602E-04
(PID.TID 0000.0001) %MON advcfl_uvel_max              =   7.1418601612650E-05
(PID.TID 0000.0001) %MON advcfl_vvel_max              =   5.9725576892604E-05
(PID.TID 0000.0001) %MON advcfl_wvel_max              =   6.8043205473158E-04
(PID.TID 0000.0001) %MON advcfl_W_hf_max              =   3.0868477133602E-04
(PID.TID 0000.0001) %MON pe_b_mean                    =   5.5537461953178E-04
(PID.TID 0000.0001) %MON ke_max                       =   2.6744484511903E-01
(PID.TID 0000.0001) %MON ke_mean                      =   1.5395131999555E-04
(PID.TID 0000.0001) %MON ke_vol                       =   1.3398059549132E+18
(PID.TID 0000.0001) %MON vort_r_min                   =  -2.2094506376433E-06
(PID.TID 0000.0001) %MON vort_r_max                   =   2.2565783206368E-06
(PID.TID 0000.0001) %MON vort_a_mean                  =  -2.0549865324846E-05
(PID.TID 0000.0001) %MON vort_a_sd                    =   7.5259523327208E-05
(PID.TID 0000.0001) %MON vort_p_mean                  =  -2.4783422725268E-05
(PID.TID 0000.0001) %MON vort_p_sd                    =   1.2811962112551E-04
(PID.TID 0000.0001) %MON surfExpan_theta_mean         =  -6.1367116331362E-06
(PID.TID 0000.0001) %MON surfExpan_salt_mean          =   7.0883235213141E-07
(PID.TID 0000.0001) // =======================================================
(PID.TID 0000.0001) // End MONITOR dynamic field statistics
(PID.TID 0000.0001) // =======================================================
 cg2d: Sum(rhs),rhsMax =  -4.77657717120502E+00  2.25961406195194E+05
(PID.TID 0000.0001)      cg2d_init_res =   5.48491906776593E-03
(PID.TID 0000.0001)      cg2d_iters(min,last) =      -1       1
(PID.TID 0000.0001)      cg2d_last_res =   5.26459013672253E-08
(PID.TID 0000.0001) // =======================================================
(PID.TID 0000.0001) // Begin MONITOR dynamic field statistics
(PID.TID 0000.0001) // =======================================================
(PID.TID 0000.0001) %MON time_tsnumber                =                 72093
(PID.TID 0000.0001) %MON time_secondsf                =   1.8023250000000E+06
(PID.TID 0000.0001) %MON dynstat_eta_max              =   8.4976913486543E+00
(PID.TID 0000.0001) %MON dynstat_eta_min              =  -1.6345134567719E+00
(PID.TID 0000.0001) %MON dynstat_eta_mean             =   9.6771447920742E-03
(PID.TID 0000.0001) %MON dynstat_eta_sd               =   6.4546918563327E-01
(PID.TID 0000.0001) %MON dynstat_eta_del2             =   7.7319084381225E-03
(PID.TID 0000.0001) %MON dynstat_uvel_max             =   7.7896278214985E-01
(PID.TID 0000.0001) %MON dynstat_uvel_min             =  -4.3567703754154E-01
(PID.TID 0000.0001) %MON dynstat_uvel_mean            =  -4.4398587244417E-04
(PID.TID 0000.0001) %MON dynstat_uvel_sd              =   1.2607878841915E-02
(PID.TID 0000.0001) %MON dynstat_uvel_del2            =   8.4927313697523E-05
(PID.TID 0000.0001) %MON dynstat_vvel_max             =   6.6555481665770E-01
(PID.TID 0000.0001) %MON dynstat_vvel_min             =  -6.4571633158740E-01
(PID.TID 0000.0001) %MON dynstat_vvel_mean            =  -3.7877933301270E-04
(PID.TID 0000.0001) %MON dynstat_vvel_sd              =   1.3214423430202E-02
(PID.TID 0000.0001) %MON dynstat_vvel_del2            =   1.1330699701208E-04
(PID.TID 0000.0001) %MON dynstat_wvel_max             =   1.0355733974616E-04
(PID.TID 0000.0001) %MON dynstat_wvel_min             =  -9.4360801366510E-04
(PID.TID 0000.0001) %MON dynstat_wvel_mean            =  -1.9537351128481E-07
(PID.TID 0000.0001) %MON dynstat_wvel_sd              =   1.0236155014112E-05
(PID.TID 0000.0001) %MON dynstat_wvel_del2            =   9.7481360714675E-08
(PID.TID 0000.0001) %MON dynstat_theta_max            =   3.0925396217103E+01
(PID.TID 0000.0001) %MON dynstat_theta_min            =  -3.0173986340623E+00
(PID.TID 0000.0001) %MON dynstat_theta_mean           =   3.9089470458958E+00
(PID.TID 0000.0001) %MON dynstat_theta_sd             =   4.5706187018272E+00
(PID.TID 0000.0001) %MON dynstat_theta_del2           =   2.6547725802285E-03
(PID.TID 0000.0001) %MON dynstat_salt_max             =   4.1377106158697E+01
(PID.TID 0000.0001) %MON dynstat_salt_min             =   1.8518406213180E+01
(PID.TID 0000.0001) %MON dynstat_salt_mean            =   3.4772190561400E+01
(PID.TID 0000.0001) %MON dynstat_salt_sd              =   5.3094157439484E-01
(PID.TID 0000.0001) %MON dynstat_salt_del2            =   8.0345512640741E-04
(PID.TID 0000.0001) %MON dynstat_sst_max              =   3.0925396217103E+01
(PID.TID 0000.0001) %MON dynstat_sst_min              =  -1.8999021404881E+00
(PID.TID 0000.0001) %MON dynstat_sst_mean             =   1.8099958799716E+01
(PID.TID 0000.0001) %MON dynstat_sst_sd               =   9.7999068297580E+00
(PID.TID 0000.0001) %MON dynstat_sst_del2             =   1.5332044516655E-02
(PID.TID 0000.0001) %MON dynstat_sss_max              =   4.1377106158697E+01
(PID.TID 0000.0001) %MON dynstat_sss_min              =   1.8751371895996E+01
(PID.TID 0000.0001) %MON dynstat_sss_mean             =   3.4641441695252E+01
(PID.TID 0000.0001) %MON dynstat_sss_sd               =   1.4572765290475E+00
(PID.TID 0000.0001) %MON dynstat_sss_del2             =   8.0236301388991E-03
(PID.TID 0000.0001) %MON forcing_qnet_max             =   3.1968607421875E+04
(PID.TID 0000.0001) %MON forcing_qnet_min             =  -8.8395000000000E+03
(PID.TID 0000.0001) %MON forcing_qnet_mean            =  -1.8960342996591E+02
(PID.TID 0000.0001) %MON forcing_qnet_sd              =   1.0412698082910E+03
(PID.TID 0000.0001) %MON forcing_qnet_del2            =   3.4020703959566E+01
(PID.TID 0000.0001) %MON forcing_qsw_max              =   0.0000000000000E+00
(PID.TID 0000.0001) %MON forcing_qsw_min              =   0.0000000000000E+00
(PID.TID 0000.0001) %MON forcing_qsw_mean             =   0.0000000000000E+00
(PID.TID 0000.0001) %MON forcing_qsw_sd               =   0.0000000000000E+00
(PID.TID 0000.0001) %MON forcing_qsw_del2             =   0.0000000000000E+00
(PID.TID 0000.0001) %MON forcing_empmr_max            =   7.1955524384975E-02
(PID.TID 0000.0001) %MON forcing_empmr_min            =  -7.0243847370148E-01
(PID.TID 0000.0001) %MON forcing_empmr_mean           =  -6.7289358348848E-04
(PID.TID 0000.0001) %MON forcing_empmr_sd             =   1.3265910057720E-02
(PID.TID 0000.0001) %MON forcing_empmr_del2           =   5.2241667023388E-04
(PID.TID 0000.0001) %MON forcing_fu_max               =   5.4801289228757E-01
(PID.TID 0000.0001) %MON forcing_fu_min               =  -4.4641799185092E-01
(PID.TID 0000.0001) %MON forcing_fu_mean              =  -4.1255168011747E-03
(PID.TID 0000.0001) %MON forcing_fu_sd                =   6.8509574629944E-02
(PID.TID 0000.0001) %MON forcing_fu_del2              =   6.7687679415252E-04
(PID.TID 0000.0001) %MON forcing_fv_max               =   3.0914867831684E-01
(PID.TID 0000.0001) %MON forcing_fv_min               =  -3.4788516937630E-01
(PID.TID 0000.0001) %MON forcing_fv_mean              =  -1.3332087099671E-02
(PID.TID 0000.0001) %MON forcing_fv_sd                =   6.5600041909167E-02
(PID.TID 0000.0001) %MON forcing_fv_del2              =   5.4726463157888E-04
(PID.TID 0000.0001) %MON trAdv_CFL_u_max              =   6.7485177852131E-05
(PID.TID 0000.0001) %MON trAdv_CFL_v_max              =   1.0598878340707E-04
(PID.TID 0000.0001) %MON trAdv_CFL_w_max              =   3.0773424145568E-04
(PID.TID 0000.0001) %MON advcfl_uvel_max              =   7.2157197062214E-05
(PID.TID 0000.0001) %MON advcfl_vvel_max              =   6.0331892815205E-05
(PID.TID 0000.0001) %MON advcfl_wvel_max              =   6.7868451565360E-04
(PID.TID 0000.0001) %MON advcfl_W_hf_max              =   3.0773424145568E-04
(PID.TID 0000.0001) %MON pe_b_mean                    =   5.5515207582858E-04
(PID.TID 0000.0001) %MON ke_max                       =   2.7245159780366E-01
(PID.TID 0000.0001) %MON ke_mean                      =   1.5419324052038E-04
(PID.TID 0000.0001) %MON ke_vol                       =   1.3398059608330E+18
(PID.TID 0000.0001) %MON vort_r_min                   =  -2.2337772162507E-06
(PID.TID 0000.0001) %MON vort_r_max                   =   2.2794093458737E-06
(PID.TID 0000.0001) %MON vort_a_mean                  =  -2.0549865324846E-05
(PID.TID 0000.0001) %MON vort_a_sd                    =   7.5259523422608E-05
(PID.TID 0000.0001) %MON vort_p_mean                  =  -2.4783422591520E-05
(PID.TID 0000.0001) %MON vort_p_sd                    =   1.2811961961116E-04
(PID.TID 0000.0001) %MON surfExpan_theta_mean         =  -6.1536790076184E-06
(PID.TID 0000.0001) %MON surfExpan_salt_mean          =   7.1166824445813E-07
(PID.TID 0000.0001) // =======================================================
(PID.TID 0000.0001) // End MONITOR dynamic field statistics
(PID.TID 0000.0001) // =======================================================
 cg2d: Sum(rhs),rhsMax =  -4.78944970748253E+00  2.25732281409897E+05
(PID.TID 0000.0001)      cg2d_init_res =   5.51579205784047E-03
(PID.TID 0000.0001)      cg2d_iters(min,last) =      -1       1
(PID.TID 0000.0001)      cg2d_last_res =   5.29358031095558E-08
(PID.TID 0000.0001) // =======================================================
(PID.TID 0000.0001) // Begin MONITOR dynamic field statistics
(PID.TID 0000.0001) // =======================================================
(PID.TID 0000.0001) %MON time_tsnumber                =                 72094
(PID.TID 0000.0001) %MON time_secondsf                =   1.8023500000000E+06
(PID.TID 0000.0001) %MON dynstat_eta_max              =   8.4872624632285E+00
(PID.TID 0000.0001) %MON dynstat_eta_min              =  -1.6319416319576E+00
(PID.TID 0000.0001) %MON dynstat_eta_mean             =   9.6933849444014E-03
(PID.TID 0000.0001) %MON dynstat_eta_sd               =   6.4533910427678E-01
(PID.TID 0000.0001) %MON dynstat_eta_del2             =   7.7141095135846E-03
(PID.TID 0000.0001) %MON dynstat_uvel_max             =   7.8692417436627E-01
(PID.TID 0000.0001) %MON dynstat_uvel_min             =  -4.3852283098288E-01
(PID.TID 0000.0001) %MON dynstat_uvel_mean            =  -4.4330221394872E-04
(PID.TID 0000.0001) %MON dynstat_uvel_sd              =   1.2618386103635E-02
(PID.TID 0000.0001) %MON dynstat_uvel_del2            =   8.5444243525623E-05
(PID.TID 0000.0001) %MON dynstat_vvel_max             =   6.7222292417386E-01
(PID.TID 0000.0001) %MON dynstat_vvel_min             =  -6.5220271657223E-01
(PID.TID 0000.0001) %MON dynstat_vvel_mean            =  -3.7847131855990E-04
(PID.TID 0000.0001) %MON dynstat_vvel_sd              =   1.3224301670999E-02
(PID.TID 0000.0001) %MON dynstat_vvel_del2            =   1.1416767316677E-04
(PID.TID 0000.0001) %MON dynstat_wvel_max             =   1.0356254950990E-04
(PID.TID 0000.0001) %MON dynstat_wvel_min             =  -9.4914143827872E-04
(PID.TID 0000.0001) %MON dynstat_wvel_mean            =  -1.9723045989998E-07
(PID.TID 0000.0001) %MON dynstat_wvel_sd              =   1.0285361177728E-05
(PID.TID 0000.0001) %MON dynstat_wvel_del2            =   9.7708008388579E-08
(PID.TID 0000.0001) %MON dynstat_theta_max            =   3.0925390200598E+01
(PID.TID 0000.0001) %MON dynstat_theta_min            =  -3.0173871055238E+00
(PID.TID 0000.0001) %MON dynstat_theta_mean           =   3.9089474338447E+00
(PID.TID 0000.0001) %MON dynstat_theta_sd             =   4.5706199485682E+00
(PID.TID 0000.0001) %MON dynstat_theta_del2           =   2.6547600126372E-03
(PID.TID 0000.0001) %MON dynstat_salt_max             =   4.1377096181601E+01
(PID.TID 0000.0001) %MON dynstat_salt_min             =   1.8518406480465E+01
(PID.TID 0000.0001) %MON dynstat_salt_mean            =   3.4772190349125E+01
(PID.TID 0000.0001) %MON dynstat_salt_sd              =   5.3094194071126E-01
(PID.TID 0000.0001) %MON dynstat_salt_del2            =   8.0348787020879E-04
(PID.TID 0000.0001) %MON dynstat_sst_max              =   3.0925390200598E+01
(PID.TID 0000.0001) %MON dynstat_sst_min              =  -1.8999010668237E+00
(PID.TID 0000.0001) %MON dynstat_sst_mean             =   1.8099982499558E+01
(PID.TID 0000.0001) %MON dynstat_sst_sd               =   9.7999104182967E+00
(PID.TID 0000.0001) %MON dynstat_sst_del2             =   1.5331722380960E-02
(PID.TID 0000.0001) %MON dynstat_sss_max              =   4.1377096181601E+01
(PID.TID 0000.0001) %MON dynstat_sss_min              =   1.8751371535579E+01
(PID.TID 0000.0001) %MON dynstat_sss_mean             =   3.4641426584088E+01
(PID.TID 0000.0001) %MON dynstat_sss_sd               =   1.4572848596268E+00
(PID.TID 0000.0001) %MON dynstat_sss_del2             =   8.0241456295617E-03
(PID.TID 0000.0001) %MON forcing_qnet_max             =   3.1152574218750E+04
(PID.TID 0000.0001) %MON forcing_qnet_min             =  -8.6835732421875E+03
(PID.TID 0000.0001) %MON forcing_qnet_mean            =  -1.8767204890720E+02
(PID.TID 0000.0001) %MON forcing_qnet_sd              =   1.0234465131722E+03
(PID.TID 0000.0001) %MON forcing_qnet_del2            =   3.3412196931414E+01
(PID.TID 0000.0001) %MON forcing_qsw_max              =   0.0000000000000E+00
(PID.TID 0000.0001) %MON forcing_qsw_min              =   0.0000000000000E+00
(PID.TID 0000.0001) %MON forcing_qsw_mean             =   0.0000000000000E+00
(PID.TID 0000.0001) %MON forcing_qsw_sd               =   0.0000000000000E+00
(PID.TID 0000.0001) %MON forcing_qsw_del2             =   0.0000000000000E+00
(PID.TID 0000.0001) %MON forcing_empmr_max            =   7.0678733289242E-02
(PID.TID 0000.0001) %MON forcing_empmr_min            =  -7.0062988996506E-01
(PID.TID 0000.0001) %MON forcing_empmr_mean           =  -6.7234230631881E-04
(PID.TID 0000.0001) %MON forcing_empmr_sd             =   1.3239995244716E-02
(PID.TID 0000.0001) %MON forcing_empmr_del2           =   5.2141922969930E-04
(PID.TID 0000.0001) %MON forcing_fu_max               =   5.4801289228757E-01
(PID.TID 0000.0001) %MON forcing_fu_min               =  -4.4641799185092E-01
(PID.TID 0000.0001) %MON forcing_fu_mean              =  -4.1255168011747E-03
(PID.TID 0000.0001) %MON forcing_fu_sd                =   6.8509574629944E-02
(PID.TID 0000.0001) %MON forcing_fu_del2              =   6.7687679415252E-04
(PID.TID 0000.0001) %MON forcing_fv_max               =   3.0914867831684E-01
(PID.TID 0000.0001) %MON forcing_fv_min               =  -3.4788516937630E-01
(PID.TID 0000.0001) %MON forcing_fv_mean              =  -1.3332087099671E-02
(PID.TID 0000.0001) %MON forcing_fv_sd                =   6.5600041909167E-02
(PID.TID 0000.0001) %MON forcing_fv_del2              =   5.4726463157888E-04
(PID.TID 0000.0001) %MON trAdv_CFL_u_max              =   6.8182517802482E-05
(PID.TID 0000.0001) %MON trAdv_CFL_v_max              =   1.0702282527331E-04
(PID.TID 0000.0001) %MON trAdv_CFL_w_max              =   3.0678339205760E-04
(PID.TID 0000.0001) %MON advcfl_uvel_max              =   7.2894679982084E-05
(PID.TID 0000.0001) %MON advcfl_vvel_max              =   6.0936350236107E-05
(PID.TID 0000.0001) %MON advcfl_wvel_max              =   6.7693709175368E-04
(PID.TID 0000.0001) %MON advcfl_W_hf_max              =   3.0678339205760E-04
(PID.TID 0000.0001) %MON pe_b_mean                    =   5.5492880577047E-04
(PID.TID 0000.0001) %MON ke_max                       =   2.7748320555242E-01
(PID.TID 0000.0001) %MON ke_mean                      =   1.5443575953942E-04
(PID.TID 0000.0001) %MON ke_vol                       =   1.3398059667474E+18
(PID.TID 0000.0001) %MON vort_r_min                   =  -2.2580284702360E-06
(PID.TID 0000.0001) %MON vort_r_max                   =   2.3021615493138E-06
(PID.TID 0000.0001) %MON vort_a_mean                  =  -2.0549865324846E-05
(PID.TID 0000.0001) %MON vort_a_sd                    =   7.5259523518112E-05
(PID.TID 0000.0001) %MON vort_p_mean                  =  -2.4783422457522E-05
(PID.TID 0000.0001) %MON vort_p_sd                    =   1.2811961809112E-04
(PID.TID 0000.0001) %MON surfExpan_theta_mean         =  -6.1712421749077E-06
(PID.TID 0000.0001) %MON surfExpan_salt_mean          =   7.1449689986739E-07
(PID.TID 0000.0001) // =======================================================
(PID.TID 0000.0001) // End MONITOR dynamic field statistics
(PID.TID 0000.0001) // =======================================================
 cg2d: Sum(rhs),rhsMax =  -4.80239146194370E+00  2.25500836462434E+05
(PID.TID 0000.0001)      cg2d_init_res =   5.54642386627626E-03
(PID.TID 0000.0001)      cg2d_iters(min,last) =      -1       1
(PID.TID 0000.0001)      cg2d_last_res =   5.32192243118604E-08
(PID.TID 0000.0001) // =======================================================
(PID.TID 0000.0001) // Begin MONITOR dynamic field statistics
(PID.TID 0000.0001) // =======================================================
(PID.TID 0000.0001) %MON time_tsnumber                =                 72095
(PID.TID 0000.0001) %MON time_secondsf                =   1.8023750000000E+06
(PID.TID 0000.0001) %MON dynstat_eta_max              =   8.4767285685830E+00
(PID.TID 0000.0001) %MON dynstat_eta_min              =  -1.6293546085293E+00
(PID.TID 0000.0001) %MON dynstat_eta_mean             =   9.7096122553183E-03
(PID.TID 0000.0001) %MON dynstat_eta_sd               =   6.4520859750544E-01
(PID.TID 0000.0001) %MON dynstat_eta_del2             =   7.6962094802957E-03
(PID.TID 0000.0001) %MON dynstat_uvel_max             =   7.9487338916635E-01
(PID.TID 0000.0001) %MON dynstat_uvel_min             =  -4.4136421552784E-01
(PID.TID 0000.0001) %MON dynstat_uvel_mean            =  -4.4261413403415E-04
(PID.TID 0000.0001) %MON dynstat_uvel_sd              =   1.2628920441904E-02
(PID.TID 0000.0001) %MON dynstat_uvel_del2            =   8.5960945043459E-05
(PID.TID 0000.0001) %MON dynstat_vvel_max             =   6.7887044868998E-01
(PID.TID 0000.0001) %MON dynstat_vvel_min             =  -6.5867907556089E-01
(PID.TID 0000.0001) %MON dynstat_vvel_mean            =  -3.7816384871022E-04
(PID.TID 0000.0001) %MON dynstat_vvel_sd              =   1.3234184070305E-02
(PID.TID 0000.0001) %MON dynstat_vvel_del2            =   1.1502571991507E-04
(PID.TID 0000.0001) %MON dynstat_wvel_max             =   1.0356777638462E-04
(PID.TID 0000.0001) %MON dynstat_wvel_min             =  -9.5455830922309E-04
(PID.TID 0000.0001) %MON dynstat_wvel_mean            =  -1.9909555211946E-07
(PID.TID 0000.0001) %MON dynstat_wvel_sd              =   1.0333896452383E-05
(PID.TID 0000.0001) %MON dynstat_wvel_del2            =   9.7931696541727E-08
(PID.TID 0000.0001) %MON dynstat_theta_max            =   3.0925384184803E+01
(PID.TID 0000.0001) %MON dynstat_theta_min            =  -3.0173753056070E+00
(PID.TID 0000.0001) %MON dynstat_theta_mean           =   3.9089478188178E+00
(PID.TID 0000.0001) %MON dynstat_theta_sd             =   4.5706211878927E+00
(PID.TID 0000.0001) %MON dynstat_theta_del2           =   2.6547475539632E-03
(PID.TID 0000.0001) %MON dynstat_salt_max             =   4.1377086000262E+01
(PID.TID 0000.0001) %MON dynstat_salt_min             =   1.8518406747774E+01
(PID.TID 0000.0001) %MON dynstat_salt_mean            =   3.4772190137191E+01
(PID.TID 0000.0001) %MON dynstat_salt_sd              =   5.3094230801970E-01
(PID.TID 0000.0001) %MON dynstat_salt_del2            =   8.0352102660972E-04
(PID.TID 0000.0001) %MON dynstat_sst_max              =   3.0925384184803E+01
(PID.TID 0000.0001) %MON dynstat_sst_min              =  -1.8998999920124E+00
(PID.TID 0000.0001) %MON dynstat_sst_mean             =   1.8100005947672E+01
(PID.TID 0000.0001) %MON dynstat_sst_sd               =   9.7999140902811E+00
(PID.TID 0000.0001) %MON dynstat_sst_del2             =   1.5331403227281E-02
(PID.TID 0000.0001) %MON dynstat_sss_max              =   4.1377086000262E+01
(PID.TID 0000.0001) %MON dynstat_sss_min              =   1.8751371225900E+01
(PID.TID 0000.0001) %MON dynstat_sss_mean             =   3.4641411493035E+01
(PID.TID 0000.0001) %MON dynstat_sss_sd               =   1.4572932156386E+00
(PID.TID 0000.0001) %MON dynstat_sss_del2             =   8.0246675376293E-03
(PID.TID 0000.0001) %MON forcing_qnet_max             =   3.0372017578125E+04
(PID.TID 0000.0001) %MON forcing_qnet_min             =  -8.5276464843750E+03
(PID.TID 0000.0001) %MON forcing_qnet_mean            =  -1.8587769898867E+02
(PID.TID 0000.0001) %MON forcing_qnet_sd              =   1.0065020426420E+03
(PID.TID 0000.0001) %MON forcing_qnet_del2            =   3.2834918836847E+01
(PID.TID 0000.0001) %MON forcing_qsw_max              =   0.0000000000000E+00
(PID.TID 0000.0001) %MON forcing_qsw_min              =   0.0000000000000E+00
(PID.TID 0000.0001) %MON forcing_qsw_mean             =   0.0000000000000E+00
(PID.TID 0000.0001) %MON forcing_qsw_sd               =   0.0000000000000E+00
(PID.TID 0000.0001) %MON forcing_qsw_del2             =   0.0000000000000E+00
(PID.TID 0000.0001) %MON forcing_empmr_max            =   6.9422073662281E-02
(PID.TID 0000.0001) %MON forcing_empmr_min            =  -6.9884091615677E-01
(PID.TID 0000.0001) %MON forcing_empmr_mean           =  -6.7181067199074E-04
(PID.TID 0000.0001) %MON forcing_empmr_sd             =   1.3214603615097E-02
(PID.TID 0000.0001) %MON forcing_empmr_del2           =   5.2044412433952E-04
(PID.TID 0000.0001) %MON forcing_fu_max               =   5.4801289228757E-01
(PID.TID 0000.0001) %MON forcing_fu_min               =  -4.4641799185092E-01
(PID.TID 0000.0001) %MON forcing_fu_mean              =  -4.1255168011747E-03
(PID.TID 0000.0001) %MON forcing_fu_sd                =   6.8509574629944E-02
(PID.TID 0000.0001) %MON forcing_fu_del2              =   6.7687679415252E-04
(PID.TID 0000.0001) %MON forcing_fv_max               =   3.0914867831684E-01
(PID.TID 0000.0001) %MON forcing_fv_min               =  -3.4788516937630E-01
(PID.TID 0000.0001) %MON forcing_fv_mean              =  -1.3332087099671E-02
(PID.TID 0000.0001) %MON forcing_fv_sd                =   6.5600041909167E-02
(PID.TID 0000.0001) %MON forcing_fv_del2              =   5.4726463157888E-04
(PID.TID 0000.0001) %MON trAdv_CFL_u_max              =   6.8879024264400E-05
(PID.TID 0000.0001) %MON trAdv_CFL_v_max              =   1.0805210492229E-04
(PID.TID 0000.0001) %MON trAdv_CFL_w_max              =   3.0584093934566E-04
(PID.TID 0000.0001) %MON advcfl_uvel_max              =   7.3631034878574E-05
(PID.TID 0000.0001) %MON advcfl_vvel_max              =   6.1538941828197E-05
(PID.TID 0000.0001) %MON advcfl_wvel_max              =   6.7520861464422E-04
(PID.TID 0000.0001) %MON advcfl_W_hf_max              =   3.0584093934566E-04
(PID.TID 0000.0001) %MON pe_b_mean                    =   5.5470484985293E-04
(PID.TID 0000.0001) %MON ke_max                       =   2.8253892670218E-01
(PID.TID 0000.0001) %MON ke_mean                      =   1.5467883502514E-04
(PID.TID 0000.0001) %MON ke_vol                       =   1.3398059726570E+18
(PID.TID 0000.0001) %MON vort_r_min                   =  -2.2822037915134E-06
(PID.TID 0000.0001) %MON vort_r_max                   =   2.3248346971006E-06
(PID.TID 0000.0001) %MON vort_a_mean                  =  -2.0549865324846E-05
(PID.TID 0000.0001) %MON vort_a_sd                    =   7.5259523613700E-05
(PID.TID 0000.0001) %MON vort_p_mean                  =  -2.4783422323269E-05
(PID.TID 0000.0001) %MON vort_p_sd                    =   1.2811961656527E-04
(PID.TID 0000.0001) %MON surfExpan_theta_mean         =  -6.1891154951094E-06
(PID.TID 0000.0001) %MON surfExpan_salt_mean          =   7.1736766411876E-07
(PID.TID 0000.0001) // =======================================================
(PID.TID 0000.0001) // End MONITOR dynamic field statistics
(PID.TID 0000.0001) // =======================================================
 cg2d: Sum(rhs),rhsMax =  -4.81540262032860E+00  2.25267076474375E+05
(PID.TID 0000.0001)      cg2d_init_res =   5.57676986644369E-03
(PID.TID 0000.0001)      cg2d_iters(min,last) =      -1       1
(PID.TID 0000.0001)      cg2d_last_res =   5.34957681344339E-08
(PID.TID 0000.0001) // =======================================================
(PID.TID 0000.0001) // Begin MONITOR dynamic field statistics
(PID.TID 0000.0001) // =======================================================
(PID.TID 0000.0001) %MON time_tsnumber                =                 72096
(PID.TID 0000.0001) %MON time_secondsf                =   1.8024000000000E+06
(PID.TID 0000.0001) %MON dynstat_eta_max              =   8.4660899275627E+00
(PID.TID 0000.0001) %MON dynstat_eta_min              =  -1.6267527107309E+00
(PID.TID 0000.0001) %MON dynstat_eta_mean             =   9.7258260825245E-03
(PID.TID 0000.0001) %MON dynstat_eta_sd               =   6.4507768798781E-01
(PID.TID 0000.0001) %MON dynstat_eta_del2             =   7.6782095332913E-03
(PID.TID 0000.0001) %MON dynstat_uvel_max             =   8.0281026029005E-01
(PID.TID 0000.0001) %MON dynstat_uvel_min             =  -4.4420116529511E-01
(PID.TID 0000.0001) %MON dynstat_uvel_mean            =  -4.4192165236850E-04
(PID.TID 0000.0001) %MON dynstat_uvel_sd              =   1.2639480138246E-02
(PID.TID 0000.0001) %MON dynstat_uvel_del2            =   8.6477366071698E-05
(PID.TID 0000.0001) %MON dynstat_vvel_max             =   6.8549731037952E-01
(PID.TID 0000.0001) %MON dynstat_vvel_min             =  -6.6514530948850E-01
(PID.TID 0000.0001) %MON dynstat_vvel_mean            =  -3.7785698735506E-04
(PID.TID 0000.0001) %MON dynstat_vvel_sd              =   1.3244068797897E-02
(PID.TID 0000.0001) %MON dynstat_vvel_del2            =   1.1588107023633E-04
(PID.TID 0000.0001) %MON dynstat_wvel_max             =   1.0357302038651E-04
(PID.TID 0000.0001) %MON dynstat_wvel_min             =  -9.5985890525506E-04
(PID.TID 0000.0001) %MON dynstat_wvel_mean            =  -2.0094720165764E-07
(PID.TID 0000.0001) %MON dynstat_wvel_sd              =   1.0381724354928E-05
(PID.TID 0000.0001) %MON dynstat_wvel_del2            =   9.8152086565529E-08
(PID.TID 0000.0001) %MON dynstat_theta_max            =   3.0925378169718E+01
(PID.TID 0000.0001) %MON dynstat_theta_min            =  -3.0173632338929E+00
(PID.TID 0000.0001) %MON dynstat_theta_mean           =   3.9089482009142E+00
(PID.TID 0000.0001) %MON dynstat_theta_sd             =   4.5706224199698E+00
(PID.TID 0000.0001) %MON dynstat_theta_del2           =   2.6547351946893E-03
(PID.TID 0000.0001) %MON dynstat_salt_max             =   4.1377075815828E+01
(PID.TID 0000.0001) %MON dynstat_salt_min             =   1.8518407015105E+01
(PID.TID 0000.0001) %MON dynstat_salt_mean            =   3.4772189925597E+01
(PID.TID 0000.0001) %MON dynstat_salt_sd              =   5.3094267629348E-01
(PID.TID 0000.0001) %MON dynstat_salt_del2            =   8.0355458859309E-04
(PID.TID 0000.0001) %MON dynstat_sst_max              =   3.0925378169718E+01
(PID.TID 0000.0001) %MON dynstat_sst_min              =  -1.8998989160416E+00
(PID.TID 0000.0001) %MON dynstat_sst_mean             =   1.8100029153358E+01
(PID.TID 0000.0001) %MON dynstat_sst_sd               =   9.7999178406654E+00
(PID.TID 0000.0001) %MON dynstat_sst_del2             =   1.5331086834559E-02
(PID.TID 0000.0001) %MON dynstat_sss_max              =   4.1377075815828E+01
(PID.TID 0000.0001) %MON dynstat_sss_min              =   1.8751370960568E+01
(PID.TID 0000.0001) %MON dynstat_sss_mean             =   3.4641396422350E+01
(PID.TID 0000.0001) %MON dynstat_sss_sd               =   1.4573015959654E+00
(PID.TID 0000.0001) %MON dynstat_sss_del2             =   8.0251957617449E-03
(PID.TID 0000.0001) %MON forcing_qnet_max             =   2.9609199218750E+04
(PID.TID 0000.0001) %MON forcing_qnet_min             =  -8.3816982421875E+03
(PID.TID 0000.0001) %MON forcing_qnet_mean            =  -1.8414354029407E+02
(PID.TID 0000.0001) %MON forcing_qnet_sd              =   9.9005235167779E+02
(PID.TID 0000.0001) %MON forcing_qnet_del2            =   3.2279159793289E+01
(PID.TID 0000.0001) %MON forcing_qsw_max              =   0.0000000000000E+00
(PID.TID 0000.0001) %MON forcing_qsw_min              =   0.0000000000000E+00
(PID.TID 0000.0001) %MON forcing_qsw_mean             =   0.0000000000000E+00
(PID.TID 0000.0001) %MON forcing_qsw_sd               =   0.0000000000000E+00
(PID.TID 0000.0001) %MON forcing_qsw_del2             =   0.0000000000000E+00
(PID.TID 0000.0001) %MON forcing_empmr_max            =   6.8189591169357E-02
(PID.TID 0000.0001) %MON forcing_empmr_min            =  -6.9703227281570E-01
(PID.TID 0000.0001) %MON forcing_empmr_mean           =  -6.7125244633817E-04
(PID.TID 0000.0001) %MON forcing_empmr_sd             =   1.3189085521465E-02
(PID.TID 0000.0001) %MON forcing_empmr_del2           =   5.1946989683229E-04
(PID.TID 0000.0001) %MON forcing_fu_max               =   5.4801289228757E-01
(PID.TID 0000.0001) %MON forcing_fu_min               =  -4.4641799185092E-01
(PID.TID 0000.0001) %MON forcing_fu_mean              =  -4.1255168011747E-03
(PID.TID 0000.0001) %MON forcing_fu_sd                =   6.8509574629944E-02
(PID.TID 0000.0001) %MON forcing_fu_del2              =   6.7687679415252E-04
(PID.TID 0000.0001) %MON forcing_fv_max               =   3.0914867831684E-01
(PID.TID 0000.0001) %MON forcing_fv_min               =  -3.4788516937630E-01
(PID.TID 0000.0001) %MON forcing_fv_mean              =  -1.3332087099671E-02
(PID.TID 0000.0001) %MON forcing_fv_sd                =   6.5600041909167E-02
(PID.TID 0000.0001) %MON forcing_fv_del2              =   5.4726463157888E-04
(PID.TID 0000.0001) %MON trAdv_CFL_u_max              =   6.9574684015651E-05
(PID.TID 0000.0001) %MON trAdv_CFL_v_max              =   1.0907659480073E-04
(PID.TID 0000.0001) %MON trAdv_CFL_w_max              =   3.0488936823070E-04
(PID.TID 0000.0001) %MON advcfl_uvel_max              =   7.4366246350615E-05
(PID.TID 0000.0001) %MON advcfl_vvel_max              =   6.2139660355277E-05
(PID.TID 0000.0001) %MON advcfl_wvel_max              =   6.7346113315527E-04
(PID.TID 0000.0001) %MON advcfl_W_hf_max              =   3.0488936823070E-04
(PID.TID 0000.0001) %MON pe_b_mean                    =   5.5448024746233E-04
(PID.TID 0000.0001) %MON ke_max                       =   2.8761801832510E-01
(PID.TID 0000.0001) %MON ke_mean                      =   1.5492242547893E-04
(PID.TID 0000.0001) %MON ke_vol                       =   1.3398059785619E+18
(PID.TID 0000.0001) %MON vort_r_min                   =  -2.3063025764088E-06
(PID.TID 0000.0001) %MON vort_r_max                   =   2.3474285564474E-06
(PID.TID 0000.0001) %MON vort_a_mean                  =  -2.0549865324846E-05
(PID.TID 0000.0001) %MON vort_a_sd                    =   7.5259523709351E-05
(PID.TID 0000.0001) %MON vort_p_mean                  =  -2.4783422188761E-05
(PID.TID 0000.0001) %MON vort_p_sd                    =   1.2811961503349E-04
(PID.TID 0000.0001) %MON surfExpan_theta_mean         =  -6.2069995826416E-06
(PID.TID 0000.0001) %MON surfExpan_salt_mean          =   7.2027500988951E-07
(PID.TID 0000.0001) // =======================================================
(PID.TID 0000.0001) // End MONITOR dynamic field statistics
(PID.TID 0000.0001) // =======================================================
 cg2d: Sum(rhs),rhsMax =  -4.82848351523299E+00  2.25031006602947E+05
(PID.TID 0000.0001)      cg2d_init_res =   5.60684647148283E-03
(PID.TID 0000.0001)      cg2d_iters(min,last) =      -1       1
(PID.TID 0000.0001)      cg2d_last_res =   5.37657942244754E-08
(PID.TID 0000.0001) // =======================================================
(PID.TID 0000.0001) // Begin MONITOR dynamic field statistics
(PID.TID 0000.0001) // =======================================================
(PID.TID 0000.0001) %MON time_tsnumber                =                 72097
(PID.TID 0000.0001) %MON time_secondsf                =   1.8024250000000E+06
(PID.TID 0000.0001) %MON dynstat_eta_max              =   8.4553468049758E+00
(PID.TID 0000.0001) %MON dynstat_eta_min              =  -1.6241362625560E+00
(PID.TID 0000.0001) %MON dynstat_eta_mean             =   9.7420260737516E-03
(PID.TID 0000.0001) %MON dynstat_eta_sd               =   6.4494639673331E-01
(PID.TID 0000.0001) %MON dynstat_eta_del2             =   7.6601108517026E-03
(PID.TID 0000.0001) %MON dynstat_uvel_max             =   8.1073462248409E-01
(PID.TID 0000.0001) %MON dynstat_uvel_min             =  -4.4703365446737E-01
(PID.TID 0000.0001) %MON dynstat_uvel_mean            =  -4.4122478925624E-04
(PID.TID 0000.0001) %MON dynstat_uvel_sd              =   1.2650063492618E-02
(PID.TID 0000.0001) %MON dynstat_uvel_del2            =   8.6993455667087E-05
(PID.TID 0000.0001) %MON dynstat_vvel_max             =   6.9210343041855E-01
(PID.TID 0000.0001) %MON dynstat_vvel_min             =  -6.7160131948800E-01
(PID.TID 0000.0001) %MON dynstat_vvel_mean            =  -3.7755079800851E-04
(PID.TID 0000.0001) %MON dynstat_vvel_sd              =   1.3253954060673E-02
(PID.TID 0000.0001) %MON dynstat_vvel_del2            =   1.1673365940235E-04
(PID.TID 0000.0001) %MON dynstat_wvel_max             =   1.0357828153180E-04
(PID.TID 0000.0001) %MON dynstat_wvel_min             =  -9.6504351185009E-04
(PID.TID 0000.0001) %MON dynstat_wvel_mean            =  -2.0280475575802E-07
(PID.TID 0000.0001) %MON dynstat_wvel_sd              =   1.0428839282693E-05
(PID.TID 0000.0001) %MON dynstat_wvel_del2            =   9.8367481826681E-08
(PID.TID 0000.0001) %MON dynstat_theta_max            =   3.0925372155340E+01
(PID.TID 0000.0001) %MON dynstat_theta_min            =  -3.0173508900210E+00
(PID.TID 0000.0001) %MON dynstat_theta_mean           =   3.9089485802756E+00
(PID.TID 0000.0001) %MON dynstat_theta_sd             =   4.5706236450217E+00
(PID.TID 0000.0001) %MON dynstat_theta_del2           =   2.6547229333332E-03
(PID.TID 0000.0001) %MON dynstat_salt_max             =   4.1377065427559E+01
(PID.TID 0000.0001) %MON dynstat_salt_min             =   1.8518407282458E+01
(PID.TID 0000.0001) %MON dynstat_salt_mean            =   3.4772189714353E+01
(PID.TID 0000.0001) %MON dynstat_salt_sd              =   5.3094304556976E-01
(PID.TID 0000.0001) %MON dynstat_salt_del2            =   8.0358855463154E-04
(PID.TID 0000.0001) %MON dynstat_sst_max              =   3.0925372155340E+01
(PID.TID 0000.0001) %MON dynstat_sst_min              =  -1.8998978388995E+00
(PID.TID 0000.0001) %MON dynstat_sst_mean             =   1.8100052126996E+01
(PID.TID 0000.0001) %MON dynstat_sst_sd               =   9.7999216634325E+00
(PID.TID 0000.0001) %MON dynstat_sst_del2             =   1.5330773244582E-02
(PID.TID 0000.0001) %MON dynstat_sss_max              =   4.1377065427559E+01
(PID.TID 0000.0001) %MON dynstat_sss_min              =   1.8751370733996E+01
(PID.TID 0000.0001) %MON dynstat_sss_mean             =   3.4641381372726E+01
(PID.TID 0000.0001) %MON dynstat_sss_sd               =   1.4573100023308E+00
(PID.TID 0000.0001) %MON dynstat_sss_del2             =   8.0257302833009E-03
(PID.TID 0000.0001) %MON forcing_qnet_max             =   2.8855246093750E+04
(PID.TID 0000.0001) %MON forcing_qnet_min             =  -8.2842392578125E+03
(PID.TID 0000.0001) %MON forcing_qnet_mean            =  -1.8249904313840E+02
(PID.TID 0000.0001) %MON forcing_qnet_sd              =   9.7406702563210E+02
(PID.TID 0000.0001) %MON forcing_qnet_del2            =   3.1732868386532E+01
(PID.TID 0000.0001) %MON forcing_qsw_max              =   0.0000000000000E+00
(PID.TID 0000.0001) %MON forcing_qsw_min              =   0.0000000000000E+00
(PID.TID 0000.0001) %MON forcing_qsw_mean             =   0.0000000000000E+00
(PID.TID 0000.0001) %MON forcing_qsw_sd               =   0.0000000000000E+00
(PID.TID 0000.0001) %MON forcing_qsw_del2             =   0.0000000000000E+00
(PID.TID 0000.0001) %MON forcing_empmr_max            =   6.6981270909309E-02
(PID.TID 0000.0001) %MON forcing_empmr_min            =  -6.9524329900742E-01
(PID.TID 0000.0001) %MON forcing_empmr_mean           =  -6.7067963678724E-04
(PID.TID 0000.0001) %MON forcing_empmr_sd             =   1.3163577153049E-02
(PID.TID 0000.0001) %MON forcing_empmr_del2           =   5.1849178315378E-04
(PID.TID 0000.0001) %MON forcing_fu_max               =   5.4801289228757E-01
(PID.TID 0000.0001) %MON forcing_fu_min               =  -4.4641799185092E-01
(PID.TID 0000.0001) %MON forcing_fu_mean              =  -4.1255168011747E-03
(PID.TID 0000.0001) %MON forcing_fu_sd                =   6.8509574629944E-02
(PID.TID 0000.0001) %MON forcing_fu_del2              =   6.7687679415252E-04
(PID.TID 0000.0001) %MON forcing_fv_max               =   3.0914867831684E-01
(PID.TID 0000.0001) %MON forcing_fv_min               =  -3.4788516937630E-01
(PID.TID 0000.0001) %MON forcing_fv_mean              =  -1.3332087099671E-02
(PID.TID 0000.0001) %MON forcing_fv_sd                =   6.5600041909167E-02
(PID.TID 0000.0001) %MON forcing_fv_del2              =   5.4726463157888E-04
(PID.TID 0000.0001) %MON trAdv_CFL_u_max              =   7.0269483886508E-05
(PID.TID 0000.0001) %MON trAdv_CFL_v_max              =   1.1009626755370E-04
(PID.TID 0000.0001) %MON trAdv_CFL_w_max              =   3.0394625403140E-04
(PID.TID 0000.0001) %MON advcfl_uvel_max              =   7.5100299090401E-05
(PID.TID 0000.0001) %MON advcfl_vvel_max              =   6.2738498672038E-05
(PID.TID 0000.0001) %MON advcfl_wvel_max              =   6.7173265604581E-04
(PID.TID 0000.0001) %MON advcfl_W_hf_max              =   3.0394625403140E-04
(PID.TID 0000.0001) %MON pe_b_mean                    =   5.5425503511123E-04
(PID.TID 0000.0001) %MON ke_max                       =   2.9271973633774E-01
(PID.TID 0000.0001) %MON ke_mean                      =   1.5516648994081E-04
(PID.TID 0000.0001) %MON ke_vol                       =   1.3398059844619E+18
(PID.TID 0000.0001) %MON vort_r_min                   =  -2.3303242257154E-06
(PID.TID 0000.0001) %MON vort_r_max                   =   2.3699428956181E-06
(PID.TID 0000.0001) %MON vort_a_mean                  =  -2.0549865324846E-05
(PID.TID 0000.0001) %MON vort_a_sd                    =   7.5259523805047E-05
(PID.TID 0000.0001) %MON vort_p_mean                  =  -2.4783422054006E-05
(PID.TID 0000.0001) %MON vort_p_sd                    =   1.2811961349572E-04
(PID.TID 0000.0001) %MON surfExpan_theta_mean         =  -6.2244208493182E-06
(PID.TID 0000.0001) %MON surfExpan_salt_mean          =   7.2317890561794E-07
(PID.TID 0000.0001) // =======================================================
(PID.TID 0000.0001) // End MONITOR dynamic field statistics
(PID.TID 0000.0001) // =======================================================
 cg2d: Sum(rhs),rhsMax =  -4.84163465216015E+00  2.24792632040871E+05
(PID.TID 0000.0001)      cg2d_init_res =   5.63664674889528E-03
(PID.TID 0000.0001)      cg2d_iters(min,last) =      -1       1
(PID.TID 0000.0001)      cg2d_last_res =   5.40294712592460E-08
(PID.TID 0000.0001) // =======================================================
(PID.TID 0000.0001) // Begin MONITOR dynamic field statistics
(PID.TID 0000.0001) // =======================================================
(PID.TID 0000.0001) %MON time_tsnumber                =                 72098
(PID.TID 0000.0001) %MON time_secondsf                =   1.8024500000000E+06
(PID.TID 0000.0001) %MON dynstat_eta_max              =   8.4444994675790E+00
(PID.TID 0000.0001) %MON dynstat_eta_min              =  -1.6215055876898E+00
(PID.TID 0000.0001) %MON dynstat_eta_mean             =   9.7582122177057E-03
(PID.TID 0000.0001) %MON dynstat_eta_sd               =   6.4481474483114E-01
(PID.TID 0000.0001) %MON dynstat_eta_del2             =   7.6419145503919E-03
(PID.TID 0000.0001) %MON dynstat_uvel_max             =   8.1864631150244E-01
(PID.TID 0000.0001) %MON dynstat_uvel_min             =  -4.4986165729852E-01
(PID.TID 0000.0001) %MON dynstat_uvel_mean            =  -4.4052356591902E-04
(PID.TID 0000.0001) %MON dynstat_uvel_sd              =   1.2660668823914E-02
(PID.TID 0000.0001) %MON dynstat_uvel_del2            =   8.7509164079696E-05
(PID.TID 0000.0001) %MON dynstat_vvel_max             =   6.9868873096773E-01
(PID.TID 0000.0001) %MON dynstat_vvel_min             =  -6.7804700689575E-01
(PID.TID 0000.0001) %MON dynstat_vvel_mean            =  -3.7724534420004E-04
(PID.TID 0000.0001) %MON dynstat_vvel_sd              =   1.3263838102822E-02
(PID.TID 0000.0001) %MON dynstat_vvel_del2            =   1.1758342487119E-04
(PID.TID 0000.0001) %MON dynstat_wvel_max             =   1.0358355989027E-04
(PID.TID 0000.0001) %MON dynstat_wvel_min             =  -9.7011242034200E-04
(PID.TID 0000.0001) %MON dynstat_wvel_mean            =  -2.0467836185236E-07
(PID.TID 0000.0001) %MON dynstat_wvel_sd              =   1.0475238886973E-05
(PID.TID 0000.0001) %MON dynstat_wvel_del2            =   9.8578267983528E-08
(PID.TID 0000.0001) %MON dynstat_theta_max            =   3.0925366141668E+01
(PID.TID 0000.0001) %MON dynstat_theta_min            =  -3.0173382736892E+00
(PID.TID 0000.0001) %MON dynstat_theta_mean           =   3.9089489569042E+00
(PID.TID 0000.0001) %MON dynstat_theta_sd             =   4.5706248629808E+00
(PID.TID 0000.0001) %MON dynstat_theta_del2           =   2.6547107642036E-03
(PID.TID 0000.0001) %MON dynstat_salt_max             =   4.1377054936133E+01
(PID.TID 0000.0001) %MON dynstat_salt_min             =   1.8518407549832E+01
(PID.TID 0000.0001) %MON dynstat_salt_mean            =   3.4772189503458E+01
(PID.TID 0000.0001) %MON dynstat_salt_sd              =   5.3094341569577E-01
(PID.TID 0000.0001) %MON dynstat_salt_del2            =   8.0362292405602E-04
(PID.TID 0000.0001) %MON dynstat_sst_max              =   3.0925366141668E+01
(PID.TID 0000.0001) %MON dynstat_sst_min              =  -1.8998967605739E+00
(PID.TID 0000.0001) %MON dynstat_sst_mean             =   1.8100074871672E+01
(PID.TID 0000.0001) %MON dynstat_sst_sd               =   9.7999255543286E+00
(PID.TID 0000.0001) %MON dynstat_sst_del2             =   1.5330462284586E-02
(PID.TID 0000.0001) %MON dynstat_sss_max              =   4.1377054936133E+01
(PID.TID 0000.0001) %MON dynstat_sss_min              =   1.8751370541301E+01
(PID.TID 0000.0001) %MON dynstat_sss_mean             =   3.4641366344666E+01
(PID.TID 0000.0001) %MON dynstat_sss_sd               =   1.4573184310471E+00
(PID.TID 0000.0001) %MON dynstat_sss_del2             =   8.0262711025480E-03
(PID.TID 0000.0001) %MON forcing_qnet_max             =   2.8136773437500E+04
(PID.TID 0000.0001) %MON forcing_qnet_min             =  -8.1867797851562E+03
(PID.TID 0000.0001) %MON forcing_qnet_mean            =  -1.8085609841944E+02
(PID.TID 0000.0001) %MON forcing_qnet_sd              =   9.5878729643368E+02
(PID.TID 0000.0001) %MON forcing_qnet_del2            =   3.1204713399633E+01
(PID.TID 0000.0001) %MON forcing_qsw_max              =   0.0000000000000E+00
(PID.TID 0000.0001) %MON forcing_qsw_min              =   0.0000000000000E+00
(PID.TID 0000.0001) %MON forcing_qsw_mean             =   0.0000000000000E+00
(PID.TID 0000.0001) %MON forcing_qsw_sd               =   0.0000000000000E+00
(PID.TID 0000.0001) %MON forcing_qsw_del2             =   0.0000000000000E+00
(PID.TID 0000.0001) %MON forcing_empmr_max            =   6.5793089568615E-02
(PID.TID 0000.0001) %MON forcing_empmr_min            =  -6.9345432519913E-01
(PID.TID 0000.0001) %MON forcing_empmr_mean           =  -6.7010635970591E-04
(PID.TID 0000.0001) %MON forcing_empmr_sd             =   1.3137995086877E-02
(PID.TID 0000.0001) %MON forcing_empmr_del2           =   5.1750570693646E-04
(PID.TID 0000.0001) %MON forcing_fu_max               =   5.4801289228757E-01
(PID.TID 0000.0001) %MON forcing_fu_min               =  -4.4641799185092E-01
(PID.TID 0000.0001) %MON forcing_fu_mean              =  -4.1255168011747E-03
(PID.TID 0000.0001) %MON forcing_fu_sd                =   6.8509574629944E-02
(PID.TID 0000.0001) %MON forcing_fu_del2              =   6.7687679415252E-04
(PID.TID 0000.0001) %MON forcing_fv_max               =   3.0914867831684E-01
(PID.TID 0000.0001) %MON forcing_fv_min               =  -3.4788516937630E-01
(PID.TID 0000.0001) %MON forcing_fv_mean              =  -1.3332087099671E-02
(PID.TID 0000.0001) %MON forcing_fv_sd                =   6.5600041909167E-02
(PID.TID 0000.0001) %MON forcing_fv_del2              =   5.4726463157888E-04
(PID.TID 0000.0001) %MON trAdv_CFL_u_max              =   7.0963410759715E-05
(PID.TID 0000.0001) %MON trAdv_CFL_v_max              =   1.1111109602590E-04
(PID.TID 0000.0001) %MON trAdv_CFL_w_max              =   3.0300283429867E-04
(PID.TID 0000.0001) %MON advcfl_uvel_max              =   7.5833177883423E-05
(PID.TID 0000.0001) %MON advcfl_vvel_max              =   6.3335449722418E-05
(PID.TID 0000.0001) %MON advcfl_wvel_max              =   6.7000417893635E-04
(PID.TID 0000.0001) %MON advcfl_W_hf_max              =   3.0300283429867E-04
(PID.TID 0000.0001) %MON pe_b_mean                    =   5.5402924942990E-04
(PID.TID 0000.0001) %MON ke_max                       =   2.9784333560678E-01
(PID.TID 0000.0001) %MON ke_mean                      =   1.5541098799988E-04
(PID.TID 0000.0001) %MON ke_vol                       =   1.3398059903568E+18
(PID.TID 0000.0001) %MON vort_r_min                   =  -2.3542681446996E-06
(PID.TID 0000.0001) %MON vort_r_max                   =   2.3923774839154E-06
(PID.TID 0000.0001) %MON vort_a_mean                  =  -2.0549865324846E-05
(PID.TID 0000.0001) %MON vort_a_sd                    =   7.5259523900766E-05
(PID.TID 0000.0001) %MON vort_p_mean                  =  -2.4783421919009E-05
(PID.TID 0000.0001) %MON vort_p_sd                    =   1.2811961195183E-04
(PID.TID 0000.0001) %MON surfExpan_theta_mean         =  -6.2418089578613E-06
(PID.TID 0000.0001) %MON surfExpan_salt_mean          =   7.2608510296529E-07
(PID.TID 0000.0001) // =======================================================
(PID.TID 0000.0001) // End MONITOR dynamic field statistics
(PID.TID 0000.0001) // =======================================================
 cg2d: Sum(rhs),rhsMax =  -4.85485699017931E+00  2.24551958016199E+05
(PID.TID 0000.0001)      cg2d_init_res =   5.66619325750378E-03
(PID.TID 0000.0001)      cg2d_iters(min,last) =      -1       1
(PID.TID 0000.0001)      cg2d_last_res =   5.42871686796186E-08
(PID.TID 0000.0001) // =======================================================
(PID.TID 0000.0001) // Begin MONITOR dynamic field statistics
(PID.TID 0000.0001) // =======================================================
(PID.TID 0000.0001) %MON time_tsnumber                =                 72099
(PID.TID 0000.0001) %MON time_secondsf                =   1.8024750000000E+06
(PID.TID 0000.0001) %MON dynstat_eta_max              =   8.4335481840627E+00
(PID.TID 0000.0001) %MON dynstat_eta_min              =  -1.6188610094458E+00
(PID.TID 0000.0001) %MON dynstat_eta_mean             =   9.7743854072410E-03
(PID.TID 0000.0001) %MON dynstat_eta_sd               =   6.4468275434487E-01
(PID.TID 0000.0001) %MON dynstat_eta_del2             =   7.6236218454245E-03
(PID.TID 0000.0001) %MON dynstat_uvel_max             =   8.2654516411603E-01
(PID.TID 0000.0001) %MON dynstat_uvel_min             =  -4.5268514811006E-01
(PID.TID 0000.0001) %MON dynstat_uvel_mean            =  -4.3981800428427E-04
(PID.TID 0000.0001) %MON dynstat_uvel_sd              =   1.2671294470012E-02
(PID.TID 0000.0001) %MON dynstat_uvel_del2            =   8.8024442730161E-05
(PID.TID 0000.0001) %MON dynstat_vvel_max             =   7.0525313518901E-01
(PID.TID 0000.0001) %MON dynstat_vvel_min             =  -6.8448227325185E-01
(PID.TID 0000.0001) %MON dynstat_vvel_mean            =  -3.7694068897681E-04
(PID.TID 0000.0001) %MON dynstat_vvel_sd              =   1.3273719206552E-02
(PID.TID 0000.0001) %MON dynstat_vvel_del2            =   1.1843030622479E-04
(PID.TID 0000.0001) %MON dynstat_wvel_max             =   1.0358885547387E-04
(PID.TID 0000.0001) %MON dynstat_wvel_min             =  -9.7506592732401E-04
(PID.TID 0000.0001) %MON dynstat_wvel_mean            =  -2.0656268800001E-07
(PID.TID 0000.0001) %MON dynstat_wvel_sd              =   1.0520962233736E-05
(PID.TID 0000.0001) %MON dynstat_wvel_del2            =   9.8786246699412E-08
(PID.TID 0000.0001) %MON dynstat_theta_max            =   3.0925360128701E+01
(PID.TID 0000.0001) %MON dynstat_theta_min            =  -3.0173253846505E+00
(PID.TID 0000.0001) %MON dynstat_theta_mean           =   3.9089493310266E+00
(PID.TID 0000.0001) %MON dynstat_theta_sd             =   4.5706260745502E+00
(PID.TID 0000.0001) %MON dynstat_theta_del2           =   2.6546986771937E-03
(PID.TID 0000.0001) %MON dynstat_salt_max             =   4.1377044442223E+01
(PID.TID 0000.0001) %MON dynstat_salt_min             =   1.8518407817225E+01
(PID.TID 0000.0001) %MON dynstat_salt_mean            =   3.4772189292875E+01
(PID.TID 0000.0001) %MON dynstat_salt_sd              =   5.3094378671749E-01
(PID.TID 0000.0001) %MON dynstat_salt_del2            =   8.0365769396907E-04
(PID.TID 0000.0001) %MON dynstat_sst_max              =   3.0925360128701E+01
(PID.TID 0000.0001) %MON dynstat_sst_min              =  -1.8998956810521E+00
(PID.TID 0000.0001) %MON dynstat_sst_mean             =   1.8100097405158E+01
(PID.TID 0000.0001) %MON dynstat_sst_sd               =   9.7999295133255E+00
(PID.TID 0000.0001) %MON dynstat_sst_del2             =   1.5330153711934E-02
(PID.TID 0000.0001) %MON dynstat_sss_max              =   4.1377044442223E+01
(PID.TID 0000.0001) %MON dynstat_sss_min              =   1.8751370378213E+01
(PID.TID 0000.0001) %MON dynstat_sss_mean             =   3.4641351335718E+01
(PID.TID 0000.0001) %MON dynstat_sss_sd               =   1.4573268832721E+00
(PID.TID 0000.0001) %MON dynstat_sss_del2             =   8.0268181805638E-03
(PID.TID 0000.0001) %MON forcing_qnet_max             =   2.7427171875000E+04
(PID.TID 0000.0001) %MON forcing_qnet_min             =  -8.0893208007812E+03
(PID.TID 0000.0001) %MON forcing_qnet_mean            =  -1.7934895647027E+02
(PID.TID 0000.0001) %MON forcing_qnet_sd              =   9.4395198438245E+02
(PID.TID 0000.0001) %MON forcing_qnet_del2            =   3.0700719331733E+01
(PID.TID 0000.0001) %MON forcing_qsw_max              =   0.0000000000000E+00
(PID.TID 0000.0001) %MON forcing_qsw_min              =   0.0000000000000E+00
(PID.TID 0000.0001) %MON forcing_qsw_mean             =   0.0000000000000E+00
(PID.TID 0000.0001) %MON forcing_qsw_sd               =   0.0000000000000E+00
(PID.TID 0000.0001) %MON forcing_qsw_del2             =   0.0000000000000E+00
(PID.TID 0000.0001) %MON forcing_empmr_max            =   6.4625039696693E-02
(PID.TID 0000.0001) %MON forcing_empmr_min            =  -6.9168502092361E-01
(PID.TID 0000.0001) %MON forcing_empmr_mean           =  -6.6957004676841E-04
(PID.TID 0000.0001) %MON forcing_empmr_sd             =   1.3112859749768E-02
(PID.TID 0000.0001) %MON forcing_empmr_del2           =   5.1654437126555E-04
(PID.TID 0000.0001) %MON forcing_fu_max               =   5.4801289228757E-01
(PID.TID 0000.0001) %MON forcing_fu_min               =  -4.4641799185092E-01
(PID.TID 0000.0001) %MON forcing_fu_mean              =  -4.1255168011747E-03
(PID.TID 0000.0001) %MON forcing_fu_sd                =   6.8509574629944E-02
(PID.TID 0000.0001) %MON forcing_fu_del2              =   6.7687679415252E-04
(PID.TID 0000.0001) %MON forcing_fv_max               =   3.0914867831684E-01
(PID.TID 0000.0001) %MON forcing_fv_min               =  -3.4788516937630E-01
(PID.TID 0000.0001) %MON forcing_fv_mean              =  -1.3332087099671E-02
(PID.TID 0000.0001) %MON forcing_fv_sd                =   6.5600041909167E-02
(PID.TID 0000.0001) %MON forcing_fv_del2              =   5.4726463157888E-04
(PID.TID 0000.0001) %MON trAdv_CFL_u_max              =   7.1656451571262E-05
(PID.TID 0000.0001) %MON trAdv_CFL_v_max              =   1.1212105326065E-04
(PID.TID 0000.0001) %MON trAdv_CFL_w_max              =   3.0206790468454E-04
(PID.TID 0000.0001) %MON advcfl_uvel_max              =   7.6564867609384E-05
(PID.TID 0000.0001) %MON advcfl_vvel_max              =   6.3930506541123E-05
(PID.TID 0000.0001) %MON advcfl_wvel_max              =   6.6829470620639E-04
(PID.TID 0000.0001) %MON advcfl_W_hf_max              =   3.0206790468454E-04
(PID.TID 0000.0001) %MON pe_b_mean                    =   5.5380292871722E-04
(PID.TID 0000.0001) %MON ke_max                       =   3.0298807004751E-01
(PID.TID 0000.0001) %MON ke_mean                      =   1.5565587980582E-04
(PID.TID 0000.0001) %MON ke_vol                       =   1.3398059962468E+18
(PID.TID 0000.0001) %MON vort_r_min                   =  -2.3781337430798E-06
(PID.TID 0000.0001) %MON vort_r_max                   =   2.4147320917285E-06
(PID.TID 0000.0001) %MON vort_a_mean                  =  -2.0549865324846E-05
(PID.TID 0000.0001) %MON vort_a_sd                    =   7.5259523996489E-05
(PID.TID 0000.0001) %MON vort_p_mean                  =  -2.4783421783773E-05
(PID.TID 0000.0001) %MON vort_p_sd                    =   1.2811961040172E-04
(PID.TID 0000.0001) %MON surfExpan_theta_mean         =  -6.2596092948156E-06
(PID.TID 0000.0001) %MON surfExpan_salt_mean          =   7.2901002952721E-07
(PID.TID 0000.0001) // =======================================================
(PID.TID 0000.0001) // End MONITOR dynamic field statistics
(PID.TID 0000.0001) // =======================================================
 cg2d: Sum(rhs),rhsMax =  -4.86815145299664E+00  2.24308989792158E+05
(PID.TID 0000.0001)      cg2d_init_res =   5.69547039303007E-03
(PID.TID 0000.0001)      cg2d_iters(min,last) =      -1       1
(PID.TID 0000.0001)      cg2d_last_res =   5.45386965747890E-08
(PID.TID 0000.0001) // =======================================================
(PID.TID 0000.0001) // Begin MONITOR dynamic field statistics
(PID.TID 0000.0001) // =======================================================
(PID.TID 0000.0001) %MON time_tsnumber                =                 72100
(PID.TID 0000.0001) %MON time_secondsf                =   1.8025000000000E+06
(PID.TID 0000.0001) %MON dynstat_eta_max              =   8.4224932250360E+00
(PID.TID 0000.0001) %MON dynstat_eta_min              =  -1.6185004846409E+00
(PID.TID 0000.0001) %MON dynstat_eta_mean             =   9.7905464510515E-03
(PID.TID 0000.0001) %MON dynstat_eta_sd               =   6.4455044762649E-01
(PID.TID 0000.0001) %MON dynstat_eta_del2             =   7.6052338524304E-03
(PID.TID 0000.0001) %MON dynstat_uvel_max             =   8.3443101811619E-01
(PID.TID 0000.0001) %MON dynstat_uvel_min             =  -4.5550410129420E-01
(PID.TID 0000.0001) %MON dynstat_uvel_mean            =  -4.3910812673092E-04
(PID.TID 0000.0001) %MON dynstat_uvel_sd              =   1.2681938787965E-02
(PID.TID 0000.0001) %MON dynstat_uvel_del2            =   8.8539244164296E-05
(PID.TID 0000.0001) %MON dynstat_vvel_max             =   7.1179656723876E-01
(PID.TID 0000.0001) %MON dynstat_vvel_min             =  -6.9090702030188E-01
(PID.TID 0000.0001) %MON dynstat_vvel_mean            =  -3.7663689512764E-04
(PID.TID 0000.0001) %MON dynstat_vvel_sd              =   1.3283595692349E-02
(PID.TID 0000.0001) %MON dynstat_vvel_del2            =   1.1927424508826E-04
(PID.TID 0000.0001) %MON dynstat_wvel_max             =   1.0359416830167E-04
(PID.TID 0000.0001) %MON dynstat_wvel_min             =  -9.7990433388830E-04
(PID.TID 0000.0001) %MON dynstat_wvel_mean            =  -2.0845672109868E-07
(PID.TID 0000.0001) %MON dynstat_wvel_sd              =   1.0565975228281E-05
(PID.TID 0000.0001) %MON dynstat_wvel_del2            =   9.8990624633969E-08
(PID.TID 0000.0001) %MON dynstat_theta_max            =   3.0925354116439E+01
(PID.TID 0000.0001) %MON dynstat_theta_min            =  -3.0173122227171E+00
(PID.TID 0000.0001) %MON dynstat_theta_mean           =   3.9089497026098E+00
(PID.TID 0000.0001) %MON dynstat_theta_sd             =   4.5706272793687E+00
(PID.TID 0000.0001) %MON dynstat_theta_del2           =   2.6546866636841E-03
(PID.TID 0000.0001) %MON dynstat_salt_max             =   4.1377033845568E+01
(PID.TID 0000.0001) %MON dynstat_salt_min             =   1.8518408084636E+01
(PID.TID 0000.0001) %MON dynstat_salt_mean            =   3.4772189082598E+01
(PID.TID 0000.0001) %MON dynstat_salt_sd              =   5.3094415868603E-01
(PID.TID 0000.0001) %MON dynstat_salt_del2            =   8.0369287195086E-04
(PID.TID 0000.0001) %MON dynstat_sst_max              =   3.0925354116439E+01
(PID.TID 0000.0001) %MON dynstat_sst_min              =  -1.8998946003180E+00
(PID.TID 0000.0001) %MON dynstat_sst_mean             =   1.8100119725923E+01
(PID.TID 0000.0001) %MON dynstat_sst_sd               =   9.7999335314170E+00
(PID.TID 0000.0001) %MON dynstat_sst_del2             =   1.5329847306531E-02
(PID.TID 0000.0001) %MON dynstat_sss_max              =   4.1377033845568E+01
(PID.TID 0000.0001) %MON dynstat_sss_min              =   1.8751370310404E+01
(PID.TID 0000.0001) %MON dynstat_sss_mean             =   3.4641336345579E+01
(PID.TID 0000.0001) %MON dynstat_sss_sd               =   1.4573353604787E+00
(PID.TID 0000.0001) %MON dynstat_sss_del2             =   8.0273716431125E-03
(PID.TID 0000.0001) %MON forcing_qnet_max             =   2.6735308593750E+04
(PID.TID 0000.0001) %MON forcing_qnet_min             =  -8.0016079101562E+03
(PID.TID 0000.0001) %MON forcing_qnet_mean            =  -1.7781899317951E+02
(PID.TID 0000.0001) %MON forcing_qnet_sd              =   9.2962172478607E+02
(PID.TID 0000.0001) %MON forcing_qnet_del2            =   3.0209737667394E+01
(PID.TID 0000.0001) %MON forcing_qsw_max              =   0.0000000000000E+00
(PID.TID 0000.0001) %MON forcing_qsw_min              =   0.0000000000000E+00
(PID.TID 0000.0001) %MON forcing_qsw_mean             =   0.0000000000000E+00
(PID.TID 0000.0001) %MON forcing_qsw_sd               =   0.0000000000000E+00
(PID.TID 0000.0001) %MON forcing_qsw_del2             =   0.0000000000000E+00
(PID.TID 0000.0001) %MON forcing_empmr_max            =   6.3477136194706E-02
(PID.TID 0000.0001) %MON forcing_empmr_min            =  -6.8989598751068E-01
(PID.TID 0000.0001) %MON forcing_empmr_mean           =  -6.6906721373728E-04
(PID.TID 0000.0001) %MON forcing_empmr_sd             =   1.3087801640774E-02
(PID.TID 0000.0001) %MON forcing_empmr_del2           =   5.1558455806556E-04
(PID.TID 0000.0001) %MON forcing_fu_max               =   5.4801289228757E-01
(PID.TID 0000.0001) %MON forcing_fu_min               =  -4.4641799185092E-01
(PID.TID 0000.0001) %MON forcing_fu_mean              =  -4.1255168011747E-03
(PID.TID 0000.0001) %MON forcing_fu_sd                =   6.8509574629944E-02
(PID.TID 0000.0001) %MON forcing_fu_del2              =   6.7687679415252E-04
(PID.TID 0000.0001) %MON forcing_fv_max               =   3.0914867831684E-01
(PID.TID 0000.0001) %MON forcing_fv_min               =  -3.4788516937630E-01
(PID.TID 0000.0001) %MON forcing_fv_mean              =  -1.3332087099671E-02
(PID.TID 0000.0001) %MON forcing_fv_sd                =   6.5600041909167E-02
(PID.TID 0000.0001) %MON forcing_fv_del2              =   5.4726463157888E-04
(PID.TID 0000.0001) %MON trAdv_CFL_u_max              =   7.2348593310620E-05
(PID.TID 0000.0001) %MON trAdv_CFL_v_max              =   1.1312611250372E-04
(PID.TID 0000.0001) %MON trAdv_CFL_w_max              =   3.0112389768322E-04
(PID.TID 0000.0001) %MON advcfl_uvel_max              =   7.7295353242500E-05
(PID.TID 0000.0001) %MON advcfl_vvel_max              =   6.4523662253001E-05
(PID.TID 0000.0001) %MON advcfl_wvel_max              =   6.6656617150790E-04
(PID.TID 0000.0001) %MON advcfl_W_hf_max              =   3.0112389768322E-04
(PID.TID 0000.0001) %MON pe_b_mean                    =   5.5357611173511E-04
(PID.TID 0000.0001) %MON ke_max                       =   3.0815319273938E-01
(PID.TID 0000.0001) %MON ke_mean                      =   1.5590112607667E-04
(PID.TID 0000.0001) %MON ke_vol                       =   1.3398060021320E+18
(PID.TID 0000.0001) %MON vort_r_min                   =  -2.4019204351009E-06
(PID.TID 0000.0001) %MON vort_r_max                   =   2.4370064904951E-06
(PID.TID 0000.0001) %MON vort_a_mean                  =  -2.0549865324846E-05
(PID.TID 0000.0001) %MON vort_a_sd                    =   7.5259524092196E-05
(PID.TID 0000.0001) %MON vort_p_mean                  =  -2.4783421648293E-05
(PID.TID 0000.0001) %MON vort_p_sd                    =   1.2811960884525E-04
(PID.TID 0000.0001) %MON surfExpan_theta_mean         =  -6.2778767832310E-06
(PID.TID 0000.0001) %MON surfExpan_salt_mean          =   7.3200197377794E-07
(PID.TID 0000.0001) // =======================================================
(PID.TID 0000.0001) // End MONITOR dynamic field statistics
(PID.TID 0000.0001) // =======================================================
 cg2d: Sum(rhs),rhsMax =  -4.88151783853367E+00  2.24063732666978E+05
(PID.TID 0000.0001)      cg2d_init_res =   5.72446353101163E-03
(PID.TID 0000.0001)      cg2d_iters(min,last) =      -1       1
(PID.TID 0000.0001)      cg2d_last_res =   5.47844068683382E-08
(PID.TID 0000.0001) // =======================================================
(PID.TID 0000.0001) // Begin MONITOR dynamic field statistics
(PID.TID 0000.0001) // =======================================================
(PID.TID 0000.0001) %MON time_tsnumber                =                 72101
(PID.TID 0000.0001) %MON time_secondsf                =   1.8025250000000E+06
(PID.TID 0000.0001) %MON dynstat_eta_max              =   8.4113348630113E+00
(PID.TID 0000.0001) %MON dynstat_eta_min              =  -1.6185196198068E+00
(PID.TID 0000.0001) %MON dynstat_eta_mean             =   9.8066938833155E-03
(PID.TID 0000.0001) %MON dynstat_eta_sd               =   6.4441784339141E-01
(PID.TID 0000.0001) %MON dynstat_eta_del2             =   7.5867516727388E-03
(PID.TID 0000.0001) %MON dynstat_uvel_max             =   8.4230371231651E-01
(PID.TID 0000.0001) %MON dynstat_uvel_min             =  -4.5831849131136E-01
(PID.TID 0000.0001) %MON dynstat_uvel_mean            =  -4.3839395662487E-04
(PID.TID 0000.0001) %MON dynstat_uvel_sd              =   1.2692600153947E-02
(PID.TID 0000.0001) %MON dynstat_uvel_del2            =   8.9053521981151E-05
(PID.TID 0000.0001) %MON dynstat_vvel_max             =   7.1831895225665E-01
(PID.TID 0000.0001) %MON dynstat_vvel_min             =  -6.9732114999857E-01
(PID.TID 0000.0001) %MON dynstat_vvel_mean            =  -3.7633402481425E-04
(PID.TID 0000.0001) %MON dynstat_vvel_sd              =   1.3293465918773E-02
(PID.TID 0000.0001) %MON dynstat_vvel_del2            =   1.2011518505081E-04
(PID.TID 0000.0001) %MON dynstat_wvel_max             =   1.0359949844637E-04
(PID.TID 0000.0001) %MON dynstat_wvel_min             =  -9.8462794511034E-04
(PID.TID 0000.0001) %MON dynstat_wvel_mean            =  -2.1034946015878E-07
(PID.TID 0000.0001) %MON dynstat_wvel_sd              =   1.0610280172433E-05
(PID.TID 0000.0001) %MON dynstat_wvel_del2            =   9.9190263168001E-08
(PID.TID 0000.0001) %MON dynstat_theta_max            =   3.0925348104880E+01
(PID.TID 0000.0001) %MON dynstat_theta_min            =  -3.0172987877589E+00
(PID.TID 0000.0001) %MON dynstat_theta_mean           =   3.9089500718254E+00
(PID.TID 0000.0001) %MON dynstat_theta_sd             =   4.5706284776689E+00
(PID.TID 0000.0001) %MON dynstat_theta_del2           =   2.6546747212066E-03
(PID.TID 0000.0001) %MON dynstat_salt_max             =   4.1377023146374E+01
(PID.TID 0000.0001) %MON dynstat_salt_min             =   1.8518408352065E+01
(PID.TID 0000.0001) %MON dynstat_salt_mean            =   3.4772188872656E+01
(PID.TID 0000.0001) %MON dynstat_salt_sd              =   5.3094453150978E-01
(PID.TID 0000.0001) %MON dynstat_salt_del2            =   8.0372844909531E-04
(PID.TID 0000.0001) %MON dynstat_sst_max              =   3.0925348104880E+01
(PID.TID 0000.0001) %MON dynstat_sst_min              =  -1.8998935183648E+00
(PID.TID 0000.0001) %MON dynstat_sst_mean             =   1.8100141848137E+01
(PID.TID 0000.0001) %MON dynstat_sst_sd               =   9.7999375979130E+00
(PID.TID 0000.0001) %MON dynstat_sst_del2             =   1.5329543021738E-02
(PID.TID 0000.0001) %MON dynstat_sss_max              =   4.1377023146374E+01
(PID.TID 0000.0001) %MON dynstat_sss_min              =   1.8751370260402E+01
(PID.TID 0000.0001) %MON dynstat_sss_mean             =   3.4641321376685E+01
(PID.TID 0000.0001) %MON dynstat_sss_sd               =   1.4573438605231E+00
(PID.TID 0000.0001) %MON dynstat_sss_del2             =   8.0279313542660E-03
(PID.TID 0000.0001) %MON forcing_qnet_max             =   2.6070054687500E+04
(PID.TID 0000.0001) %MON forcing_qnet_min             =  -7.9386166992188E+03
(PID.TID 0000.0001) %MON forcing_qnet_mean            =  -1.7639760067576E+02
(PID.TID 0000.0001) %MON forcing_qnet_sd              =   9.1591975463848E+02
(PID.TID 0000.0001) %MON forcing_qnet_del2            =   2.9743890076013E+01
(PID.TID 0000.0001) %MON forcing_qsw_max              =   0.0000000000000E+00
(PID.TID 0000.0001) %MON forcing_qsw_min              =   0.0000000000000E+00
(PID.TID 0000.0001) %MON forcing_qsw_mean             =   0.0000000000000E+00
(PID.TID 0000.0001) %MON forcing_qsw_sd               =   0.0000000000000E+00
(PID.TID 0000.0001) %MON forcing_qsw_del2             =   0.0000000000000E+00
(PID.TID 0000.0001) %MON forcing_empmr_max            =   6.2353398650885E-02
(PID.TID 0000.0001) %MON forcing_empmr_min            =  -6.8812674283981E-01
(PID.TID 0000.0001) %MON forcing_empmr_mean           =  -6.6850369573789E-04
(PID.TID 0000.0001) %MON forcing_empmr_sd             =   1.3062630117168E-02
(PID.TID 0000.0001) %MON forcing_empmr_del2           =   5.1461970612271E-04
(PID.TID 0000.0001) %MON forcing_fu_max               =   5.4801289228757E-01
(PID.TID 0000.0001) %MON forcing_fu_min               =  -4.4641799185092E-01
(PID.TID 0000.0001) %MON forcing_fu_mean              =  -4.1255168011747E-03
(PID.TID 0000.0001) %MON forcing_fu_sd                =   6.8509574629944E-02
(PID.TID 0000.0001) %MON forcing_fu_del2              =   6.7687679415252E-04
(PID.TID 0000.0001) %MON forcing_fv_max               =   3.0914867831684E-01
(PID.TID 0000.0001) %MON forcing_fv_min               =  -3.4788516937630E-01
(PID.TID 0000.0001) %MON forcing_fv_mean              =  -1.3332087099671E-02
(PID.TID 0000.0001) %MON forcing_fv_sd                =   6.5600041909167E-02
(PID.TID 0000.0001) %MON forcing_fv_del2              =   5.4726463157888E-04
(PID.TID 0000.0001) %MON trAdv_CFL_u_max              =   7.3039823020847E-05
(PID.TID 0000.0001) %MON trAdv_CFL_v_max              =   1.1412624720338E-04
(PID.TID 0000.0001) %MON trAdv_CFL_w_max              =   3.0018846767032E-04
(PID.TID 0000.0001) %MON advcfl_uvel_max              =   7.8024619851690E-05
(PID.TID 0000.0001) %MON advcfl_vvel_max              =   6.5114910072039E-05
(PID.TID 0000.0001) %MON advcfl_wvel_max              =   6.6485675636697E-04
(PID.TID 0000.0001) %MON advcfl_W_hf_max              =   3.0018846767032E-04
(PID.TID 0000.0001) %MON pe_b_mean                    =   5.5334883091171E-04
(PID.TID 0000.0001) %MON ke_max                       =   3.1333795603043E-01
(PID.TID 0000.0001) %MON ke_mean                      =   1.5614668809816E-04
(PID.TID 0000.0001) %MON ke_vol                       =   1.3398060080128E+18
(PID.TID 0000.0001) %MON vort_r_min                   =  -2.4256276395372E-06
(PID.TID 0000.0001) %MON vort_r_max                   =   2.4592004527429E-06
(PID.TID 0000.0001) %MON vort_a_mean                  =  -2.0549865324846E-05
(PID.TID 0000.0001) %MON vort_a_sd                    =   7.5259524187869E-05
(PID.TID 0000.0001) %MON vort_p_mean                  =  -2.4783421512569E-05
(PID.TID 0000.0001) %MON vort_p_sd                    =   1.2811960728237E-04
(PID.TID 0000.0001) %MON surfExpan_theta_mean         =  -6.2953548324449E-06
(PID.TID 0000.0001) %MON surfExpan_salt_mean          =   7.3497708382618E-07
(PID.TID 0000.0001) // =======================================================
(PID.TID 0000.0001) // End MONITOR dynamic field statistics
(PID.TID 0000.0001) // =======================================================
 cg2d: Sum(rhs),rhsMax =  -4.89495669038017E+00  2.23816191973736E+05
(PID.TID 0000.0001)      cg2d_init_res =   5.75318430840349E-03
(PID.TID 0000.0001)      cg2d_iters(min,last) =      -1       1
(PID.TID 0000.0001)      cg2d_last_res =   5.50245604140534E-08
(PID.TID 0000.0001) // =======================================================
(PID.TID 0000.0001) // Begin MONITOR dynamic field statistics
(PID.TID 0000.0001) // =======================================================
(PID.TID 0000.0001) %MON time_tsnumber                =                 72102
(PID.TID 0000.0001) %MON time_secondsf                =   1.8025500000000E+06
(PID.TID 0000.0001) %MON dynstat_eta_max              =   8.4000733723895E+00
(PID.TID 0000.0001) %MON dynstat_eta_min              =  -1.6185393364088E+00
(PID.TID 0000.0001) %MON dynstat_eta_mean             =   9.8228277315387E-03
(PID.TID 0000.0001) %MON dynstat_eta_sd               =   6.4428496269670E-01
(PID.TID 0000.0001) %MON dynstat_eta_del2             =   7.5681763534019E-03
(PID.TID 0000.0001) %MON dynstat_uvel_max             =   8.5016308656332E-01
(PID.TID 0000.0001) %MON dynstat_uvel_min             =  -4.6112829269318E-01
(PID.TID 0000.0001) %MON dynstat_uvel_mean            =  -4.3767551778417E-04
(PID.TID 0000.0001) %MON dynstat_uvel_sd              =   1.2703276963129E-02
(PID.TID 0000.0001) %MON dynstat_uvel_del2            =   8.9567230808080E-05
(PID.TID 0000.0001) %MON dynstat_vvel_max             =   7.2482021637427E-01
(PID.TID 0000.0001) %MON dynstat_vvel_min             =  -7.0372456450343E-01
(PID.TID 0000.0001) %MON dynstat_vvel_mean            =  -3.7603213985455E-04
(PID.TID 0000.0001) %MON dynstat_vvel_sd              =   1.3303328282768E-02
(PID.TID 0000.0001) %MON dynstat_vvel_del2            =   1.2095307157163E-04
(PID.TID 0000.0001) %MON dynstat_wvel_max             =   1.0360484592182E-04
(PID.TID 0000.0001) %MON dynstat_wvel_min             =  -9.8923706935036E-04
(PID.TID 0000.0001) %MON dynstat_wvel_mean            =  -2.1224315062904E-07
(PID.TID 0000.0001) %MON dynstat_wvel_sd              =   1.0653872152380E-05
(PID.TID 0000.0001) %MON dynstat_wvel_del2            =   9.9385260916836E-08
(PID.TID 0000.0001) %MON dynstat_theta_max            =   3.0925342094023E+01
(PID.TID 0000.0001) %MON dynstat_theta_min            =  -3.0172850797040E+00
(PID.TID 0000.0001) %MON dynstat_theta_mean           =   3.9089504385785E+00
(PID.TID 0000.0001) %MON dynstat_theta_sd             =   4.5706296695255E+00
(PID.TID 0000.0001) %MON dynstat_theta_del2           =   2.6546628673436E-03
(PID.TID 0000.0001) %MON dynstat_salt_max             =   4.1377012344853E+01
(PID.TID 0000.0001) %MON dynstat_salt_min             =   1.8518408619509E+01
(PID.TID 0000.0001) %MON dynstat_salt_mean            =   3.4772188662995E+01
(PID.TID 0000.0001) %MON dynstat_salt_sd              =   5.3094490516842E-01
(PID.TID 0000.0001) %MON dynstat_salt_del2            =   8.0376442178877E-04
(PID.TID 0000.0001) %MON dynstat_sst_max              =   3.0925342094023E+01
(PID.TID 0000.0001) %MON dynstat_sst_min              =  -1.8998924351789E+00
(PID.TID 0000.0001) %MON dynstat_sst_mean             =   1.8100163765884E+01
(PID.TID 0000.0001) %MON dynstat_sst_sd               =   9.7999417250616E+00
(PID.TID 0000.0001) %MON dynstat_sst_del2             =   1.5329241322025E-02
(PID.TID 0000.0001) %MON dynstat_sss_max              =   4.1377012344853E+01
(PID.TID 0000.0001) %MON dynstat_sss_min              =   1.8751370156556E+01
(PID.TID 0000.0001) %MON dynstat_sss_mean             =   3.4641306425170E+01
(PID.TID 0000.0001) %MON dynstat_sss_sd               =   1.4573523825577E+00
(PID.TID 0000.0001) %MON dynstat_sss_del2             =   8.0284972549566E-03
(PID.TID 0000.0001) %MON forcing_qnet_max             =   2.5413664062500E+04
(PID.TID 0000.0001) %MON forcing_qnet_min             =  -7.9208896484375E+03
(PID.TID 0000.0001) %MON forcing_qnet_mean            =  -1.7491946825813E+02
(PID.TID 0000.0001) %MON forcing_qnet_sd              =   9.0251625064511E+02
(PID.TID 0000.0001) %MON forcing_qnet_del2            =   2.9278749437184E+01
(PID.TID 0000.0001) %MON forcing_qsw_max              =   0.0000000000000E+00
(PID.TID 0000.0001) %MON forcing_qsw_min              =   0.0000000000000E+00
(PID.TID 0000.0001) %MON forcing_qsw_mean             =   0.0000000000000E+00
(PID.TID 0000.0001) %MON forcing_qsw_sd               =   0.0000000000000E+00
(PID.TID 0000.0001) %MON forcing_qsw_del2             =   0.0000000000000E+00
(PID.TID 0000.0001) %MON forcing_empmr_max            =   6.1245772987604E-02
(PID.TID 0000.0001) %MON forcing_empmr_min            =  -6.8635737895966E-01
(PID.TID 0000.0001) %MON forcing_empmr_mean           =  -6.6794131643010E-04
(PID.TID 0000.0001) %MON forcing_empmr_sd             =   1.3037413532909E-02
(PID.TID 0000.0001) %MON forcing_empmr_del2           =   5.1364762176017E-04
(PID.TID 0000.0001) %MON forcing_fu_max               =   5.4801289228757E-01
(PID.TID 0000.0001) %MON forcing_fu_min               =  -4.4641799185092E-01
(PID.TID 0000.0001) %MON forcing_fu_mean              =  -4.1255168011747E-03
(PID.TID 0000.0001) %MON forcing_fu_sd                =   6.8509574629944E-02
(PID.TID 0000.0001) %MON forcing_fu_del2              =   6.7687679415252E-04
(PID.TID 0000.0001) %MON forcing_fv_max               =   3.0914867831684E-01
(PID.TID 0000.0001) %MON forcing_fv_min               =  -3.4788516937630E-01
(PID.TID 0000.0001) %MON forcing_fv_mean              =  -1.3332087099671E-02
(PID.TID 0000.0001) %MON forcing_fv_sd                =   6.5600041909167E-02
(PID.TID 0000.0001) %MON forcing_fv_del2              =   5.4726463157888E-04
(PID.TID 0000.0001) %MON trAdv_CFL_u_max              =   7.3730127799454E-05
(PID.TID 0000.0001) %MON trAdv_CFL_v_max              =   1.1512143101144E-04
(PID.TID 0000.0001) %MON trAdv_CFL_w_max              =   2.9925274617093E-04
(PID.TID 0000.0001) %MON advcfl_uvel_max              =   7.8752652601532E-05
(PID.TID 0000.0001) %MON advcfl_vvel_max              =   6.5704243302136E-05
(PID.TID 0000.0001) %MON advcfl_wvel_max              =   6.6314722604798E-04
(PID.TID 0000.0001) %MON advcfl_W_hf_max              =   2.9925274617093E-04
(PID.TID 0000.0001) %MON pe_b_mean                    =   5.5312112270825E-04
(PID.TID 0000.0001) %MON ke_max                       =   3.1854161164201E-01
(PID.TID 0000.0001) %MON ke_mean                      =   1.5639252772855E-04
(PID.TID 0000.0001) %MON ke_vol                       =   1.3398060138886E+18
(PID.TID 0000.0001) %MON vort_r_min                   =  -2.4492547796782E-06
(PID.TID 0000.0001) %MON vort_r_max                   =   2.4813137520654E-06
(PID.TID 0000.0001) %MON vort_a_mean                  =  -2.0549865324846E-05
(PID.TID 0000.0001) %MON vort_a_sd                    =   7.5259524283488E-05
(PID.TID 0000.0001) %MON vort_p_mean                  =  -2.4783421376614E-05
(PID.TID 0000.0001) %MON vort_p_sd                    =   1.2811960571300E-04
(PID.TID 0000.0001) %MON surfExpan_theta_mean         =  -6.3129079402745E-06
(PID.TID 0000.0001) %MON surfExpan_salt_mean          =   7.3794168840445E-07
(PID.TID 0000.0001) // =======================================================
(PID.TID 0000.0001) // End MONITOR dynamic field statistics
(PID.TID 0000.0001) // =======================================================
 cg2d: Sum(rhs),rhsMax =  -4.90846870055709E+00  2.23566373080189E+05
(PID.TID 0000.0001)      cg2d_init_res =   5.78165772367627E-03
(PID.TID 0000.0001)      cg2d_iters(min,last) =      -1       1
(PID.TID 0000.0001)      cg2d_last_res =   5.52596459367376E-08
(PID.TID 0000.0001) // =======================================================
(PID.TID 0000.0001) // Begin MONITOR dynamic field statistics
(PID.TID 0000.0001) // =======================================================
(PID.TID 0000.0001) %MON time_tsnumber                =                 72103
(PID.TID 0000.0001) %MON time_secondsf                =   1.8025750000000E+06
(PID.TID 0000.0001) %MON dynstat_eta_max              =   8.3887090294451E+00
(PID.TID 0000.0001) %MON dynstat_eta_min              =  -1.6185596361192E+00
(PID.TID 0000.0001) %MON dynstat_eta_mean             =   9.8389483111368E-03
(PID.TID 0000.0001) %MON dynstat_eta_sd               =   6.4415182706595E-01
(PID.TID 0000.0001) %MON dynstat_eta_del2             =   7.5495090139552E-03
(PID.TID 0000.0001) %MON dynstat_uvel_max             =   8.5800898173734E-01
(PID.TID 0000.0001) %MON dynstat_uvel_min             =  -4.6393348004004E-01
(PID.TID 0000.0001) %MON dynstat_uvel_mean            =  -4.3695283472962E-04
(PID.TID 0000.0001) %MON dynstat_uvel_sd              =   1.2713967630534E-02
(PID.TID 0000.0001) %MON dynstat_uvel_del2            =   9.0080326268643E-05
(PID.TID 0000.0001) %MON dynstat_vvel_max             =   7.3130028670070E-01
(PID.TID 0000.0001) %MON dynstat_vvel_min             =  -7.1011716618766E-01
(PID.TID 0000.0001) %MON dynstat_vvel_mean            =  -3.7573130164573E-04
(PID.TID 0000.0001) %MON dynstat_vvel_sd              =   1.3313181220252E-02
(PID.TID 0000.0001) %MON dynstat_vvel_del2            =   1.2178785193283E-04
(PID.TID 0000.0001) %MON dynstat_wvel_max             =   1.0361021074922E-04
(PID.TID 0000.0001) %MON dynstat_wvel_min             =  -9.9373201771383E-04
(PID.TID 0000.0001) %MON dynstat_wvel_mean            =  -2.1413391480016E-07
(PID.TID 0000.0001) %MON dynstat_wvel_sd              =   1.0696777885516E-05
(PID.TID 0000.0001) %MON dynstat_wvel_del2            =   9.9576778404415E-08
(PID.TID 0000.0001) %MON dynstat_theta_max            =   3.0925336083866E+01
(PID.TID 0000.0001) %MON dynstat_theta_min            =  -3.0172710985349E+00
(PID.TID 0000.0001) %MON dynstat_theta_mean           =   3.9089508030568E+00
(PID.TID 0000.0001) %MON dynstat_theta_sd             =   4.5706308551427E+00
(PID.TID 0000.0001) %MON dynstat_theta_del2           =   2.6546510859858E-03
(PID.TID 0000.0001) %MON dynstat_salt_max             =   4.1377001441213E+01
(PID.TID 0000.0001) %MON dynstat_salt_min             =   1.8518408886968E+01
(PID.TID 0000.0001) %MON dynstat_salt_mean            =   3.4772188453636E+01
(PID.TID 0000.0001) %MON dynstat_salt_sd              =   5.3094527970682E-01
(PID.TID 0000.0001) %MON dynstat_salt_del2            =   8.0380079631459E-04
(PID.TID 0000.0001) %MON dynstat_sst_max              =   3.0925336083866E+01
(PID.TID 0000.0001) %MON dynstat_sst_min              =  -1.8998913507475E+00
(PID.TID 0000.0001) %MON dynstat_sst_mean             =   1.8100185493346E+01
(PID.TID 0000.0001) %MON dynstat_sst_sd               =   9.7999458998878E+00
(PID.TID 0000.0001) %MON dynstat_sst_del2             =   1.5328941769727E-02
(PID.TID 0000.0001) %MON dynstat_sss_max              =   4.1377001441213E+01
(PID.TID 0000.0001) %MON dynstat_sss_min              =   1.8751370071117E+01
(PID.TID 0000.0001) %MON dynstat_sss_mean             =   3.4641291492580E+01
(PID.TID 0000.0001) %MON dynstat_sss_sd               =   1.4573609279267E+00
(PID.TID 0000.0001) %MON dynstat_sss_del2             =   8.0290694459396E-03
(PID.TID 0000.0001) %MON forcing_qnet_max             =   2.4775017578125E+04
(PID.TID 0000.0001) %MON forcing_qnet_min             =  -7.9032080078125E+03
(PID.TID 0000.0001) %MON forcing_qnet_mean            =  -1.7355528537987E+02
(PID.TID 0000.0001) %MON forcing_qnet_sd              =   8.8948270963274E+02
(PID.TID 0000.0001) %MON forcing_qnet_del2            =   2.8830722568806E+01
(PID.TID 0000.0001) %MON forcing_qsw_max              =   0.0000000000000E+00
(PID.TID 0000.0001) %MON forcing_qsw_min              =   0.0000000000000E+00
(PID.TID 0000.0001) %MON forcing_qsw_mean             =   0.0000000000000E+00
(PID.TID 0000.0001) %MON forcing_qsw_sd               =   0.0000000000000E+00
(PID.TID 0000.0001) %MON forcing_qsw_del2             =   0.0000000000000E+00
(PID.TID 0000.0001) %MON forcing_empmr_max            =   6.0158286243677E-02
(PID.TID 0000.0001) %MON forcing_empmr_min            =  -6.8458807468414E-01
(PID.TID 0000.0001) %MON forcing_empmr_mean           =  -6.6739199536185E-04
(PID.TID 0000.0001) %MON forcing_empmr_sd             =   1.3012572156379E-02
(PID.TID 0000.0001) %MON forcing_empmr_del2           =   5.1269208170097E-04
(PID.TID 0000.0001) %MON forcing_fu_max               =   5.4801289228757E-01
(PID.TID 0000.0001) %MON forcing_fu_min               =  -4.4641799185092E-01
(PID.TID 0000.0001) %MON forcing_fu_mean              =  -4.1255168011747E-03
(PID.TID 0000.0001) %MON forcing_fu_sd                =   6.8509574629944E-02
(PID.TID 0000.0001) %MON forcing_fu_del2              =   6.7687679415252E-04
(PID.TID 0000.0001) %MON forcing_fv_max               =   3.0914867831684E-01
(PID.TID 0000.0001) %MON forcing_fv_min               =  -3.4788516937630E-01
(PID.TID 0000.0001) %MON forcing_fv_mean              =  -1.3332087099671E-02
(PID.TID 0000.0001) %MON forcing_fv_sd                =   6.5600041909167E-02
(PID.TID 0000.0001) %MON forcing_fv_del2              =   5.4726463157888E-04
(PID.TID 0000.0001) %MON trAdv_CFL_u_max              =   7.4419494798504E-05
(PID.TID 0000.0001) %MON trAdv_CFL_v_max              =   1.1611163778519E-04
(PID.TID 0000.0001) %MON trAdv_CFL_w_max              =   2.9831682990739E-04
(PID.TID 0000.0001) %MON advcfl_uvel_max              =   7.9479436752423E-05
(PID.TID 0000.0001) %MON advcfl_vvel_max              =   6.6291655335803E-05
(PID.TID 0000.0001) %MON advcfl_wvel_max              =   6.6143775331801E-04
(PID.TID 0000.0001) %MON advcfl_W_hf_max              =   2.9831682990739E-04
(PID.TID 0000.0001) %MON pe_b_mean                    =   5.5289302436486E-04
(PID.TID 0000.0001) %MON ke_max                       =   3.2376341077525E-01
(PID.TID 0000.0001) %MON ke_mean                      =   1.5663860741850E-04
(PID.TID 0000.0001) %MON ke_vol                       =   1.3398060197595E+18
(PID.TID 0000.0001) %MON vort_r_min                   =  -2.4728012834100E-06
(PID.TID 0000.0001) %MON vort_r_max                   =   2.5033461631269E-06
(PID.TID 0000.0001) %MON vort_a_mean                  =  -2.0549865324846E-05
(PID.TID 0000.0001) %MON vort_a_sd                    =   7.5259524379034E-05
(PID.TID 0000.0001) %MON vort_p_mean                  =  -2.4783421240430E-05
(PID.TID 0000.0001) %MON vort_p_sd                    =   1.2811960413706E-04
(PID.TID 0000.0001) %MON surfExpan_theta_mean         =  -6.3304515293131E-06
(PID.TID 0000.0001) %MON surfExpan_salt_mean          =   7.4094352479147E-07
(PID.TID 0000.0001) // =======================================================
(PID.TID 0000.0001) // End MONITOR dynamic field statistics
(PID.TID 0000.0001) // =======================================================
 cg2d: Sum(rhs),rhsMax =  -4.92205515824961E+00  2.23314281388609E+05
(PID.TID 0000.0001)      cg2d_init_res =   5.80985976481365E-03
(PID.TID 0000.0001)      cg2d_iters(min,last) =      -1       1
(PID.TID 0000.0001)      cg2d_last_res =   5.54895160255127E-08
(PID.TID 0000.0001) // =======================================================
(PID.TID 0000.0001) // Begin MONITOR dynamic field statistics
(PID.TID 0000.0001) // =======================================================
(PID.TID 0000.0001) %MON time_tsnumber                =                 72104
(PID.TID 0000.0001) %MON time_secondsf                =   1.8026000000000E+06
(PID.TID 0000.0001) %MON dynstat_eta_max              =   8.3772421123105E+00
(PID.TID 0000.0001) %MON dynstat_eta_min              =  -1.6185805201131E+00
(PID.TID 0000.0001) %MON dynstat_eta_mean             =   9.8550571221627E-03
(PID.TID 0000.0001) %MON dynstat_eta_sd               =   6.4401845620271E-01
(PID.TID 0000.0001) %MON dynstat_eta_del2             =   7.5307507690195E-03
(PID.TID 0000.0001) %MON dynstat_uvel_max             =   8.6584123976096E-01
(PID.TID 0000.0001) %MON dynstat_uvel_min             =  -4.6673402802512E-01
(PID.TID 0000.0001) %MON dynstat_uvel_mean            =  -4.3622593258516E-04
(PID.TID 0000.0001) %MON dynstat_uvel_sd              =   1.2724670590895E-02
(PID.TID 0000.0001) %MON dynstat_uvel_del2            =   9.0592764970022E-05
(PID.TID 0000.0001) %MON dynstat_vvel_max             =   7.3775909132791E-01
(PID.TID 0000.0001) %MON dynstat_vvel_min             =  -7.1649885763540E-01
(PID.TID 0000.0001) %MON dynstat_vvel_mean            =  -3.7543157081268E-04
(PID.TID 0000.0001) %MON dynstat_vvel_sd              =   1.3323023206171E-02
(PID.TID 0000.0001) %MON dynstat_vvel_del2            =   1.2261947518128E-04
(PID.TID 0000.0001) %MON dynstat_wvel_max             =   1.0361559300364E-04
(PID.TID 0000.0001) %MON dynstat_wvel_min             =  -9.9811310348452E-04
(PID.TID 0000.0001) %MON dynstat_wvel_mean            =  -2.1605764321065E-07
(PID.TID 0000.0001) %MON dynstat_wvel_sd              =   1.0739001879431E-05
(PID.TID 0000.0001) %MON dynstat_wvel_del2            =   9.9765906069041E-08
(PID.TID 0000.0001) %MON dynstat_theta_max            =   3.0925330074408E+01
(PID.TID 0000.0001) %MON dynstat_theta_min            =  -3.0172568442924E+00
(PID.TID 0000.0001) %MON dynstat_theta_mean           =   3.9089511652029E+00
(PID.TID 0000.0001) %MON dynstat_theta_sd             =   4.5706320342817E+00
(PID.TID 0000.0001) %MON dynstat_theta_del2           =   2.6546393726320E-03
(PID.TID 0000.0001) %MON dynstat_salt_max             =   4.1376990234738E+01
(PID.TID 0000.0001) %MON dynstat_salt_min             =   1.8518409154441E+01
(PID.TID 0000.0001) %MON dynstat_salt_mean            =   3.4772188244567E+01
(PID.TID 0000.0001) %MON dynstat_salt_sd              =   5.3094565509507E-01
(PID.TID 0000.0001) %MON dynstat_salt_del2            =   8.0383756891818E-04
(PID.TID 0000.0001) %MON dynstat_sst_max              =   3.0925330074408E+01
(PID.TID 0000.0001) %MON dynstat_sst_min              =  -1.8998902650590E+00
(PID.TID 0000.0001) %MON dynstat_sst_mean             =   1.8100207026471E+01
(PID.TID 0000.0001) %MON dynstat_sst_sd               =   9.7999501203376E+00
(PID.TID 0000.0001) %MON dynstat_sst_del2             =   1.5328644261575E-02
(PID.TID 0000.0001) %MON dynstat_sss_max              =   4.1376990234738E+01
(PID.TID 0000.0001) %MON dynstat_sss_min              =   1.8751370001761E+01
(PID.TID 0000.0001) %MON dynstat_sss_mean             =   3.4641276578269E+01
(PID.TID 0000.0001) %MON dynstat_sss_sd               =   1.4573694958745E+00
(PID.TID 0000.0001) %MON dynstat_sss_del2             =   8.0296478735277E-03
(PID.TID 0000.0001) %MON forcing_qnet_max             =   2.4154109375000E+04
(PID.TID 0000.0001) %MON forcing_qnet_min             =  -7.8483764648438E+03
(PID.TID 0000.0001) %MON forcing_qnet_mean            =  -1.7214869080346E+02
(PID.TID 0000.0001) %MON forcing_qnet_sd              =   8.7692572350421E+02
(PID.TID 0000.0001) %MON forcing_qnet_del2            =   2.8396749078915E+01
(PID.TID 0000.0001) %MON forcing_qsw_max              =   0.0000000000000E+00
(PID.TID 0000.0001) %MON forcing_qsw_min              =   0.0000000000000E+00
(PID.TID 0000.0001) %MON forcing_qsw_mean             =   0.0000000000000E+00
(PID.TID 0000.0001) %MON forcing_qsw_sd               =   0.0000000000000E+00
(PID.TID 0000.0001) %MON forcing_qsw_del2             =   0.0000000000000E+00
(PID.TID 0000.0001) %MON forcing_empmr_max            =   5.9090930968523E-02
(PID.TID 0000.0001) %MON forcing_empmr_min            =  -6.8283843994141E-01
(PID.TID 0000.0001) %MON forcing_empmr_mean           =  -6.6690477647384E-04
(PID.TID 0000.0001) %MON forcing_empmr_sd             =   1.2988089179183E-02
(PID.TID 0000.0001) %MON forcing_empmr_del2           =   5.1175382103900E-04
(PID.TID 0000.0001) %MON forcing_fu_max               =   5.4801289228757E-01
(PID.TID 0000.0001) %MON forcing_fu_min               =  -4.4641799185092E-01
(PID.TID 0000.0001) %MON forcing_fu_mean              =  -4.1255168011747E-03
(PID.TID 0000.0001) %MON forcing_fu_sd                =   6.8509574629944E-02
(PID.TID 0000.0001) %MON forcing_fu_del2              =   6.7687679415252E-04
(PID.TID 0000.0001) %MON forcing_fv_max               =   3.0914867831684E-01
(PID.TID 0000.0001) %MON forcing_fv_min               =  -3.4788516937630E-01
(PID.TID 0000.0001) %MON forcing_fv_mean              =  -1.3332087099671E-02
(PID.TID 0000.0001) %MON forcing_fv_sd                =   6.5600041909167E-02
(PID.TID 0000.0001) %MON forcing_fv_del2              =   5.4726463157888E-04
(PID.TID 0000.0001) %MON trAdv_CFL_u_max              =   7.5107911225218E-05
(PID.TID 0000.0001) %MON trAdv_CFL_v_max              =   1.1709684158927E-04
(PID.TID 0000.0001) %MON trAdv_CFL_w_max              =   2.9738948750346E-04
(PID.TID 0000.0001) %MON advcfl_uvel_max              =   8.0204957661257E-05
(PID.TID 0000.0001) %MON advcfl_vvel_max              =   6.6877139654645E-05
(PID.TID 0000.0001) %MON advcfl_wvel_max              =   6.5974728496754E-04
(PID.TID 0000.0001) %MON advcfl_W_hf_max              =   2.9738948750346E-04
(PID.TID 0000.0001) %MON pe_b_mean                    =   5.5266456999975E-04
(PID.TID 0000.0001) %MON ke_max                       =   3.2900260422578E-01
(PID.TID 0000.0001) %MON ke_mean                      =   1.5688489021259E-04
(PID.TID 0000.0001) %MON ke_vol                       =   1.3398060256256E+18
(PID.TID 0000.0001) %MON vort_r_min                   =  -2.4962665832142E-06
(PID.TID 0000.0001) %MON vort_r_max                   =   2.5252974616947E-06
(PID.TID 0000.0001) %MON vort_a_mean                  =  -2.0549865324846E-05
(PID.TID 0000.0001) %MON vort_a_sd                    =   7.5259524474488E-05
(PID.TID 0000.0001) %MON vort_p_mean                  =  -2.4783421104018E-05
(PID.TID 0000.0001) %MON vort_p_sd                    =   1.2811960255450E-04
(PID.TID 0000.0001) %MON surfExpan_theta_mean         =  -6.3487579418833E-06
(PID.TID 0000.0001) %MON surfExpan_salt_mean          =   7.4400227176050E-07
(PID.TID 0000.0001) // =======================================================
(PID.TID 0000.0001) // End MONITOR dynamic field statistics
(PID.TID 0000.0001) // =======================================================
 cg2d: Sum(rhs),rhsMax =  -4.93571569786852E+00  2.23059920696996E+05
(PID.TID 0000.0001)      cg2d_init_res =   5.83777207660412E-03
(PID.TID 0000.0001)      cg2d_iters(min,last) =      -1       1
(PID.TID 0000.0001)      cg2d_last_res =   5.57145849882024E-08
(PID.TID 0000.0001) // =======================================================
(PID.TID 0000.0001) // Begin MONITOR dynamic field statistics
(PID.TID 0000.0001) // =======================================================
(PID.TID 0000.0001) %MON time_tsnumber                =                 72105
(PID.TID 0000.0001) %MON time_secondsf                =   1.8026250000000E+06
(PID.TID 0000.0001) %MON dynstat_eta_max              =   8.3656729009611E+00
(PID.TID 0000.0001) %MON dynstat_eta_min              =  -1.6186019891002E+00
(PID.TID 0000.0001) %MON dynstat_eta_mean             =   9.8711522661395E-03
(PID.TID 0000.0001) %MON dynstat_eta_sd               =   6.4388486899551E-01
(PID.TID 0000.0001) %MON dynstat_eta_del2             =   7.5119025862981E-03
(PID.TID 0000.0001) %MON dynstat_uvel_max             =   8.7365970359394E-01
(PID.TID 0000.0001) %MON dynstat_uvel_min             =  -4.6952991138785E-01
(PID.TID 0000.0001) %MON dynstat_uvel_mean            =  -4.3549483708409E-04
(PID.TID 0000.0001) %MON dynstat_uvel_sd              =   1.2735384298203E-02
(PID.TID 0000.0001) %MON dynstat_uvel_del2            =   9.1104504425821E-05
(PID.TID 0000.0001) %MON dynstat_vvel_max             =   7.4419655932739E-01
(PID.TID 0000.0001) %MON dynstat_vvel_min             =  -7.2286954159554E-01
(PID.TID 0000.0001) %MON dynstat_vvel_mean            =  -3.7513300733797E-04
(PID.TID 0000.0001) %MON dynstat_vvel_sd              =   1.3332852754417E-02
(PID.TID 0000.0001) %MON dynstat_vvel_del2            =   1.2344789204753E-04
(PID.TID 0000.0001) %MON dynstat_wvel_max             =   1.0362099270196E-04
(PID.TID 0000.0001) %MON dynstat_wvel_min             =  -1.0023806417777E-03
(PID.TID 0000.0001) %MON dynstat_wvel_mean            =  -2.1797473413100E-07
(PID.TID 0000.0001) %MON dynstat_wvel_sd              =   1.0780502280938E-05
(PID.TID 0000.0001) %MON dynstat_wvel_del2            =   9.9949510752414E-08
(PID.TID 0000.0001) %MON dynstat_theta_max            =   3.0925324065650E+01
(PID.TID 0000.0001) %MON dynstat_theta_min            =  -3.0172423170750E+00
(PID.TID 0000.0001) %MON dynstat_theta_mean           =   3.9089515252123E+00
(PID.TID 0000.0001) %MON dynstat_theta_sd             =   4.5706332077346E+00
(PID.TID 0000.0001) %MON dynstat_theta_del2           =   2.6546277155994E-03
(PID.TID 0000.0001) %MON dynstat_salt_max             =   4.1376979127499E+01
(PID.TID 0000.0001) %MON dynstat_salt_min             =   1.8518409421927E+01
(PID.TID 0000.0001) %MON dynstat_salt_mean            =   3.4772188035791E+01
(PID.TID 0000.0001) %MON dynstat_salt_sd              =   5.3094603133237E-01
(PID.TID 0000.0001) %MON dynstat_salt_del2            =   8.0387473855167E-04
(PID.TID 0000.0001) %MON dynstat_sst_max              =   3.0925324065650E+01
(PID.TID 0000.0001) %MON dynstat_sst_min              =  -1.8998891781008E+00
(PID.TID 0000.0001) %MON dynstat_sst_mean             =   1.8100228381009E+01
(PID.TID 0000.0001) %MON dynstat_sst_sd               =   9.7999543925532E+00
(PID.TID 0000.0001) %MON dynstat_sst_del2             =   1.5328348518990E-02
(PID.TID 0000.0001) %MON dynstat_sss_max              =   4.1376979127499E+01
(PID.TID 0000.0001) %MON dynstat_sss_min              =   1.8751369946462E+01
(PID.TID 0000.0001) %MON dynstat_sss_mean             =   3.4641261682567E+01
(PID.TID 0000.0001) %MON dynstat_sss_sd               =   1.4573780865428E+00
(PID.TID 0000.0001) %MON dynstat_sss_del2             =   8.0302325303712E-03
(PID.TID 0000.0001) %MON forcing_qnet_max             =   2.3542072265625E+04
(PID.TID 0000.0001) %MON forcing_qnet_min             =  -7.8308676757812E+03
(PID.TID 0000.0001) %MON forcing_qnet_mean            =  -1.7086649951417E+02
(PID.TID 0000.0001) %MON forcing_qnet_sd              =   8.6477416452358E+02
(PID.TID 0000.0001) %MON forcing_qnet_del2            =   2.7979094867633E+01
(PID.TID 0000.0001) %MON forcing_qsw_max              =   0.0000000000000E+00
(PID.TID 0000.0001) %MON forcing_qsw_min              =   0.0000000000000E+00
(PID.TID 0000.0001) %MON forcing_qsw_mean             =   0.0000000000000E+00
(PID.TID 0000.0001) %MON forcing_qsw_sd               =   0.0000000000000E+00
(PID.TID 0000.0001) %MON forcing_qsw_del2             =   0.0000000000000E+00
(PID.TID 0000.0001) %MON forcing_empmr_max            =   5.8043722063303E-02
(PID.TID 0000.0001) %MON forcing_empmr_min            =  -6.8108880519867E-01
(PID.TID 0000.0001) %MON forcing_empmr_mean           =  -6.6633896064838E-04
(PID.TID 0000.0001) %MON forcing_empmr_sd             =   1.2963163214333E-02
(PID.TID 0000.0001) %MON forcing_empmr_del2           =   5.1080037021770E-04
(PID.TID 0000.0001) %MON forcing_fu_max               =   5.4801289228757E-01
(PID.TID 0000.0001) %MON forcing_fu_min               =  -4.4641799185092E-01
(PID.TID 0000.0001) %MON forcing_fu_mean              =  -4.1255168011747E-03
(PID.TID 0000.0001) %MON forcing_fu_sd                =   6.8509574629944E-02
(PID.TID 0000.0001) %MON forcing_fu_del2              =   6.7687679415252E-04
(PID.TID 0000.0001) %MON forcing_fv_max               =   3.0914867831684E-01
(PID.TID 0000.0001) %MON forcing_fv_min               =  -3.4788516937630E-01
(PID.TID 0000.0001) %MON forcing_fv_mean              =  -1.3332087099671E-02
(PID.TID 0000.0001) %MON forcing_fv_sd                =   6.5600041909167E-02
(PID.TID 0000.0001) %MON forcing_fv_del2              =   5.4726463157888E-04
(PID.TID 0000.0001) %MON trAdv_CFL_u_max              =   7.5795364341573E-05
(PID.TID 0000.0001) %MON trAdv_CFL_v_max              =   1.1807701669547E-04
(PID.TID 0000.0001) %MON trAdv_CFL_w_max              =   2.9646195712377E-04
(PID.TID 0000.0001) %MON advcfl_uvel_max              =   8.0929200781015E-05
(PID.TID 0000.0001) %MON advcfl_vvel_max              =   6.7460689829064E-05
(PID.TID 0000.0001) %MON advcfl_wvel_max              =   6.5805681661707E-04
(PID.TID 0000.0001) %MON advcfl_W_hf_max              =   2.9646195712377E-04
(PID.TID 0000.0001) %MON pe_b_mean                    =   5.5243579221609E-04
(PID.TID 0000.0001) %MON ke_max                       =   3.3425844248011E-01
(PID.TID 0000.0001) %MON ke_mean                      =   1.5713133974571E-04
(PID.TID 0000.0001) %MON ke_vol                       =   1.3398060314873E+18
(PID.TID 0000.0001) %MON vort_r_min                   =  -2.5196501161796E-06
(PID.TID 0000.0001) %MON vort_r_max                   =   2.5471674246158E-06
(PID.TID 0000.0001) %MON vort_a_mean                  =  -2.0549865324846E-05
(PID.TID 0000.0001) %MON vort_a_sd                    =   7.5259524569832E-05
(PID.TID 0000.0001) %MON vort_p_mean                  =  -2.4783420967374E-05
(PID.TID 0000.0001) %MON vort_p_sd                    =   1.2811960096516E-04
(PID.TID 0000.0001) %MON surfExpan_theta_mean         =  -6.3666160720474E-06
(PID.TID 0000.0001) %MON surfExpan_salt_mean          =   7.4701859018999E-07
(PID.TID 0000.0001) // =======================================================
(PID.TID 0000.0001) // End MONITOR dynamic field statistics
(PID.TID 0000.0001) // =======================================================
 cg2d: Sum(rhs),rhsMax =  -4.94843521257658E+00  2.22803301463775E+05
(PID.TID 0000.0001)      cg2d_init_res =   5.86320314675165E-03
(PID.TID 0000.0001)      cg2d_iters(min,last) =      -1       1
(PID.TID 0000.0001)      cg2d_last_res =   5.58595185312145E-08
(PID.TID 0000.0001) // =======================================================
(PID.TID 0000.0001) // Begin MONITOR dynamic field statistics
(PID.TID 0000.0001) // =======================================================
(PID.TID 0000.0001) %MON time_tsnumber                =                 72106
(PID.TID 0000.0001) %MON time_secondsf                =   1.8026500000000E+06
(PID.TID 0000.0001) %MON dynstat_eta_max              =   8.3540016765224E+00
(PID.TID 0000.0001) %MON dynstat_eta_min              =  -1.6186241781954E+00
(PID.TID 0000.0001) %MON dynstat_eta_mean             =   9.8852050459312E-03
(PID.TID 0000.0001) %MON dynstat_eta_sd               =   6.4375218144169E-01
(PID.TID 0000.0001) %MON dynstat_eta_del2             =   7.4928886514442E-03
(PID.TID 0000.0001) %MON dynstat_uvel_max             =   8.8146421724591E-01
(PID.TID 0000.0001) %MON dynstat_uvel_min             =  -4.7232110500368E-01
(PID.TID 0000.0001) %MON dynstat_uvel_mean            =  -4.3475835105266E-04
(PID.TID 0000.0001) %MON dynstat_uvel_sd              =   1.2746104287768E-02
(PID.TID 0000.0001) %MON dynstat_uvel_del2            =   9.1615492719504E-05
(PID.TID 0000.0001) %MON dynstat_vvel_max             =   7.5061262073855E-01
(PID.TID 0000.0001) %MON dynstat_vvel_min             =  -7.2922905978460E-01
(PID.TID 0000.0001) %MON dynstat_vvel_mean            =  -3.7483232585162E-04
(PID.TID 0000.0001) %MON dynstat_vvel_sd              =   1.3342671844033E-02
(PID.TID 0000.0001) %MON dynstat_vvel_del2            =   1.2427304087679E-04
(PID.TID 0000.0001) %MON dynstat_wvel_max             =   2.7856374708351E-04
(PID.TID 0000.0001) %MON dynstat_wvel_min             =  -1.0065434354650E-03
(PID.TID 0000.0001) %MON dynstat_wvel_mean            =  -2.0043966002671E-07
(PID.TID 0000.0001) %MON dynstat_wvel_sd              =   1.0801832902727E-05
(PID.TID 0000.0001) %MON dynstat_wvel_del2            =   9.9509582681768E-08
(PID.TID 0000.0001) %MON dynstat_theta_max            =   3.0925318057447E+01
(PID.TID 0000.0001) %MON dynstat_theta_min            =  -3.0172274755615E+00
(PID.TID 0000.0001) %MON dynstat_theta_mean           =   3.9089510291853E+00
(PID.TID 0000.0001) %MON dynstat_theta_sd             =   4.5706305928318E+00
(PID.TID 0000.0001) %MON dynstat_theta_del2           =   2.6545973114537E-03
(PID.TID 0000.0001) %MON dynstat_salt_max             =   4.1376968308464E+01
(PID.TID 0000.0001) %MON dynstat_salt_min             =   1.8518409689426E+01
(PID.TID 0000.0001) %MON dynstat_salt_mean            =   3.4772187810859E+01
(PID.TID 0000.0001) %MON dynstat_salt_sd              =   5.3094634220890E-01
(PID.TID 0000.0001) %MON dynstat_salt_del2            =   8.0391197778679E-04
(PID.TID 0000.0001) %MON dynstat_sst_max              =   3.0925318057447E+01
(PID.TID 0000.0001) %MON dynstat_sst_min              =  -1.8998880899391E+00
(PID.TID 0000.0001) %MON dynstat_sst_mean             =   1.8100187329738E+01
(PID.TID 0000.0001) %MON dynstat_sst_sd               =   9.7999191484881E+00
(PID.TID 0000.0001) %MON dynstat_sst_del2             =   1.5327542498532E-02
(PID.TID 0000.0001) %MON dynstat_sss_max              =   4.1376968308464E+01
(PID.TID 0000.0001) %MON dynstat_sss_min              =   1.8751369688092E+01
(PID.TID 0000.0001) %MON dynstat_sss_mean             =   3.4641245618258E+01
(PID.TID 0000.0001) %MON dynstat_sss_sd               =   1.4573849592784E+00
(PID.TID 0000.0001) %MON dynstat_sss_del2             =   8.0308186234456E-03
(PID.TID 0000.0001) %MON forcing_qnet_max             =   2.7159943750000E+05
(PID.TID 0000.0001) %MON forcing_qnet_min             =  -4.4532351562500E+04
(PID.TID 0000.0001) %MON forcing_qnet_mean            =   3.5269340874516E+02
(PID.TID 0000.0001) %MON forcing_qnet_sd              =   5.0732943151685E+03
(PID.TID 0000.0001) %MON forcing_qnet_del2            =   1.7532295493435E+02
(PID.TID 0000.0001) %MON forcing_qsw_max              =   0.0000000000000E+00
(PID.TID 0000.0001) %MON forcing_qsw_min              =   0.0000000000000E+00
(PID.TID 0000.0001) %MON forcing_qsw_mean             =   0.0000000000000E+00
(PID.TID 0000.0001) %MON forcing_qsw_sd               =   0.0000000000000E+00
(PID.TID 0000.0001) %MON forcing_qsw_del2             =   0.0000000000000E+00
(PID.TID 0000.0001) %MON forcing_empmr_max            =   2.8831347823143E-01
(PID.TID 0000.0001) %MON forcing_empmr_min            =  -6.3679683208466E-01
(PID.TID 0000.0001) %MON forcing_empmr_mean           =  -5.8178508338733E-04
(PID.TID 0000.0001) %MON forcing_empmr_sd             =   1.2797491308956E-02
(PID.TID 0000.0001) %MON forcing_empmr_del2           =   5.0146454245456E-04
(PID.TID 0000.0001) %MON forcing_fu_max               =   5.6346533419467E-01
(PID.TID 0000.0001) %MON forcing_fu_min               =  -4.3181161802186E-01
(PID.TID 0000.0001) %MON forcing_fu_mean              =  -4.0123567798204E-03
(PID.TID 0000.0001) %MON forcing_fu_sd                =   6.7976379318755E-02
(PID.TID 0000.0001) %MON forcing_fu_del2              =   6.7433384596802E-04
(PID.TID 0000.0001) %MON forcing_fv_max               =   3.1438595575216E-01
(PID.TID 0000.0001) %MON forcing_fv_min               =  -3.1472663669592E-01
(PID.TID 0000.0001) %MON forcing_fv_mean              =  -1.3044037006942E-02
(PID.TID 0000.0001) %MON forcing_fv_sd                =   6.5077964518834E-02
(PID.TID 0000.0001) %MON forcing_fv_del2              =   5.4246701088047E-04
(PID.TID 0000.0001) %MON trAdv_CFL_u_max              =   7.6481841465373E-05
(PID.TID 0000.0001) %MON trAdv_CFL_v_max              =   1.1905213755320E-04
(PID.TID 0000.0001) %MON trAdv_CFL_w_max              =   2.7654827167318E-04
(PID.TID 0000.0001) %MON advcfl_uvel_max              =   8.1652151661936E-05
(PID.TID 0000.0001) %MON advcfl_vvel_max              =   6.8042299517200E-05
(PID.TID 0000.0001) %MON advcfl_wvel_max              =   6.1526263969532E-04
(PID.TID 0000.0001) %MON advcfl_W_hf_max              =   2.7654827167318E-04
(PID.TID 0000.0001) %MON pe_b_mean                    =   5.5220855195145E-04
(PID.TID 0000.0001) %MON ke_max                       =   3.3953017566032E-01
(PID.TID 0000.0001) %MON ke_mean                      =   1.5737792655435E-04
(PID.TID 0000.0001) %MON ke_vol                       =   1.3398060373442E+18
(PID.TID 0000.0001) %MON vort_r_min                   =  -2.5429513233620E-06
(PID.TID 0000.0001) %MON vort_r_max                   =   2.5689558298254E-06
(PID.TID 0000.0001) %MON vort_a_mean                  =  -2.0549865324846E-05
(PID.TID 0000.0001) %MON vort_a_sd                    =   7.5259524665912E-05
(PID.TID 0000.0001) %MON vort_p_mean                  =  -2.4783420830508E-05
(PID.TID 0000.0001) %MON vort_p_sd                    =   1.2811959937038E-04
(PID.TID 0000.0001) %MON surfExpan_theta_mean         =  -6.7493966008747E-06
(PID.TID 0000.0001) %MON surfExpan_salt_mean          =   6.7915000442780E-07
(PID.TID 0000.0001) // =======================================================
(PID.TID 0000.0001) // End MONITOR dynamic field statistics
(PID.TID 0000.0001) // =======================================================
 cg2d: Sum(rhs),rhsMax =  -4.96145379487787E+00  2.22544425885155E+05
(PID.TID 0000.0001)      cg2d_init_res =   5.88890800277227E-03
(PID.TID 0000.0001)      cg2d_iters(min,last) =      -1       1
(PID.TID 0000.0001)      cg2d_last_res =   5.60652995590229E-08
(PID.TID 0000.0001) // =======================================================
(PID.TID 0000.0001) // Begin MONITOR dynamic field statistics
(PID.TID 0000.0001) // =======================================================
(PID.TID 0000.0001) %MON time_tsnumber                =                 72107
(PID.TID 0000.0001) %MON time_secondsf                =   1.8026750000000E+06
(PID.TID 0000.0001) %MON dynstat_eta_max              =   8.3422287228693E+00
(PID.TID 0000.0001) %MON dynstat_eta_min              =  -1.6186469628139E+00
(PID.TID 0000.0001) %MON dynstat_eta_mean             =   9.8996956652239E-03
(PID.TID 0000.0001) %MON dynstat_eta_sd               =   6.4361877885709E-01
(PID.TID 0000.0001) %MON dynstat_eta_del2             =   7.4737881563135E-03
(PID.TID 0000.0001) %MON dynstat_uvel_max             =   8.8925462579304E-01
(PID.TID 0000.0001) %MON dynstat_uvel_min             =  -4.7510758378822E-01
(PID.TID 0000.0001) %MON dynstat_uvel_mean            =  -4.3401813713779E-04
(PID.TID 0000.0001) %MON dynstat_uvel_sd              =   1.2756832689556E-02
(PID.TID 0000.0001) %MON dynstat_uvel_del2            =   9.2125678787515E-05
(PID.TID 0000.0001) %MON dynstat_vvel_max             =   7.5700720656599E-01
(PID.TID 0000.0001) %MON dynstat_vvel_min             =  -7.3557739886348E-01
(PID.TID 0000.0001) %MON dynstat_vvel_mean            =  -3.7453394338511E-04
(PID.TID 0000.0001) %MON dynstat_vvel_sd              =   1.3352474008206E-02
(PID.TID 0000.0001) %MON dynstat_vvel_del2            =   1.2509489152535E-04
(PID.TID 0000.0001) %MON dynstat_wvel_max             =   2.5356843851615E-04
(PID.TID 0000.0001) %MON dynstat_wvel_min             =  -1.0105848576865E-03
(PID.TID 0000.0001) %MON dynstat_wvel_mean            =  -2.0818471542915E-07
(PID.TID 0000.0001) %MON dynstat_wvel_sd              =   1.0838201773045E-05
(PID.TID 0000.0001) %MON dynstat_wvel_del2            =   9.9630916745684E-08
(PID.TID 0000.0001) %MON dynstat_theta_max            =   3.0925312049984E+01
(PID.TID 0000.0001) %MON dynstat_theta_min            =  -3.0172123880046E+00
(PID.TID 0000.0001) %MON dynstat_theta_mean           =   3.9089508005223E+00
(PID.TID 0000.0001) %MON dynstat_theta_sd             =   4.5706291733992E+00
(PID.TID 0000.0001) %MON dynstat_theta_del2           =   2.6545716623067E-03
(PID.TID 0000.0001) %MON dynstat_salt_max             =   4.1376957258298E+01
(PID.TID 0000.0001) %MON dynstat_salt_min             =   1.8518409956945E+01
(PID.TID 0000.0001) %MON dynstat_salt_mean            =   3.4772187588558E+01
(PID.TID 0000.0001) %MON dynstat_salt_sd              =   5.3094667544549E-01
(PID.TID 0000.0001) %MON dynstat_salt_del2            =   8.0394948070014E-04
(PID.TID 0000.0001) %MON dynstat_sst_max              =   3.0925312049984E+01
(PID.TID 0000.0001) %MON dynstat_sst_min              =  -1.8998870004524E+00
(PID.TID 0000.0001) %MON dynstat_sst_mean             =   1.8100166700130E+01
(PID.TID 0000.0001) %MON dynstat_sst_sd               =   9.7998959539770E+00
(PID.TID 0000.0001) %MON dynstat_sst_del2             =   1.5326867439646E-02
(PID.TID 0000.0001) %MON dynstat_sss_max              =   4.1376957258298E+01
(PID.TID 0000.0001) %MON dynstat_sss_min              =   1.8751369507967E+01
(PID.TID 0000.0001) %MON dynstat_sss_mean             =   3.4641229846793E+01
(PID.TID 0000.0001) %MON dynstat_sss_sd               =   1.4573924333231E+00
(PID.TID 0000.0001) %MON dynstat_sss_del2             =   8.0314088239580E-03
(PID.TID 0000.0001) %MON forcing_qnet_max             =   1.8931184375000E+05
(PID.TID 0000.0001) %MON forcing_qnet_min             =  -3.1129888671875E+04
(PID.TID 0000.0001) %MON forcing_qnet_mean            =   1.8746055692960E+02
(PID.TID 0000.0001) %MON forcing_qnet_sd              =   3.7110450779945E+03
(PID.TID 0000.0001) %MON forcing_qnet_del2            =   1.3044562344415E+02
(PID.TID 0000.0001) %MON forcing_qsw_max              =   0.0000000000000E+00
(PID.TID 0000.0001) %MON forcing_qsw_min              =   0.0000000000000E+00
(PID.TID 0000.0001) %MON forcing_qsw_mean             =   0.0000000000000E+00
(PID.TID 0000.0001) %MON forcing_qsw_sd               =   0.0000000000000E+00
(PID.TID 0000.0001) %MON forcing_qsw_del2             =   0.0000000000000E+00
(PID.TID 0000.0001) %MON forcing_empmr_max            =   2.6244333386421E-01
(PID.TID 0000.0001) %MON forcing_empmr_min            =  -6.3526344299316E-01
(PID.TID 0000.0001) %MON forcing_empmr_mean           =  -5.9991163871313E-04
(PID.TID 0000.0001) %MON forcing_empmr_sd             =   1.2709814191495E-02
(PID.TID 0000.0001) %MON forcing_empmr_del2           =   4.9911766635942E-04
(PID.TID 0000.0001) %MON forcing_fu_max               =   5.6346533419467E-01
(PID.TID 0000.0001) %MON forcing_fu_min               =  -4.3181161802186E-01
(PID.TID 0000.0001) %MON forcing_fu_mean              =  -4.0123567798204E-03
(PID.TID 0000.0001) %MON forcing_fu_sd                =   6.7976379318755E-02
(PID.TID 0000.0001) %MON forcing_fu_del2              =   6.7433384596802E-04
(PID.TID 0000.0001) %MON forcing_fv_max               =   3.1438595575216E-01
(PID.TID 0000.0001) %MON forcing_fv_min               =  -3.1472663669592E-01
(PID.TID 0000.0001) %MON forcing_fv_mean              =  -1.3044037006942E-02
(PID.TID 0000.0001) %MON forcing_fv_sd                =   6.5077964518834E-02
(PID.TID 0000.0001) %MON forcing_fv_del2              =   5.4246701088047E-04
(PID.TID 0000.0001) %MON trAdv_CFL_u_max              =   7.7167329971891E-05
(PID.TID 0000.0001) %MON trAdv_CFL_v_max              =   1.2002217897479E-04
(PID.TID 0000.0001) %MON trAdv_CFL_w_max              =   2.7571761938845E-04
(PID.TID 0000.0001) %MON advcfl_uvel_max              =   8.2373795953053E-05
(PID.TID 0000.0001) %MON advcfl_vvel_max              =   6.8621962464688E-05
(PID.TID 0000.0001) %MON advcfl_wvel_max              =   6.1378110434122E-04
(PID.TID 0000.0001) %MON advcfl_W_hf_max              =   2.7571761938845E-04
(PID.TID 0000.0001) %MON pe_b_mean                    =   5.5198014481866E-04
(PID.TID 0000.0001) %MON ke_max                       =   3.4481705431899E-01
(PID.TID 0000.0001) %MON ke_mean                      =   1.5762459768938E-04
(PID.TID 0000.0001) %MON ke_vol                       =   1.3398060424578E+18
(PID.TID 0000.0001) %MON vort_r_min                   =  -2.5661696512339E-06
(PID.TID 0000.0001) %MON vort_r_max                   =   2.5906624562892E-06
(PID.TID 0000.0001) %MON vort_a_mean                  =  -2.0549865324846E-05
(PID.TID 0000.0001) %MON vort_a_sd                    =   7.5259524761563E-05
(PID.TID 0000.0001) %MON vort_p_mean                  =  -2.4783420704268E-05
(PID.TID 0000.0001) %MON vort_p_sd                    =   1.2811959809763E-04
(PID.TID 0000.0001) %MON surfExpan_theta_mean         =  -6.6634531179429E-06
(PID.TID 0000.0001) %MON surfExpan_salt_mean          =   7.0044957779034E-07
(PID.TID 0000.0001) // =======================================================
(PID.TID 0000.0001) // End MONITOR dynamic field statistics
(PID.TID 0000.0001) // =======================================================
 cg2d: Sum(rhs),rhsMax =  -4.97471113902054E+00  2.22283299501471E+05
(PID.TID 0000.0001)      cg2d_init_res =   5.91493828233566E-03
(PID.TID 0000.0001)      cg2d_iters(min,last) =      -1       1
(PID.TID 0000.0001)      cg2d_last_res =   5.62833611841881E-08
(PID.TID 0000.0001) // =======================================================
(PID.TID 0000.0001) // Begin MONITOR dynamic field statistics
(PID.TID 0000.0001) // =======================================================
(PID.TID 0000.0001) %MON time_tsnumber                =                 72108
(PID.TID 0000.0001) %MON time_secondsf                =   1.8027000000000E+06
(PID.TID 0000.0001) %MON dynstat_eta_max              =   8.3303543254160E+00
(PID.TID 0000.0001) %MON dynstat_eta_min              =  -1.6186703421243E+00
(PID.TID 0000.0001) %MON dynstat_eta_mean             =   9.9145013103859E-03
(PID.TID 0000.0001) %MON dynstat_eta_sd               =   6.4348483883185E-01
(PID.TID 0000.0001) %MON dynstat_eta_del2             =   7.4546015144883E-03
(PID.TID 0000.0001) %MON dynstat_uvel_max             =   8.9703077533957E-01
(PID.TID 0000.0001) %MON dynstat_uvel_min             =  -4.7788932267844E-01
(PID.TID 0000.0001) %MON dynstat_uvel_mean            =  -4.3327382080623E-04
(PID.TID 0000.0001) %MON dynstat_uvel_sd              =   1.2767567045135E-02
(PID.TID 0000.0001) %MON dynstat_uvel_del2            =   9.2635032158338E-05
(PID.TID 0000.0001) %MON dynstat_vvel_max             =   7.6338024879015E-01
(PID.TID 0000.0001) %MON dynstat_vvel_min             =  -7.4191444001239E-01
(PID.TID 0000.0001) %MON dynstat_vvel_mean            =  -3.7423676819785E-04
(PID.TID 0000.0001) %MON dynstat_vvel_sd              =   1.3362259200736E-02
(PID.TID 0000.0001) %MON dynstat_vvel_del2            =   1.2591339306535E-04
(PID.TID 0000.0001) %MON dynstat_wvel_max             =   2.3081462452377E-04
(PID.TID 0000.0001) %MON dynstat_wvel_min             =  -1.0145136832358E-03
(PID.TID 0000.0001) %MON dynstat_wvel_mean            =  -2.1418205003901E-07
(PID.TID 0000.0001) %MON dynstat_wvel_sd              =   1.0875619857637E-05
(PID.TID 0000.0001) %MON dynstat_wvel_del2            =   9.9765847613345E-08
(PID.TID 0000.0001) %MON dynstat_theta_max            =   3.0925306043288E+01
(PID.TID 0000.0001) %MON dynstat_theta_min            =  -3.0171970349893E+00
(PID.TID 0000.0001) %MON dynstat_theta_mean           =   3.9089507589653E+00
(PID.TID 0000.0001) %MON dynstat_theta_sd             =   4.5706285864432E+00
(PID.TID 0000.0001) %MON dynstat_theta_del2           =   2.6545491541883E-03
(PID.TID 0000.0001) %MON dynstat_salt_max             =   4.1376946042137E+01
(PID.TID 0000.0001) %MON dynstat_salt_min             =   1.8518410224482E+01
(PID.TID 0000.0001) %MON dynstat_salt_mean            =   3.4772187368815E+01
(PID.TID 0000.0001) %MON dynstat_salt_sd              =   5.3094702336051E-01
(PID.TID 0000.0001) %MON dynstat_salt_del2            =   8.0398726004594E-04
(PID.TID 0000.0001) %MON dynstat_sst_max              =   3.0925306043288E+01
(PID.TID 0000.0001) %MON dynstat_sst_min              =  -1.8998859096524E+00
(PID.TID 0000.0001) %MON dynstat_sst_mean             =   1.8100160111146E+01
(PID.TID 0000.0001) %MON dynstat_sst_sd               =   9.7998811869015E+00
(PID.TID 0000.0001) %MON dynstat_sst_del2             =   1.5326279743786E-02
(PID.TID 0000.0001) %MON dynstat_sss_max              =   4.1376946042137E+01
(PID.TID 0000.0001) %MON dynstat_sss_min              =   1.8751369387275E+01
(PID.TID 0000.0001) %MON dynstat_sss_mean             =   3.4641214290517E+01
(PID.TID 0000.0001) %MON dynstat_sss_sd               =   1.4574003188519E+00
(PID.TID 0000.0001) %MON dynstat_sss_del2             =   8.0320034178740E-03
(PID.TID 0000.0001) %MON forcing_qnet_max             =   1.3218762500000E+05
(PID.TID 0000.0001) %MON forcing_qnet_min             =  -2.1764281250000E+04
(PID.TID 0000.0001) %MON forcing_qnet_mean            =   7.3267854532109E+01
(PID.TID 0000.0001) %MON forcing_qnet_sd              =   2.7967238387347E+03
(PID.TID 0000.0001) %MON forcing_qnet_del2            =   1.0044455843156E+02
(PID.TID 0000.0001) %MON forcing_qsw_max              =   0.0000000000000E+00
(PID.TID 0000.0001) %MON forcing_qsw_min              =   0.0000000000000E+00
(PID.TID 0000.0001) %MON forcing_qsw_mean             =   0.0000000000000E+00
(PID.TID 0000.0001) %MON forcing_qsw_sd               =   0.0000000000000E+00
(PID.TID 0000.0001) %MON forcing_qsw_del2             =   0.0000000000000E+00
(PID.TID 0000.0001) %MON forcing_empmr_max            =   2.3889313638210E-01
(PID.TID 0000.0001) %MON forcing_empmr_min            =  -6.3373005390167E-01
(PID.TID 0000.0001) %MON forcing_empmr_mean           =  -6.1295370969990E-04
(PID.TID 0000.0001) %MON forcing_empmr_sd             =   1.2636354934897E-02
(PID.TID 0000.0001) %MON forcing_empmr_del2           =   4.9706010374734E-04
(PID.TID 0000.0001) %MON forcing_fu_max               =   5.6346533419467E-01
(PID.TID 0000.0001) %MON forcing_fu_min               =  -4.3181161802186E-01
(PID.TID 0000.0001) %MON forcing_fu_mean              =  -4.0123567798204E-03
(PID.TID 0000.0001) %MON forcing_fu_sd                =   6.7976379318755E-02
(PID.TID 0000.0001) %MON forcing_fu_del2              =   6.7433384596802E-04
(PID.TID 0000.0001) %MON forcing_fv_max               =   3.1438595575216E-01
(PID.TID 0000.0001) %MON forcing_fv_min               =  -3.1472663669592E-01
(PID.TID 0000.0001) %MON forcing_fv_mean              =  -1.3044037006942E-02
(PID.TID 0000.0001) %MON forcing_fv_sd                =   6.5077964518834E-02
(PID.TID 0000.0001) %MON forcing_fv_del2              =   5.4246701088047E-04
(PID.TID 0000.0001) %MON trAdv_CFL_u_max              =   7.7851817290043E-05
(PID.TID 0000.0001) %MON trAdv_CFL_v_max              =   1.2098711574067E-04
(PID.TID 0000.0001) %MON trAdv_CFL_w_max              =   2.7488690885927E-04
(PID.TID 0000.0001) %MON advcfl_uvel_max              =   8.3094119398629E-05
(PID.TID 0000.0001) %MON advcfl_vvel_max              =   6.9199672505622E-05
(PID.TID 0000.0001) %MON advcfl_wvel_max              =   6.1229956898712E-04
(PID.TID 0000.0001) %MON advcfl_W_hf_max              =   2.7488690885927E-04
(PID.TID 0000.0001) %MON pe_b_mean                    =   5.5175087248877E-04
(PID.TID 0000.0001) %MON ke_max                       =   3.5011832830120E-01
(PID.TID 0000.0001) %MON ke_mean                      =   1.5787132297176E-04
(PID.TID 0000.0001) %MON ke_vol                       =   1.3398060477307E+18
(PID.TID 0000.0001) %MON vort_r_min                   =  -2.5893045506857E-06
(PID.TID 0000.0001) %MON vort_r_max                   =   2.6122870842100E-06
(PID.TID 0000.0001) %MON vort_a_mean                  =  -2.0549865324846E-05
(PID.TID 0000.0001) %MON vort_a_sd                    =   7.5259524857071E-05
(PID.TID 0000.0001) %MON vort_p_mean                  =  -2.4783420575125E-05
(PID.TID 0000.0001) %MON vort_p_sd                    =   1.2811959674854E-04
(PID.TID 0000.0001) %MON surfExpan_theta_mean         =  -6.6071831185225E-06
(PID.TID 0000.0001) %MON surfExpan_salt_mean          =   7.1634873251145E-07
(PID.TID 0000.0001) // =======================================================
(PID.TID 0000.0001) // End MONITOR dynamic field statistics
(PID.TID 0000.0001) // =======================================================
 cg2d: Sum(rhs),rhsMax =  -4.98816728757498E+00  2.22019927885702E+05
(PID.TID 0000.0001)      cg2d_init_res =   5.94109586022003E-03
(PID.TID 0000.0001)      cg2d_iters(min,last) =      -1       1
(PID.TID 0000.0001)      cg2d_last_res =   5.65027735867768E-08
(PID.TID 0000.0001) // =======================================================
(PID.TID 0000.0001) // Begin MONITOR dynamic field statistics
(PID.TID 0000.0001) // =======================================================
(PID.TID 0000.0001) %MON time_tsnumber                =                 72109
(PID.TID 0000.0001) %MON time_secondsf                =   1.8027250000000E+06
(PID.TID 0000.0001) %MON dynstat_eta_max              =   8.3183787713590E+00
(PID.TID 0000.0001) %MON dynstat_eta_min              =  -1.6186943147451E+00
(PID.TID 0000.0001) %MON dynstat_eta_mean             =   9.9295402110238E-03
(PID.TID 0000.0001) %MON dynstat_eta_sd               =   6.4335049060727E-01
(PID.TID 0000.0001) %MON dynstat_eta_del2             =   7.4353293078443E-03
(PID.TID 0000.0001) %MON dynstat_uvel_max             =   9.0479251306255E-01
(PID.TID 0000.0001) %MON dynstat_uvel_min             =  -4.8066629670409E-01
(PID.TID 0000.0001) %MON dynstat_uvel_mean            =  -4.3252541006588E-04
(PID.TID 0000.0001) %MON dynstat_uvel_sd              =   1.2778305876267E-02
(PID.TID 0000.0001) %MON dynstat_uvel_del2            =   9.3143511505712E-05
(PID.TID 0000.0001) %MON dynstat_vvel_max             =   7.6973168034761E-01
(PID.TID 0000.0001) %MON dynstat_vvel_min             =  -7.4824008674829E-01
(PID.TID 0000.0001) %MON dynstat_vvel_mean            =  -3.7394089396715E-04
(PID.TID 0000.0001) %MON dynstat_vvel_sd              =   1.3372026092528E-02
(PID.TID 0000.0001) %MON dynstat_vvel_del2            =   1.2672850333225E-04
(PID.TID 0000.0001) %MON dynstat_wvel_max             =   2.1010389650501E-04
(PID.TID 0000.0001) %MON dynstat_wvel_min             =  -1.0183302301280E-03
(PID.TID 0000.0001) %MON dynstat_wvel_mean            =  -2.1906513767154E-07
(PID.TID 0000.0001) %MON dynstat_wvel_sd              =   1.0913313709644E-05
(PID.TID 0000.0001) %MON dynstat_wvel_del2            =   9.9908898725189E-08
(PID.TID 0000.0001) %MON dynstat_theta_max            =   3.0925300037354E+01
(PID.TID 0000.0001) %MON dynstat_theta_min            =  -3.0171814133206E+00
(PID.TID 0000.0001) %MON dynstat_theta_mean           =   3.9089508464567E+00
(PID.TID 0000.0001) %MON dynstat_theta_sd             =   4.5706285735450E+00
(PID.TID 0000.0001) %MON dynstat_theta_del2           =   2.6545287837371E-03
(PID.TID 0000.0001) %MON dynstat_salt_max             =   4.1376934725146E+01
(PID.TID 0000.0001) %MON dynstat_salt_min             =   1.8518410492032E+01
(PID.TID 0000.0001) %MON dynstat_salt_mean            =   3.4772187151127E+01
(PID.TID 0000.0001) %MON dynstat_salt_sd              =   5.3094738166053E-01
(PID.TID 0000.0001) %MON dynstat_salt_del2            =   8.0402534656617E-04
(PID.TID 0000.0001) %MON dynstat_sst_max              =   3.0925300037354E+01
(PID.TID 0000.0001) %MON dynstat_sst_min              =  -1.8998848175263E+00
(PID.TID 0000.0001) %MON dynstat_sst_mean             =   1.8100163121607E+01
(PID.TID 0000.0001) %MON dynstat_sst_sd               =   9.7998723007575E+00
(PID.TID 0000.0001) %MON dynstat_sst_del2             =   1.5325752043355E-02
(PID.TID 0000.0001) %MON dynstat_sss_max              =   4.1376934725146E+01
(PID.TID 0000.0001) %MON dynstat_sss_min              =   1.8751369349563E+01
(PID.TID 0000.0001) %MON dynstat_sss_mean             =   3.4641198896382E+01
(PID.TID 0000.0001) %MON dynstat_sss_sd               =   1.4574084924362E+00
(PID.TID 0000.0001) %MON dynstat_sss_del2             =   8.0326028818591E-03
(PID.TID 0000.0001) %MON forcing_qnet_max             =   9.2497335937500E+04
(PID.TID 0000.0001) %MON forcing_qnet_min             =  -1.5214663085938E+04
(PID.TID 0000.0001) %MON forcing_qnet_mean            =  -5.4627331810223E+00
(PID.TID 0000.0001) %MON forcing_qnet_sd              =   2.1936949920814E+03
(PID.TID 0000.0001) %MON forcing_qnet_del2            =   8.0681456215624E+01
(PID.TID 0000.0001) %MON forcing_qsw_max              =   0.0000000000000E+00
(PID.TID 0000.0001) %MON forcing_qsw_min              =   0.0000000000000E+00
(PID.TID 0000.0001) %MON forcing_qsw_mean             =   0.0000000000000E+00
(PID.TID 0000.0001) %MON forcing_qsw_sd               =   0.0000000000000E+00
(PID.TID 0000.0001) %MON forcing_qsw_del2             =   0.0000000000000E+00
(PID.TID 0000.0001) %MON forcing_empmr_max            =   2.1745753288269E-01
(PID.TID 0000.0001) %MON forcing_empmr_min            =  -6.3221627473831E-01
(PID.TID 0000.0001) %MON forcing_empmr_mean           =  -6.2261048640133E-04
(PID.TID 0000.0001) %MON forcing_empmr_sd             =   1.2573444577527E-02
(PID.TID 0000.0001) %MON forcing_empmr_del2           =   4.9523995805981E-04
(PID.TID 0000.0001) %MON forcing_fu_max               =   5.6346533419467E-01
(PID.TID 0000.0001) %MON forcing_fu_min               =  -4.3181161802186E-01
(PID.TID 0000.0001) %MON forcing_fu_mean              =  -4.0123567798204E-03
(PID.TID 0000.0001) %MON forcing_fu_sd                =   6.7976379318755E-02
(PID.TID 0000.0001) %MON forcing_fu_del2              =   6.7433384596802E-04
(PID.TID 0000.0001) %MON forcing_fv_max               =   3.1438595575216E-01
(PID.TID 0000.0001) %MON forcing_fv_min               =  -3.1472663669592E-01
(PID.TID 0000.0001) %MON forcing_fv_mean              =  -1.3044037006942E-02
(PID.TID 0000.0001) %MON forcing_fv_sd                =   6.5077964518834E-02
(PID.TID 0000.0001) %MON forcing_fv_del2              =   5.4246701088047E-04
(PID.TID 0000.0001) %MON trAdv_CFL_u_max              =   7.8535290906638E-05
(PID.TID 0000.0001) %MON trAdv_CFL_v_max              =   1.2194692296832E-04
(PID.TID 0000.0001) %MON trAdv_CFL_w_max              =   2.7406489956355E-04
(PID.TID 0000.0001) %MON advcfl_uvel_max              =   8.3813107842309E-05
(PID.TID 0000.0001) %MON advcfl_vvel_max              =   6.9775423560768E-05
(PID.TID 0000.0001) %MON advcfl_wvel_max              =   6.1083698042349E-04
(PID.TID 0000.0001) %MON advcfl_W_hf_max              =   2.7406489956355E-04
(PID.TID 0000.0001) %MON pe_b_mean                    =   5.5152095496451E-04
(PID.TID 0000.0001) %MON ke_max                       =   3.5543324794458E-01
(PID.TID 0000.0001) %MON ke_mean                      =   1.5811806832033E-04
(PID.TID 0000.0001) %MON ke_vol                       =   1.3398060531183E+18
(PID.TID 0000.0001) %MON vort_r_min                   =  -2.6123554774600E-06
(PID.TID 0000.0001) %MON vort_r_max                   =   2.6338294948301E-06
(PID.TID 0000.0001) %MON vort_a_mean                  =  -2.0549865324846E-05
(PID.TID 0000.0001) %MON vort_a_sd                    =   7.5259524952416E-05
(PID.TID 0000.0001) %MON vort_p_mean                  =  -2.4783420443844E-05
(PID.TID 0000.0001) %MON vort_p_sd                    =   1.2811959534216E-04
(PID.TID 0000.0001) %MON surfExpan_theta_mean         =  -6.5740358387858E-06
(PID.TID 0000.0001) %MON surfExpan_salt_mean          =   7.2872345908572E-07
(PID.TID 0000.0001) // =======================================================
(PID.TID 0000.0001) // End MONITOR dynamic field statistics
(PID.TID 0000.0001) // =======================================================
 cg2d: Sum(rhs),rhsMax =  -5.00178858269842E+00  2.21754316644202E+05
(PID.TID 0000.0001)      cg2d_init_res =   5.96724788506358E-03
(PID.TID 0000.0001)      cg2d_iters(min,last) =      -1       1
(PID.TID 0000.0001)      cg2d_last_res =   5.67195619041790E-08
(PID.TID 0000.0001) // =======================================================
(PID.TID 0000.0001) // Begin MONITOR dynamic field statistics
(PID.TID 0000.0001) // =======================================================
(PID.TID 0000.0001) %MON time_tsnumber                =                 72110
(PID.TID 0000.0001) %MON time_secondsf                =   1.8027500000000E+06
(PID.TID 0000.0001) %MON dynstat_eta_max              =   8.3063023496613E+00
(PID.TID 0000.0001) %MON dynstat_eta_min              =  -1.6187188787385E+00
(PID.TID 0000.0001) %MON dynstat_eta_mean             =   9.9447434777774E-03
(PID.TID 0000.0001) %MON dynstat_eta_sd               =   6.4321583096549E-01
(PID.TID 0000.0001) %MON dynstat_eta_del2             =   7.4159721986248E-03
(PID.TID 0000.0001) %MON dynstat_uvel_max             =   9.1253968719985E-01
(PID.TID 0000.0001) %MON dynstat_uvel_min             =  -4.8343848096595E-01
(PID.TID 0000.0001) %MON dynstat_uvel_mean            =  -4.3177293296353E-04
(PID.TID 0000.0001) %MON dynstat_uvel_sd              =   1.2789047728689E-02
(PID.TID 0000.0001) %MON dynstat_uvel_del2            =   9.3651078440005E-05
(PID.TID 0000.0001) %MON dynstat_vvel_max             =   7.7606143513641E-01
(PID.TID 0000.0001) %MON dynstat_vvel_min             =  -7.5455424296770E-01
(PID.TID 0000.0001) %MON dynstat_vvel_mean            =  -3.7364639729332E-04
(PID.TID 0000.0001) %MON dynstat_vvel_sd              =   1.3381773380266E-02
(PID.TID 0000.0001) %MON dynstat_vvel_del2            =   1.2754018075730E-04
(PID.TID 0000.0001) %MON dynstat_wvel_max             =   1.9125330851274E-04
(PID.TID 0000.0001) %MON dynstat_wvel_min             =  -1.0220348155909E-03
(PID.TID 0000.0001) %MON dynstat_wvel_mean            =  -2.2293846267888E-07
(PID.TID 0000.0001) %MON dynstat_wvel_sd              =   1.0950790426361E-05
(PID.TID 0000.0001) %MON dynstat_wvel_del2            =   1.0005430713776E-07
(PID.TID 0000.0001) %MON dynstat_theta_max            =   3.0925294032184E+01
(PID.TID 0000.0001) %MON dynstat_theta_min            =  -3.0171655211787E+00
(PID.TID 0000.0001) %MON dynstat_theta_mean           =   3.9089510225257E+00
(PID.TID 0000.0001) %MON dynstat_theta_sd             =   4.5706289543105E+00
(PID.TID 0000.0001) %MON dynstat_theta_del2           =   2.6545099560005E-03
(PID.TID 0000.0001) %MON dynstat_salt_max             =   4.1376923177643E+01
(PID.TID 0000.0001) %MON dynstat_salt_min             =   1.8518410759593E+01
(PID.TID 0000.0001) %MON dynstat_salt_mean            =   3.4772186935145E+01
(PID.TID 0000.0001) %MON dynstat_salt_sd              =   5.3094774731155E-01
(PID.TID 0000.0001) %MON dynstat_salt_del2            =   8.0406376153338E-04
(PID.TID 0000.0001) %MON dynstat_sst_max              =   3.0925294032184E+01
(PID.TID 0000.0001) %MON dynstat_sst_min              =  -1.8998837240644E+00
(PID.TID 0000.0001) %MON dynstat_sst_mean             =   1.8100172655203E+01
(PID.TID 0000.0001) %MON dynstat_sst_sd               =   9.7998675037276E+00
(PID.TID 0000.0001) %MON dynstat_sst_del2             =   1.5325268419937E-02
(PID.TID 0000.0001) %MON dynstat_sss_max              =   4.1376923177643E+01
(PID.TID 0000.0001) %MON dynstat_sss_min              =   1.8751369261458E+01
(PID.TID 0000.0001) %MON dynstat_sss_mean             =   3.4641183629882E+01
(PID.TID 0000.0001) %MON dynstat_sss_sd               =   1.4574168683671E+00
(PID.TID 0000.0001) %MON dynstat_sss_del2             =   8.0332075523961E-03
(PID.TID 0000.0001) %MON forcing_qnet_max             =   6.4899234375000E+04
(PID.TID 0000.0001) %MON forcing_qnet_min             =  -1.2270074218750E+04
(PID.TID 0000.0001) %MON forcing_qnet_mean            =  -5.9512154479438E+01
(PID.TID 0000.0001) %MON forcing_qnet_sd              =   1.8031340176016E+03
(PID.TID 0000.0001) %MON forcing_qnet_del2            =   6.7774908335249E+01
(PID.TID 0000.0001) %MON forcing_qsw_max              =   0.0000000000000E+00
(PID.TID 0000.0001) %MON forcing_qsw_min              =   0.0000000000000E+00
(PID.TID 0000.0001) %MON forcing_qsw_mean             =   0.0000000000000E+00
(PID.TID 0000.0001) %MON forcing_qsw_sd               =   0.0000000000000E+00
(PID.TID 0000.0001) %MON forcing_qsw_del2             =   0.0000000000000E+00
(PID.TID 0000.0001) %MON forcing_empmr_max            =   1.9794717431068E-01
(PID.TID 0000.0001) %MON forcing_empmr_min            =  -6.3068288564682E-01
(PID.TID 0000.0001) %MON forcing_empmr_mean           =  -6.2941524361775E-04
(PID.TID 0000.0001) %MON forcing_empmr_sd             =   1.2518263504781E-02
(PID.TID 0000.0001) %MON forcing_empmr_del2           =   4.9358762699659E-04
(PID.TID 0000.0001) %MON forcing_fu_max               =   5.6346533419467E-01
(PID.TID 0000.0001) %MON forcing_fu_min               =  -4.3181161802186E-01
(PID.TID 0000.0001) %MON forcing_fu_mean              =  -4.0123567798204E-03
(PID.TID 0000.0001) %MON forcing_fu_sd                =   6.7976379318755E-02
(PID.TID 0000.0001) %MON forcing_fu_del2              =   6.7433384596802E-04
(PID.TID 0000.0001) %MON forcing_fv_max               =   3.1438595575216E-01
(PID.TID 0000.0001) %MON forcing_fv_min               =  -3.1472663669592E-01
(PID.TID 0000.0001) %MON forcing_fv_mean              =  -1.3044037006942E-02
(PID.TID 0000.0001) %MON forcing_fv_sd                =   6.5077964518834E-02
(PID.TID 0000.0001) %MON forcing_fv_del2              =   5.4246701088047E-04
(PID.TID 0000.0001) %MON trAdv_CFL_u_max              =   7.9217738365265E-05
(PID.TID 0000.0001) %MON trAdv_CFL_v_max              =   1.2290157598595E-04
(PID.TID 0000.0001) %MON trAdv_CFL_w_max              =   2.7323410481265E-04
(PID.TID 0000.0001) %MON advcfl_uvel_max              =   8.4530747226000E-05
(PID.TID 0000.0001) %MON advcfl_vvel_max              =   7.0349209638047E-05
(PID.TID 0000.0001) %MON advcfl_wvel_max              =   6.0935544506939E-04
(PID.TID 0000.0001) %MON advcfl_W_hf_max              =   2.7323410481265E-04
(PID.TID 0000.0001) %MON pe_b_mean                    =   5.5129055676060E-04
(PID.TID 0000.0001) %MON ke_max                       =   3.6076106379728E-01
(PID.TID 0000.0001) %MON ke_mean                      =   1.5836480015178E-04
(PID.TID 0000.0001) %MON ke_vol                       =   1.3398060585908E+18
(PID.TID 0000.0001) %MON vort_r_min                   =  -2.6353218919551E-06
(PID.TID 0000.0001) %MON vort_r_max                   =   2.6552894705058E-06
(PID.TID 0000.0001) %MON vort_a_mean                  =  -2.0549865324846E-05
(PID.TID 0000.0001) %MON vort_a_sd                    =   7.5259525047577E-05
(PID.TID 0000.0001) %MON vort_p_mean                  =  -2.4783420310929E-05
(PID.TID 0000.0001) %MON vort_p_sd                    =   1.2811959389147E-04
(PID.TID 0000.0001) %MON surfExpan_theta_mean         =  -6.5524822234508E-06
(PID.TID 0000.0001) %MON surfExpan_salt_mean          =   7.3826323344842E-07
(PID.TID 0000.0001) // =======================================================
(PID.TID 0000.0001) // End MONITOR dynamic field statistics
(PID.TID 0000.0001) // =======================================================
 cg2d: Sum(rhs),rhsMax =  -5.01555357193463E+00  2.21486471416309E+05
(PID.TID 0000.0001)      cg2d_init_res =   5.99330867512008E-03
(PID.TID 0000.0001)      cg2d_iters(min,last) =      -1       1
(PID.TID 0000.0001)      cg2d_last_res =   5.69311789753683E-08
(PID.TID 0000.0001) // =======================================================
(PID.TID 0000.0001) // Begin MONITOR dynamic field statistics
(PID.TID 0000.0001) // =======================================================
(PID.TID 0000.0001) %MON time_tsnumber                =                 72111
(PID.TID 0000.0001) %MON time_secondsf                =   1.8027750000000E+06
(PID.TID 0000.0001) %MON dynstat_eta_max              =   8.2941253510369E+00
(PID.TID 0000.0001) %MON dynstat_eta_min              =  -1.6187440316214E+00
(PID.TID 0000.0001) %MON dynstat_eta_mean             =   9.9600667627573E-03
(PID.TID 0000.0001) %MON dynstat_eta_sd               =   6.4308093438465E-01
(PID.TID 0000.0001) %MON dynstat_eta_del2             =   7.3965309632889E-03
(PID.TID 0000.0001) %MON dynstat_uvel_max             =   9.2027214705553E-01
(PID.TID 0000.0001) %MON dynstat_uvel_min             =  -4.8620585063503E-01
(PID.TID 0000.0001) %MON dynstat_uvel_mean            =  -4.3101641801502E-04
(PID.TID 0000.0001) %MON dynstat_uvel_sd              =   1.2799791167770E-02
(PID.TID 0000.0001) %MON dynstat_uvel_del2            =   9.4157695296592E-05
(PID.TID 0000.0001) %MON dynstat_vvel_max             =   7.8236944800146E-01
(PID.TID 0000.0001) %MON dynstat_vvel_min             =  -7.6085681278659E-01
(PID.TID 0000.0001) %MON dynstat_vvel_mean            =  -3.7335334903015E-04
(PID.TID 0000.0001) %MON dynstat_vvel_sd              =   1.3391499800654E-02
(PID.TID 0000.0001) %MON dynstat_vvel_del2            =   1.2834838511185E-04
(PID.TID 0000.0001) %MON dynstat_wvel_max             =   1.7409164836441E-04
(PID.TID 0000.0001) %MON dynstat_wvel_min             =  -1.0256277564491E-03
(PID.TID 0000.0001) %MON dynstat_wvel_mean            =  -2.2623960942816E-07
(PID.TID 0000.0001) %MON dynstat_wvel_sd              =   1.0987935111576E-05
(PID.TID 0000.0001) %MON dynstat_wvel_del2            =   1.0020279415323E-07
(PID.TID 0000.0001) %MON dynstat_theta_max            =   3.0925288027774E+01
(PID.TID 0000.0001) %MON dynstat_theta_min            =  -3.0171493603147E+00
(PID.TID 0000.0001) %MON dynstat_theta_mean           =   3.9089512594973E+00
(PID.TID 0000.0001) %MON dynstat_theta_sd             =   4.5706296053157E+00
(PID.TID 0000.0001) %MON dynstat_theta_del2           =   2.6544922269092E-03
(PID.TID 0000.0001) %MON dynstat_salt_max             =   4.1376911494230E+01
(PID.TID 0000.0001) %MON dynstat_salt_min             =   1.8518411027162E+01
(PID.TID 0000.0001) %MON dynstat_salt_mean            =   3.4772186720580E+01
(PID.TID 0000.0001) %MON dynstat_salt_sd              =   5.3094811815877E-01
(PID.TID 0000.0001) %MON dynstat_salt_del2            =   8.0410252747401E-04
(PID.TID 0000.0001) %MON dynstat_sst_max              =   3.0925288027774E+01
(PID.TID 0000.0001) %MON dynstat_sst_min              =  -1.8998826292495E+00
(PID.TID 0000.0001) %MON dynstat_sst_mean             =   1.8100186604281E+01
(PID.TID 0000.0001) %MON dynstat_sst_sd               =   9.7998655572146E+00
(PID.TID 0000.0001) %MON dynstat_sst_del2             =   1.5324816317330E-02
(PID.TID 0000.0001) %MON dynstat_sss_max              =   4.1376911494230E+01
(PID.TID 0000.0001) %MON dynstat_sss_min              =   1.8751369212231E+01
(PID.TID 0000.0001) %MON dynstat_sss_mean             =   3.4641168461677E+01
(PID.TID 0000.0001) %MON dynstat_sss_sd               =   1.4574253846615E+00
(PID.TID 0000.0001) %MON dynstat_sss_del2             =   8.0338177747733E-03
(PID.TID 0000.0001) %MON forcing_qnet_max             =   4.5684652343750E+04
(PID.TID 0000.0001) %MON forcing_qnet_min             =  -1.1821781250000E+04
(PID.TID 0000.0001) %MON forcing_qnet_mean            =  -9.6649553612453E+01
(PID.TID 0000.0001) %MON forcing_qnet_sd              =   1.5526445147776E+03
(PID.TID 0000.0001) %MON forcing_qnet_del2            =   5.9318343704999E+01
(PID.TID 0000.0001) %MON forcing_qsw_max              =   0.0000000000000E+00
(PID.TID 0000.0001) %MON forcing_qsw_min              =   0.0000000000000E+00
(PID.TID 0000.0001) %MON forcing_qsw_mean             =   0.0000000000000E+00
(PID.TID 0000.0001) %MON forcing_qsw_sd               =   0.0000000000000E+00
(PID.TID 0000.0001) %MON forcing_qsw_del2             =   0.0000000000000E+00
(PID.TID 0000.0001) %MON forcing_empmr_max            =   1.8018485605717E-01
(PID.TID 0000.0001) %MON forcing_empmr_min            =  -6.2916916608810E-01
(PID.TID 0000.0001) %MON forcing_empmr_mean           =  -6.3438399815035E-04
(PID.TID 0000.0001) %MON forcing_empmr_sd             =   1.2469383244170E-02
(PID.TID 0000.0001) %MON forcing_empmr_del2           =   4.9209009327768E-04
(PID.TID 0000.0001) %MON forcing_fu_max               =   5.6346533419467E-01
(PID.TID 0000.0001) %MON forcing_fu_min               =  -4.3181161802186E-01
(PID.TID 0000.0001) %MON forcing_fu_mean              =  -4.0123567798204E-03
(PID.TID 0000.0001) %MON forcing_fu_sd                =   6.7976379318755E-02
(PID.TID 0000.0001) %MON forcing_fu_del2              =   6.7433384596802E-04
(PID.TID 0000.0001) %MON forcing_fv_max               =   3.1438595575216E-01
(PID.TID 0000.0001) %MON forcing_fv_min               =  -3.1472663669592E-01
(PID.TID 0000.0001) %MON forcing_fv_mean              =  -1.3044037006942E-02
(PID.TID 0000.0001) %MON forcing_fv_sd                =   6.5077964518834E-02
(PID.TID 0000.0001) %MON forcing_fv_del2              =   5.4246701088047E-04
(PID.TID 0000.0001) %MON trAdv_CFL_u_max              =   7.9899147266788E-05
(PID.TID 0000.0001) %MON trAdv_CFL_v_max              =   1.2385105033650E-04
(PID.TID 0000.0001) %MON trAdv_CFL_w_max              =   2.7241207056142E-04
(PID.TID 0000.0001) %MON advcfl_uvel_max              =   8.5247023590376E-05
(PID.TID 0000.0001) %MON advcfl_vvel_max              =   7.0921024831215E-05
(PID.TID 0000.0001) %MON advcfl_wvel_max              =   6.0789291409479E-04
(PID.TID 0000.0001) %MON advcfl_W_hf_max              =   2.7241207056142E-04
(PID.TID 0000.0001) %MON pe_b_mean                    =   5.5105980467660E-04
(PID.TID 0000.0001) %MON ke_max                       =   3.6610102673999E-01
(PID.TID 0000.0001) %MON ke_mean                      =   1.5861148550527E-04
(PID.TID 0000.0001) %MON ke_vol                       =   1.3398060641230E+18
(PID.TID 0000.0001) %MON vort_r_min                   =  -2.6582032592825E-06
(PID.TID 0000.0001) %MON vort_r_max                   =   2.6766667947305E-06
(PID.TID 0000.0001) %MON vort_a_mean                  =  -2.0549865324846E-05
(PID.TID 0000.0001) %MON vort_a_sd                    =   7.5259525142534E-05
(PID.TID 0000.0001) %MON vort_p_mean                  =  -2.4783420176815E-05
(PID.TID 0000.0001) %MON vort_p_sd                    =   1.2811959240651E-04
(PID.TID 0000.0001) %MON surfExpan_theta_mean         =  -6.5426512050004E-06
(PID.TID 0000.0001) %MON surfExpan_salt_mean          =   7.4593152257380E-07
(PID.TID 0000.0001) // =======================================================
(PID.TID 0000.0001) // End MONITOR dynamic field statistics
(PID.TID 0000.0001) // =======================================================
 cg2d: Sum(rhs),rhsMax =  -5.02944753536417E+00  2.21216397874444E+05
(PID.TID 0000.0001)      cg2d_init_res =   6.01926700589002E-03
(PID.TID 0000.0001)      cg2d_iters(min,last) =      -1       1
(PID.TID 0000.0001)      cg2d_last_res =   5.71388140318866E-08
(PID.TID 0000.0001) // =======================================================
(PID.TID 0000.0001) // Begin MONITOR dynamic field statistics
(PID.TID 0000.0001) // =======================================================
(PID.TID 0000.0001) %MON time_tsnumber                =                 72112
(PID.TID 0000.0001) %MON time_secondsf                =   1.8028000000000E+06
(PID.TID 0000.0001) %MON dynstat_eta_max              =   8.2818480679352E+00
(PID.TID 0000.0001) %MON dynstat_eta_min              =  -1.6187697703587E+00
(PID.TID 0000.0001) %MON dynstat_eta_mean             =   9.9754792636822E-03
(PID.TID 0000.0001) %MON dynstat_eta_sd               =   6.4294585660953E-01
(PID.TID 0000.0001) %MON dynstat_eta_del2             =   7.3770064541645E-03
(PID.TID 0000.0001) %MON dynstat_uvel_max             =   9.2798974300329E-01
(PID.TID 0000.0001) %MON dynstat_uvel_min             =  -4.8896838095689E-01
(PID.TID 0000.0001) %MON dynstat_uvel_mean            =  -4.3025589490179E-04
(PID.TID 0000.0001) %MON dynstat_uvel_sd              =   1.2810534779192E-02
(PID.TID 0000.0001) %MON dynstat_uvel_del2            =   9.4663325129159E-05
(PID.TID 0000.0001) %MON dynstat_vvel_max             =   7.8865565474145E-01
(PID.TID 0000.0001) %MON dynstat_vvel_min             =  -7.6714770054591E-01
(PID.TID 0000.0001) %MON dynstat_vvel_mean            =  -3.7306181411789E-04
(PID.TID 0000.0001) %MON dynstat_vvel_sd              =   1.3401204129582E-02
(PID.TID 0000.0001) %MON dynstat_vvel_del2            =   1.2915307746004E-04
(PID.TID 0000.0001) %MON dynstat_wvel_max             =   1.5847104183142E-04
(PID.TID 0000.0001) %MON dynstat_wvel_min             =  -1.0291093686721E-03
(PID.TID 0000.0001) %MON dynstat_wvel_mean            =  -2.2914702068202E-07
(PID.TID 0000.0001) %MON dynstat_wvel_sd              =   1.1024541594120E-05
(PID.TID 0000.0001) %MON dynstat_wvel_del2            =   1.0035036903330E-07
(PID.TID 0000.0001) %MON dynstat_theta_max            =   3.0925282024126E+01
(PID.TID 0000.0001) %MON dynstat_theta_min            =  -3.0171329276994E+00
(PID.TID 0000.0001) %MON dynstat_theta_mean           =   3.9089515379708E+00
(PID.TID 0000.0001) %MON dynstat_theta_sd             =   4.5706304404484E+00
(PID.TID 0000.0001) %MON dynstat_theta_del2           =   2.6544753353376E-03
(PID.TID 0000.0001) %MON dynstat_salt_max             =   4.1376899645692E+01
(PID.TID 0000.0001) %MON dynstat_salt_min             =   1.8518411294737E+01
(PID.TID 0000.0001) %MON dynstat_salt_mean            =   3.4772186507196E+01
(PID.TID 0000.0001) %MON dynstat_salt_sd              =   5.3094849271139E-01
(PID.TID 0000.0001) %MON dynstat_salt_del2            =   8.0414165572395E-04
(PID.TID 0000.0001) %MON dynstat_sst_max              =   3.0925282024126E+01
(PID.TID 0000.0001) %MON dynstat_sst_min              =  -1.8998815330748E+00
(PID.TID 0000.0001) %MON dynstat_sst_mean             =   1.8100203504308E+01
(PID.TID 0000.0001) %MON dynstat_sst_sd               =   9.7998656024381E+00
(PID.TID 0000.0001) %MON dynstat_sst_del2             =   1.5324388509935E-02
(PID.TID 0000.0001) %MON dynstat_sss_max              =   4.1376899645692E+01
(PID.TID 0000.0001) %MON dynstat_sss_min              =   1.8751369279964E+01
(PID.TID 0000.0001) %MON dynstat_sss_mean             =   3.4641153370773E+01
(PID.TID 0000.0001) %MON dynstat_sss_sd               =   1.4574339991747E+00
(PID.TID 0000.0001) %MON dynstat_sss_del2             =   8.0344337231818E-03
(PID.TID 0000.0001) %MON forcing_qnet_max             =   3.6405761718750E+04
(PID.TID 0000.0001) %MON forcing_qnet_min             =  -1.1412471679688E+04
(PID.TID 0000.0001) %MON forcing_qnet_mean            =  -1.2194839668562E+02
(PID.TID 0000.0001) %MON forcing_qnet_sd              =   1.3909391827740E+03
(PID.TID 0000.0001) %MON forcing_qnet_del2            =   5.3645951865539E+01
(PID.TID 0000.0001) %MON forcing_qsw_max              =   0.0000000000000E+00
(PID.TID 0000.0001) %MON forcing_qsw_min              =   0.0000000000000E+00
(PID.TID 0000.0001) %MON forcing_qsw_mean             =   0.0000000000000E+00
(PID.TID 0000.0001) %MON forcing_qsw_sd               =   0.0000000000000E+00
(PID.TID 0000.0001) %MON forcing_qsw_del2             =   0.0000000000000E+00
(PID.TID 0000.0001) %MON forcing_empmr_max            =   1.6401752829552E-01
(PID.TID 0000.0001) %MON forcing_empmr_min            =  -6.2765538692474E-01
(PID.TID 0000.0001) %MON forcing_empmr_mean           =  -6.3807753831617E-04
(PID.TID 0000.0001) %MON forcing_empmr_sd             =   1.2425386116218E-02
(PID.TID 0000.0001) %MON forcing_empmr_del2           =   4.9070712113747E-04
(PID.TID 0000.0001) %MON forcing_fu_max               =   5.6346533419467E-01
(PID.TID 0000.0001) %MON forcing_fu_min               =  -4.3181161802186E-01
(PID.TID 0000.0001) %MON forcing_fu_mean              =  -4.0123567798204E-03
(PID.TID 0000.0001) %MON forcing_fu_sd                =   6.7976379318755E-02
(PID.TID 0000.0001) %MON forcing_fu_del2              =   6.7433384596802E-04
(PID.TID 0000.0001) %MON forcing_fv_max               =   3.1438595575216E-01
(PID.TID 0000.0001) %MON forcing_fv_min               =  -3.1472663669592E-01
(PID.TID 0000.0001) %MON forcing_fv_mean              =  -1.3044037006942E-02
(PID.TID 0000.0001) %MON forcing_fv_sd                =   6.5077964518834E-02
(PID.TID 0000.0001) %MON forcing_fv_del2              =   5.4246701088047E-04
(PID.TID 0000.0001) %MON trAdv_CFL_u_max              =   8.0579505269665E-05
(PID.TID 0000.0001) %MON trAdv_CFL_v_max              =   1.2479532177875E-04
(PID.TID 0000.0001) %MON trAdv_CFL_w_max              =   2.7159000833142E-04
(PID.TID 0000.0001) %MON advcfl_uvel_max              =   8.5961923075191E-05
(PID.TID 0000.0001) %MON advcfl_vvel_max              =   7.1490863320486E-05
(PID.TID 0000.0001) %MON advcfl_wvel_max              =   6.0643032553115E-04
(PID.TID 0000.0001) %MON advcfl_W_hf_max              =   2.7159000833142E-04
(PID.TID 0000.0001) %MON pe_b_mean                    =   5.5082879366375E-04
(PID.TID 0000.0001) %MON ke_max                       =   3.7145238808722E-01
(PID.TID 0000.0001) %MON ke_mean                      =   1.5885809204330E-04
(PID.TID 0000.0001) %MON ke_vol                       =   1.3398060696990E+18
(PID.TID 0000.0001) %MON vort_r_min                   =  -2.6809990492831E-06
(PID.TID 0000.0001) %MON vort_r_max                   =   2.6979612521115E-06
(PID.TID 0000.0001) %MON vort_a_mean                  =  -2.0549865324846E-05
(PID.TID 0000.0001) %MON vort_a_sd                    =   7.5259525237271E-05
(PID.TID 0000.0001) %MON vort_p_mean                  =  -2.4783420041772E-05
(PID.TID 0000.0001) %MON vort_p_sd                    =   1.2811959089407E-04
(PID.TID 0000.0001) %MON surfExpan_theta_mean         =  -6.5403670711216E-06
(PID.TID 0000.0001) %MON surfExpan_salt_mean          =   7.5237818098347E-07
(PID.TID 0000.0001) // =======================================================
(PID.TID 0000.0001) // End MONITOR dynamic field statistics
(PID.TID 0000.0001) // =======================================================
 cg2d: Sum(rhs),rhsMax =  -5.04345922476324E+00  2.20944101724024E+05
(PID.TID 0000.0001)      cg2d_init_res =   6.04505206507713E-03
(PID.TID 0000.0001)      cg2d_iters(min,last) =      -1       1
(PID.TID 0000.0001)      cg2d_last_res =   5.73413938729485E-08
(PID.TID 0000.0001) // =======================================================
(PID.TID 0000.0001) // Begin MONITOR dynamic field statistics
(PID.TID 0000.0001) // =======================================================
(PID.TID 0000.0001) %MON time_tsnumber                =                 72113
(PID.TID 0000.0001) %MON time_secondsf                =   1.8028250000000E+06
(PID.TID 0000.0001) %MON dynstat_eta_max              =   8.2694707945259E+00
(PID.TID 0000.0001) %MON dynstat_eta_min              =  -1.6187960913602E+00
(PID.TID 0000.0001) %MON dynstat_eta_mean             =   9.9909571864406E-03
(PID.TID 0000.0001) %MON dynstat_eta_sd               =   6.4281064176096E-01
(PID.TID 0000.0001) %MON dynstat_eta_del2             =   7.3573995178791E-03
(PID.TID 0000.0001) %MON dynstat_uvel_max             =   9.3569232648974E-01
(PID.TID 0000.0001) %MON dynstat_uvel_min             =  -4.9172604724883E-01
(PID.TID 0000.0001) %MON dynstat_uvel_mean            =  -4.2949139398577E-04
(PID.TID 0000.0001) %MON dynstat_uvel_sd              =   1.2821277168281E-02
(PID.TID 0000.0001) %MON dynstat_uvel_del2            =   9.5167931648194E-05
(PID.TID 0000.0001) %MON dynstat_vvel_max             =   7.9491999209251E-01
(PID.TID 0000.0001) %MON dynstat_vvel_min             =  -7.7342681081566E-01
(PID.TID 0000.0001) %MON dynstat_vvel_mean            =  -3.7277185400480E-04
(PID.TID 0000.0001) %MON dynstat_vvel_sd              =   1.3410885182160E-02
(PID.TID 0000.0001) %MON dynstat_vvel_del2            =   1.2995422013176E-04
(PID.TID 0000.0001) %MON dynstat_wvel_max             =   1.4425524766894E-04
(PID.TID 0000.0001) %MON dynstat_wvel_min             =  -1.0324799674057E-03
(PID.TID 0000.0001) %MON dynstat_wvel_mean            =  -2.3176048945697E-07
(PID.TID 0000.0001) %MON dynstat_wvel_sd              =   1.1060549291657E-05
(PID.TID 0000.0001) %MON dynstat_wvel_del2            =   1.0049756013204E-07
(PID.TID 0000.0001) %MON dynstat_theta_max            =   3.0925276021237E+01
(PID.TID 0000.0001) %MON dynstat_theta_min            =  -3.0171162287134E+00
(PID.TID 0000.0001) %MON dynstat_theta_mean           =   3.9089518444561E+00
(PID.TID 0000.0001) %MON dynstat_theta_sd             =   4.5706313996394E+00
(PID.TID 0000.0001) %MON dynstat_theta_del2           =   2.6544590982574E-03
(PID.TID 0000.0001) %MON dynstat_salt_max             =   4.1376887833162E+01
(PID.TID 0000.0001) %MON dynstat_salt_min             =   1.8518411562318E+01
(PID.TID 0000.0001) %MON dynstat_salt_mean            =   3.4772186294840E+01
(PID.TID 0000.0001) %MON dynstat_salt_sd              =   5.3094886998308E-01
(PID.TID 0000.0001) %MON dynstat_salt_del2            =   8.0418115760747E-04
(PID.TID 0000.0001) %MON dynstat_sst_max              =   3.0925276021237E+01
(PID.TID 0000.0001) %MON dynstat_sst_min              =  -1.8998804355265E+00
(PID.TID 0000.0001) %MON dynstat_sst_mean             =   1.8100222343226E+01
(PID.TID 0000.0001) %MON dynstat_sst_sd               =   9.7998670297210E+00
(PID.TID 0000.0001) %MON dynstat_sst_del2             =   1.5323979902274E-02
(PID.TID 0000.0001) %MON dynstat_sss_max              =   4.1376887833162E+01
(PID.TID 0000.0001) %MON dynstat_sss_min              =   1.8751369317360E+01
(PID.TID 0000.0001) %MON dynstat_sss_mean             =   3.4641138343886E+01
(PID.TID 0000.0001) %MON dynstat_sss_sd               =   1.4574426843926E+00
(PID.TID 0000.0001) %MON dynstat_sss_del2             =   8.0350555727905E-03
(PID.TID 0000.0001) %MON forcing_qnet_max             =   3.3544566406250E+04
(PID.TID 0000.0001) %MON forcing_qnet_min             =  -1.1003160156250E+04
(PID.TID 0000.0001) %MON forcing_qnet_mean            =  -1.3901140971335E+02
(PID.TID 0000.0001) %MON forcing_qnet_sd              =   1.2831560733734E+03
(PID.TID 0000.0001) %MON forcing_qnet_del2            =   4.9663805509616E+01
(PID.TID 0000.0001) %MON forcing_qsw_max              =   0.0000000000000E+00
(PID.TID 0000.0001) %MON forcing_qsw_min              =   0.0000000000000E+00
(PID.TID 0000.0001) %MON forcing_qsw_mean             =   0.0000000000000E+00
(PID.TID 0000.0001) %MON forcing_qsw_sd               =   0.0000000000000E+00
(PID.TID 0000.0001) %MON forcing_qsw_del2             =   0.0000000000000E+00
(PID.TID 0000.0001) %MON forcing_empmr_max            =   1.4930418133736E-01
(PID.TID 0000.0001) %MON forcing_empmr_min            =  -6.2614166736603E-01
(PID.TID 0000.0001) %MON forcing_empmr_mean           =  -6.4078600219079E-04
(PID.TID 0000.0001) %MON forcing_empmr_sd             =   1.2385299325804E-02
(PID.TID 0000.0001) %MON forcing_empmr_del2           =   4.8941720782004E-04
(PID.TID 0000.0001) %MON forcing_fu_max               =   5.6346533419467E-01
(PID.TID 0000.0001) %MON forcing_fu_min               =  -4.3181161802186E-01
(PID.TID 0000.0001) %MON forcing_fu_mean              =  -4.0123567798204E-03
(PID.TID 0000.0001) %MON forcing_fu_sd                =   6.7976379318755E-02
(PID.TID 0000.0001) %MON forcing_fu_del2              =   6.7433384596802E-04
(PID.TID 0000.0001) %MON forcing_fv_max               =   3.1438595575216E-01
(PID.TID 0000.0001) %MON forcing_fv_min               =  -3.1472663669592E-01
(PID.TID 0000.0001) %MON forcing_fv_mean              =  -1.3044037006942E-02
(PID.TID 0000.0001) %MON forcing_fv_sd                =   6.5077964518834E-02
(PID.TID 0000.0001) %MON forcing_fv_del2              =   5.4246701088047E-04
(PID.TID 0000.0001) %MON trAdv_CFL_u_max              =   8.1258800090274E-05
(PID.TID 0000.0001) %MON trAdv_CFL_v_max              =   1.2573436628934E-04
(PID.TID 0000.0001) %MON trAdv_CFL_w_max              =   2.7076798764796E-04
(PID.TID 0000.0001) %MON advcfl_uvel_max              =   8.6675431919588E-05
(PID.TID 0000.0001) %MON advcfl_vvel_max              =   7.2058719371052E-05
(PID.TID 0000.0001) %MON advcfl_wvel_max              =   6.0496779455655E-04
(PID.TID 0000.0001) %MON advcfl_W_hf_max              =   2.7076798764796E-04
(PID.TID 0000.0001) %MON pe_b_mean                    =   5.5059759886479E-04
(PID.TID 0000.0001) %MON ke_max                       =   3.7681439970030E-01
(PID.TID 0000.0001) %MON ke_mean                      =   1.5910458804791E-04
(PID.TID 0000.0001) %MON ke_vol                       =   1.3398060753074E+18
(PID.TID 0000.0001) %MON vort_r_min                   =  -2.7037087365612E-06
(PID.TID 0000.0001) %MON vort_r_max                   =   2.7191726283759E-06
(PID.TID 0000.0001) %MON vort_a_mean                  =  -2.0549865324846E-05
(PID.TID 0000.0001) %MON vort_a_sd                    =   7.5259525331769E-05
(PID.TID 0000.0001) %MON vort_p_mean                  =  -2.4783419905988E-05
(PID.TID 0000.0001) %MON vort_p_sd                    =   1.2811958935908E-04
(PID.TID 0000.0001) %MON surfExpan_theta_mean         =  -6.5437873529113E-06
(PID.TID 0000.0001) %MON surfExpan_salt_mean          =   7.5781002720760E-07
(PID.TID 0000.0001) // =======================================================
(PID.TID 0000.0001) // End MONITOR dynamic field statistics
(PID.TID 0000.0001) // =======================================================
 cg2d: Sum(rhs),rhsMax =  -5.05757968837267E+00  2.20669588703163E+05
(PID.TID 0000.0001)      cg2d_init_res =   6.07070881016402E-03
(PID.TID 0000.0001)      cg2d_iters(min,last) =      -1       1
(PID.TID 0000.0001)      cg2d_last_res =   5.75422785576016E-08
(PID.TID 0000.0001) // =======================================================
(PID.TID 0000.0001) // Begin MONITOR dynamic field statistics
(PID.TID 0000.0001) // =======================================================
(PID.TID 0000.0001) %MON time_tsnumber                =                 72114
(PID.TID 0000.0001) %MON time_secondsf                =   1.8028500000000E+06
(PID.TID 0000.0001) %MON dynstat_eta_max              =   8.2569938266835E+00
(PID.TID 0000.0001) %MON dynstat_eta_min              =  -1.6188229904813E+00
(PID.TID 0000.0001) %MON dynstat_eta_mean             =   1.0006481380160E-02
(PID.TID 0000.0001) %MON dynstat_eta_sd               =   6.4267532892914E-01
(PID.TID 0000.0001) %MON dynstat_eta_del2             =   7.3377111030335E-03
(PID.TID 0000.0001) %MON dynstat_uvel_max             =   9.4337975003467E-01
(PID.TID 0000.0001) %MON dynstat_uvel_min             =  -4.9447882490020E-01
(PID.TID 0000.0001) %MON dynstat_uvel_mean            =  -4.2872294622228E-04
(PID.TID 0000.0001) %MON dynstat_uvel_sd              =   1.2832016960398E-02
(PID.TID 0000.0001) %MON dynstat_uvel_del2            =   9.5671479275591E-05
(PID.TID 0000.0001) %MON dynstat_vvel_max             =   8.0116239773192E-01
(PID.TID 0000.0001) %MON dynstat_vvel_min             =  -7.7969404839463E-01
(PID.TID 0000.0001) %MON dynstat_vvel_mean            =  -3.7248352678486E-04
(PID.TID 0000.0001) %MON dynstat_vvel_sd              =   1.3420541812254E-02
(PID.TID 0000.0001) %MON dynstat_vvel_del2            =   1.3075177666568E-04
(PID.TID 0000.0001) %MON dynstat_wvel_max             =   1.3131201267242E-04
(PID.TID 0000.0001) %MON dynstat_wvel_min             =  -1.0357398664832E-03
(PID.TID 0000.0001) %MON dynstat_wvel_mean            =  -2.3410279120484E-07
(PID.TID 0000.0001) %MON dynstat_wvel_sd              =   1.1095971628340E-05
(PID.TID 0000.0001) %MON dynstat_wvel_del2            =   1.0064270935013E-07
(PID.TID 0000.0001) %MON dynstat_theta_max            =   3.0925270019106E+01
(PID.TID 0000.0001) %MON dynstat_theta_min            =  -3.0170992626362E+00
(PID.TID 0000.0001) %MON dynstat_theta_mean           =   3.9089521696637E+00
(PID.TID 0000.0001) %MON dynstat_theta_sd             =   4.5706324418530E+00
(PID.TID 0000.0001) %MON dynstat_theta_del2           =   2.6544433525992E-03
(PID.TID 0000.0001) %MON dynstat_salt_max             =   4.1376875820436E+01
(PID.TID 0000.0001) %MON dynstat_salt_min             =   1.8518411829901E+01
(PID.TID 0000.0001) %MON dynstat_salt_mean            =   3.4772186083351E+01
(PID.TID 0000.0001) %MON dynstat_salt_sd              =   5.3094924918187E-01
(PID.TID 0000.0001) %MON dynstat_salt_del2            =   8.0422103516148E-04
(PID.TID 0000.0001) %MON dynstat_sst_max              =   3.0925270019106E+01
(PID.TID 0000.0001) %MON dynstat_sst_min              =  -1.8998793365928E+00
(PID.TID 0000.0001) %MON dynstat_sst_mean             =   1.8100242431305E+01
(PID.TID 0000.0001) %MON dynstat_sst_sd               =   9.7998694254762E+00
(PID.TID 0000.0001) %MON dynstat_sst_del2             =   1.5323585916287E-02
(PID.TID 0000.0001) %MON dynstat_sss_max              =   4.1376875820436E+01
(PID.TID 0000.0001) %MON dynstat_sss_min              =   1.8751369355337E+01
(PID.TID 0000.0001) %MON dynstat_sss_mean             =   3.4641123368401E+01
(PID.TID 0000.0001) %MON dynstat_sss_sd               =   1.4574514182462E+00
(PID.TID 0000.0001) %MON dynstat_sss_del2             =   8.0356833516584E-03
(PID.TID 0000.0001) %MON forcing_qnet_max             =   3.0911521484375E+04
(PID.TID 0000.0001) %MON forcing_qnet_min             =  -1.0613336914062E+04
(PID.TID 0000.0001) %MON forcing_qnet_mean            =  -1.5041933549779E+02
(PID.TID 0000.0001) %MON forcing_qnet_sd              =   1.2075825628328E+03
(PID.TID 0000.0001) %MON forcing_qnet_del2            =   4.6729660403757E+01
(PID.TID 0000.0001) %MON forcing_qsw_max              =   0.0000000000000E+00
(PID.TID 0000.0001) %MON forcing_qsw_min              =   0.0000000000000E+00
(PID.TID 0000.0001) %MON forcing_qsw_mean             =   0.0000000000000E+00
(PID.TID 0000.0001) %MON forcing_qsw_sd               =   0.0000000000000E+00
(PID.TID 0000.0001) %MON forcing_qsw_del2             =   0.0000000000000E+00
(PID.TID 0000.0001) %MON forcing_empmr_max            =   1.3590793311596E-01
(PID.TID 0000.0001) %MON forcing_empmr_min            =  -6.2462788820267E-01
(PID.TID 0000.0001) %MON forcing_empmr_mean           =  -6.4270161997454E-04
(PID.TID 0000.0001) %MON forcing_empmr_sd             =   1.2348769884938E-02
(PID.TID 0000.0001) %MON forcing_empmr_del2           =   4.8821095029489E-04
(PID.TID 0000.0001) %MON forcing_fu_max               =   5.6346533419467E-01
(PID.TID 0000.0001) %MON forcing_fu_min               =  -4.3181161802186E-01
(PID.TID 0000.0001) %MON forcing_fu_mean              =  -4.0123567798204E-03
(PID.TID 0000.0001) %MON forcing_fu_sd                =   6.7976379318755E-02
(PID.TID 0000.0001) %MON forcing_fu_del2              =   6.7433384596802E-04
(PID.TID 0000.0001) %MON forcing_fv_max               =   3.1438595575216E-01
(PID.TID 0000.0001) %MON forcing_fv_min               =  -3.1472663669592E-01
(PID.TID 0000.0001) %MON forcing_fv_mean              =  -1.3044037006942E-02
(PID.TID 0000.0001) %MON forcing_fv_sd                =   6.5077964518834E-02
(PID.TID 0000.0001) %MON forcing_fv_del2              =   5.4246701088047E-04
(PID.TID 0000.0001) %MON trAdv_CFL_u_max              =   8.1937019502972E-05
(PID.TID 0000.0001) %MON trAdv_CFL_v_max              =   1.2666816006099E-04
(PID.TID 0000.0001) %MON trAdv_CFL_w_max              =   2.6994597160213E-04
(PID.TID 0000.0001) %MON advcfl_uvel_max              =   8.7387536462120E-05
(PID.TID 0000.0001) %MON advcfl_vvel_max              =   7.2624587333419E-05
(PID.TID 0000.0001) %MON advcfl_wvel_max              =   6.0350520599292E-04
(PID.TID 0000.0001) %MON advcfl_W_hf_max              =   2.6994597160213E-04
(PID.TID 0000.0001) %MON pe_b_mean                    =   5.5036628686393E-04
(PID.TID 0000.0001) %MON ke_max                       =   3.8266603757024E-01
(PID.TID 0000.0001) %MON ke_mean                      =   1.5935094242252E-04
(PID.TID 0000.0001) %MON ke_vol                       =   1.3398060809396E+18
(PID.TID 0000.0001) %MON vort_r_min                   =  -2.7263318004458E-06
(PID.TID 0000.0001) %MON vort_r_max                   =   2.7403007104032E-06
(PID.TID 0000.0001) %MON vort_a_mean                  =  -2.0549865324846E-05
(PID.TID 0000.0001) %MON vort_a_sd                    =   7.5259525426011E-05
(PID.TID 0000.0001) %MON vort_p_mean                  =  -2.4783419769607E-05
(PID.TID 0000.0001) %MON vort_p_sd                    =   1.2811958780516E-04
(PID.TID 0000.0001) %MON surfExpan_theta_mean         =  -6.5493654630062E-06
(PID.TID 0000.0001) %MON surfExpan_salt_mean          =   7.6264286524259E-07
(PID.TID 0000.0001) // =======================================================
(PID.TID 0000.0001) // End MONITOR dynamic field statistics
(PID.TID 0000.0001) // =======================================================
 cg2d: Sum(rhs),rhsMax =  -5.07180452720851E+00  2.20392864582745E+05
(PID.TID 0000.0001)      cg2d_init_res =   6.09617187783015E-03
(PID.TID 0000.0001)      cg2d_iters(min,last) =      -1       1
(PID.TID 0000.0001)      cg2d_last_res =   5.77397934332283E-08
(PID.TID 0000.0001) // =======================================================
(PID.TID 0000.0001) // Begin MONITOR dynamic field statistics
(PID.TID 0000.0001) // =======================================================
(PID.TID 0000.0001) %MON time_tsnumber                =                 72115
(PID.TID 0000.0001) %MON time_secondsf                =   1.8028750000000E+06
(PID.TID 0000.0001) %MON dynstat_eta_max              =   8.2444174619712E+00
(PID.TID 0000.0001) %MON dynstat_eta_min              =  -1.6188504630246E+00
(PID.TID 0000.0001) %MON dynstat_eta_mean             =   1.0022041769577E-02
(PID.TID 0000.0001) %MON dynstat_eta_sd               =   6.4253994709457E-01
(PID.TID 0000.0001) %MON dynstat_eta_del2             =   7.3179421898415E-03
(PID.TID 0000.0001) %MON dynstat_uvel_max             =   9.5105186723987E-01
(PID.TID 0000.0001) %MON dynstat_uvel_min             =  -4.9722668937563E-01
(PID.TID 0000.0001) %MON dynstat_uvel_mean            =  -4.2795058297639E-04
(PID.TID 0000.0001) %MON dynstat_uvel_sd              =   1.2842752801635E-02
(PID.TID 0000.0001) %MON dynstat_uvel_del2            =   9.6173933120353E-05
(PID.TID 0000.0001) %MON dynstat_vvel_max             =   8.0738281027290E-01
(PID.TID 0000.0001) %MON dynstat_vvel_min             =  -7.8594931830929E-01
(PID.TID 0000.0001) %MON dynstat_vvel_mean            =  -3.7219688804074E-04
(PID.TID 0000.0001) %MON dynstat_vvel_sd              =   1.3430172911828E-02
(PID.TID 0000.0001) %MON dynstat_vvel_del2            =   1.3154571179320E-04
(PID.TID 0000.0001) %MON dynstat_wvel_max             =   1.1952844794822E-04
(PID.TID 0000.0001) %MON dynstat_wvel_min             =  -1.0388893781129E-03
(PID.TID 0000.0001) %MON dynstat_wvel_mean            =  -2.3635567531911E-07
(PID.TID 0000.0001) %MON dynstat_wvel_sd              =   1.1130763001613E-05
(PID.TID 0000.0001) %MON dynstat_wvel_del2            =   1.0078809748474E-07
(PID.TID 0000.0001) %MON dynstat_theta_max            =   3.0925264017732E+01
(PID.TID 0000.0001) %MON dynstat_theta_min            =  -3.0170820266012E+00
(PID.TID 0000.0001) %MON dynstat_theta_mean           =   3.9089525069990E+00
(PID.TID 0000.0001) %MON dynstat_theta_sd             =   4.5706335380571E+00
(PID.TID 0000.0001) %MON dynstat_theta_del2           =   2.6544280060123E-03
(PID.TID 0000.0001) %MON dynstat_salt_max             =   4.1376863708194E+01
(PID.TID 0000.0001) %MON dynstat_salt_min             =   1.8518412097486E+01
(PID.TID 0000.0001) %MON dynstat_salt_mean            =   3.4772185872641E+01
(PID.TID 0000.0001) %MON dynstat_salt_sd              =   5.3094962995153E-01
(PID.TID 0000.0001) %MON dynstat_salt_del2            =   8.0426129955679E-04
(PID.TID 0000.0001) %MON dynstat_sst_max              =   3.0925264017732E+01
(PID.TID 0000.0001) %MON dynstat_sst_min              =  -1.8998782362653E+00
(PID.TID 0000.0001) %MON dynstat_sst_mean             =   1.8100263281248E+01
(PID.TID 0000.0001) %MON dynstat_sst_sd               =   9.7998724960945E+00
(PID.TID 0000.0001) %MON dynstat_sst_del2             =   1.5323203908623E-02
(PID.TID 0000.0001) %MON dynstat_sss_max              =   4.1376863708194E+01
(PID.TID 0000.0001) %MON dynstat_sss_min              =   1.8751369393819E+01
(PID.TID 0000.0001) %MON dynstat_sss_mean             =   3.4641108437697E+01
(PID.TID 0000.0001) %MON dynstat_sss_sd               =   1.4574601910565E+00
(PID.TID 0000.0001) %MON dynstat_sss_del2             =   8.0363172313150E-03
(PID.TID 0000.0001) %MON forcing_qnet_max             =   3.0314070312500E+04
(PID.TID 0000.0001) %MON forcing_qnet_min             =  -1.0233259765625E+04
(PID.TID 0000.0001) %MON forcing_qnet_mean            =  -1.5778827426169E+02
(PID.TID 0000.0001) %MON forcing_qnet_sd              =   1.1513699639187E+03
(PID.TID 0000.0001) %MON forcing_qnet_del2            =   4.4433088696034E+01
(PID.TID 0000.0001) %MON forcing_qsw_max              =   0.0000000000000E+00
(PID.TID 0000.0001) %MON forcing_qsw_min              =   0.0000000000000E+00
(PID.TID 0000.0001) %MON forcing_qsw_mean             =   0.0000000000000E+00
(PID.TID 0000.0001) %MON forcing_qsw_sd               =   0.0000000000000E+00
(PID.TID 0000.0001) %MON forcing_qsw_del2             =   0.0000000000000E+00
(PID.TID 0000.0001) %MON forcing_empmr_max            =   1.2371194362640E-01
(PID.TID 0000.0001) %MON forcing_empmr_min            =  -6.2313377857208E-01
(PID.TID 0000.0001) %MON forcing_empmr_mean           =  -6.4420012184995E-04
(PID.TID 0000.0001) %MON forcing_empmr_sd             =   1.2315339011202E-02
(PID.TID 0000.0001) %MON forcing_empmr_del2           =   4.8709868964621E-04
(PID.TID 0000.0001) %MON forcing_fu_max               =   5.6346533419467E-01
(PID.TID 0000.0001) %MON forcing_fu_min               =  -4.3181161802186E-01
(PID.TID 0000.0001) %MON forcing_fu_mean              =  -4.0123567798204E-03
(PID.TID 0000.0001) %MON forcing_fu_sd                =   6.7976379318755E-02
(PID.TID 0000.0001) %MON forcing_fu_del2              =   6.7433384596802E-04
(PID.TID 0000.0001) %MON forcing_fv_max               =   3.1438595575216E-01
(PID.TID 0000.0001) %MON forcing_fv_min               =  -3.1472663669592E-01
(PID.TID 0000.0001) %MON forcing_fv_mean              =  -1.3044037006942E-02
(PID.TID 0000.0001) %MON forcing_fv_sd                =   6.5077964518834E-02
(PID.TID 0000.0001) %MON forcing_fv_del2              =   5.4246701088047E-04
(PID.TID 0000.0001) %MON trAdv_CFL_u_max              =   8.2614151340912E-05
(PID.TID 0000.0001) %MON trAdv_CFL_v_max              =   1.2759667950680E-04
(PID.TID 0000.0001) %MON trAdv_CFL_w_max              =   2.6913278078637E-04
(PID.TID 0000.0001) %MON advcfl_uvel_max              =   8.8098223141568E-05
(PID.TID 0000.0001) %MON advcfl_vvel_max              =   7.3188461642937E-05
(PID.TID 0000.0001) %MON advcfl_wvel_max              =   6.0206162180878E-04
(PID.TID 0000.0001) %MON advcfl_W_hf_max              =   2.6913278078637E-04
(PID.TID 0000.0001) %MON pe_b_mean                    =   5.5013490712010E-04
(PID.TID 0000.0001) %MON ke_max                       =   3.8894693123007E-01
(PID.TID 0000.0001) %MON ke_mean                      =   1.5959712469512E-04
(PID.TID 0000.0001) %MON ke_vol                       =   1.3398060865886E+18
(PID.TID 0000.0001) %MON vort_r_min                   =  -2.7488677250598E-06
(PID.TID 0000.0001) %MON vort_r_max                   =   2.7613452862029E-06
(PID.TID 0000.0001) %MON vort_a_mean                  =  -2.0549865324846E-05
(PID.TID 0000.0001) %MON vort_a_sd                    =   7.5259525519980E-05
(PID.TID 0000.0001) %MON vort_p_mean                  =  -2.4783419632747E-05
(PID.TID 0000.0001) %MON vort_p_sd                    =   1.2811958623500E-04
(PID.TID 0000.0001) %MON surfExpan_theta_mean         =  -6.5591192270882E-06
(PID.TID 0000.0001) %MON surfExpan_salt_mean          =   7.6703824508281E-07
(PID.TID 0000.0001) // =======================================================
(PID.TID 0000.0001) // End MONITOR dynamic field statistics
(PID.TID 0000.0001) // =======================================================
 cg2d: Sum(rhs),rhsMax =  -5.08612882588739E+00  2.20113935165764E+05
(PID.TID 0000.0001)      cg2d_init_res =   6.12142230967213E-03
(PID.TID 0000.0001)      cg2d_iters(min,last) =      -1       1
(PID.TID 0000.0001)      cg2d_last_res =   5.79338995708007E-08
(PID.TID 0000.0001) // =======================================================
(PID.TID 0000.0001) // Begin MONITOR dynamic field statistics
(PID.TID 0000.0001) // =======================================================
(PID.TID 0000.0001) %MON time_tsnumber                =                 72116
(PID.TID 0000.0001) %MON time_secondsf                =   1.8029000000000E+06
(PID.TID 0000.0001) %MON dynstat_eta_max              =   8.2317419996262E+00
(PID.TID 0000.0001) %MON dynstat_eta_min              =  -1.6188785037268E+00
(PID.TID 0000.0001) %MON dynstat_eta_mean             =   1.0037627295765E-02
(PID.TID 0000.0001) %MON dynstat_eta_sd               =   6.4240452216530E-01
(PID.TID 0000.0001) %MON dynstat_eta_del2             =   7.2980935222281E-03
(PID.TID 0000.0001) %MON dynstat_uvel_max             =   9.5870853279201E-01
(PID.TID 0000.0001) %MON dynstat_uvel_min             =  -4.9996961621134E-01
(PID.TID 0000.0001) %MON dynstat_uvel_mean            =  -4.2717433601288E-04
(PID.TID 0000.0001) %MON dynstat_uvel_sd              =   1.2853483358352E-02
(PID.TID 0000.0001) %MON dynstat_uvel_del2            =   9.6675258935149E-05
(PID.TID 0000.0001) %MON dynstat_vvel_max             =   8.1358116925080E-01
(PID.TID 0000.0001) %MON dynstat_vvel_min             =  -7.9219252581943E-01
(PID.TID 0000.0001) %MON dynstat_vvel_mean            =  -3.7191199151621E-04
(PID.TID 0000.0001) %MON dynstat_vvel_sd              =   1.3439777411550E-02
(PID.TID 0000.0001) %MON dynstat_vvel_del2            =   1.3233599137824E-04
(PID.TID 0000.0001) %MON dynstat_wvel_max             =   1.0880727842810E-04
(PID.TID 0000.0001) %MON dynstat_wvel_min             =  -1.0419288135247E-03
(PID.TID 0000.0001) %MON dynstat_wvel_mean            =  -2.3851320441110E-07
(PID.TID 0000.0001) %MON dynstat_wvel_sd              =   1.1164902019448E-05
(PID.TID 0000.0001) %MON dynstat_wvel_del2            =   1.0092848536624E-07
(PID.TID 0000.0001) %MON dynstat_theta_max            =   3.0925258017114E+01
(PID.TID 0000.0001) %MON dynstat_theta_min            =  -3.0170645226337E+00
(PID.TID 0000.0001) %MON dynstat_theta_mean           =   3.9089528521784E+00
(PID.TID 0000.0001) %MON dynstat_theta_sd             =   4.5706346691784E+00
(PID.TID 0000.0001) %MON dynstat_theta_del2           =   2.6544129533889E-03
(PID.TID 0000.0001) %MON dynstat_salt_max             =   4.1376851496659E+01
(PID.TID 0000.0001) %MON dynstat_salt_min             =   1.8518412365072E+01
(PID.TID 0000.0001) %MON dynstat_salt_mean            =   3.4772185662594E+01
(PID.TID 0000.0001) %MON dynstat_salt_sd              =   5.3095001184884E-01
(PID.TID 0000.0001) %MON dynstat_salt_del2            =   8.0430195234728E-04
(PID.TID 0000.0001) %MON dynstat_sst_max              =   3.0925258017114E+01
(PID.TID 0000.0001) %MON dynstat_sst_min              =  -1.8998771345268E+00
(PID.TID 0000.0001) %MON dynstat_sst_mean             =   1.8100284582153E+01
(PID.TID 0000.0001) %MON dynstat_sst_sd               =   9.7998760395903E+00
(PID.TID 0000.0001) %MON dynstat_sst_del2             =   1.5322830889292E-02
(PID.TID 0000.0001) %MON dynstat_sss_max              =   4.1376851496659E+01
(PID.TID 0000.0001) %MON dynstat_sss_min              =   1.8751369432738E+01
(PID.TID 0000.0001) %MON dynstat_sss_mean             =   3.4641093543617E+01
(PID.TID 0000.0001) %MON dynstat_sss_sd               =   1.4574689906524E+00
(PID.TID 0000.0001) %MON dynstat_sss_del2             =   8.0369572323202E-03
(PID.TID 0000.0001) %MON forcing_qnet_max             =   2.9865654296875E+04
(PID.TID 0000.0001) %MON forcing_qnet_min             =  -9.9899609375000E+03
(PID.TID 0000.0001) %MON forcing_qnet_mean            =  -1.6254834738671E+02
(PID.TID 0000.0001) %MON forcing_qnet_sd              =   1.1069683815447E+03
(PID.TID 0000.0001) %MON forcing_qnet_del2            =   4.2560209424355E+01
(PID.TID 0000.0001) %MON forcing_qsw_max              =   0.0000000000000E+00
(PID.TID 0000.0001) %MON forcing_qsw_min              =   0.0000000000000E+00
(PID.TID 0000.0001) %MON forcing_qsw_mean             =   0.0000000000000E+00
(PID.TID 0000.0001) %MON forcing_qsw_sd               =   0.0000000000000E+00
(PID.TID 0000.0001) %MON forcing_qsw_del2             =   0.0000000000000E+00
(PID.TID 0000.0001) %MON forcing_empmr_max            =   1.1261553317308E-01
(PID.TID 0000.0001) %MON forcing_empmr_min            =  -6.2162005901337E-01
(PID.TID 0000.0001) %MON forcing_empmr_mean           =  -6.4524078421012E-04
(PID.TID 0000.0001) %MON forcing_empmr_sd             =   1.2283300788849E-02
(PID.TID 0000.0001) %MON forcing_empmr_del2           =   4.8599871049096E-04
(PID.TID 0000.0001) %MON forcing_fu_max               =   5.6346533419467E-01
(PID.TID 0000.0001) %MON forcing_fu_min               =  -4.3181161802186E-01
(PID.TID 0000.0001) %MON forcing_fu_mean              =  -4.0123567798204E-03
(PID.TID 0000.0001) %MON forcing_fu_sd                =   6.7976379318755E-02
(PID.TID 0000.0001) %MON forcing_fu_del2              =   6.7433384596802E-04
(PID.TID 0000.0001) %MON forcing_fv_max               =   3.1438595575216E-01
(PID.TID 0000.0001) %MON forcing_fv_min               =  -3.1472663669592E-01
(PID.TID 0000.0001) %MON forcing_fv_mean              =  -1.3044037006942E-02
(PID.TID 0000.0001) %MON forcing_fv_sd                =   6.5077964518834E-02
(PID.TID 0000.0001) %MON forcing_fv_del2              =   5.4246701088047E-04
(PID.TID 0000.0001) %MON trAdv_CFL_u_max              =   8.3290183496348E-05
(PID.TID 0000.0001) %MON trAdv_CFL_v_max              =   1.2851990126041E-04
(PID.TID 0000.0001) %MON trAdv_CFL_w_max              =   2.6831090229881E-04
(PID.TID 0000.0001) %MON advcfl_uvel_max              =   8.8807478497209E-05
(PID.TID 0000.0001) %MON advcfl_vvel_max              =   7.3750336818543E-05
(PID.TID 0000.0001) %MON advcfl_wvel_max              =   6.0059909083417E-04
(PID.TID 0000.0001) %MON advcfl_W_hf_max              =   2.6831090229881E-04
(PID.TID 0000.0001) %MON pe_b_mean                    =   5.4990350376245E-04
(PID.TID 0000.0001) %MON ke_max                       =   3.9526496635933E-01
(PID.TID 0000.0001) %MON ke_mean                      =   1.5984310502368E-04
(PID.TID 0000.0001) %MON ke_vol                       =   1.3398060922508E+18
(PID.TID 0000.0001) %MON vort_r_min                   =  -2.7713159993171E-06
(PID.TID 0000.0001) %MON vort_r_max                   =   2.7823061449202E-06
(PID.TID 0000.0001) %MON vort_a_mean                  =  -2.0549865324846E-05
(PID.TID 0000.0001) %MON vort_a_sd                    =   7.5259525613662E-05
(PID.TID 0000.0001) %MON vort_p_mean                  =  -2.4783419495467E-05
(PID.TID 0000.0001) %MON vort_p_sd                    =   1.2811958465042E-04
(PID.TID 0000.0001) %MON surfExpan_theta_mean         =  -6.5708778811285E-06
(PID.TID 0000.0001) %MON surfExpan_salt_mean          =   7.7106446938556E-07
(PID.TID 0000.0001) // =======================================================
(PID.TID 0000.0001) // End MONITOR dynamic field statistics
(PID.TID 0000.0001) // =======================================================
 cg2d: Sum(rhs),rhsMax =  -5.10054992490470E+00  2.19832806287801E+05
(PID.TID 0000.0001)      cg2d_init_res =   6.14648748498055E-03
(PID.TID 0000.0001)      cg2d_iters(min,last) =      -1       1
(PID.TID 0000.0001)      cg2d_last_res =   5.81251367859725E-08
(PID.TID 0000.0001) // =======================================================
(PID.TID 0000.0001) // Begin MONITOR dynamic field statistics
(PID.TID 0000.0001) // =======================================================
(PID.TID 0000.0001) %MON time_tsnumber                =                 72117
(PID.TID 0000.0001) %MON time_secondsf                =   1.8029250000000E+06
(PID.TID 0000.0001) %MON dynstat_eta_max              =   8.2189677405438E+00
(PID.TID 0000.0001) %MON dynstat_eta_min              =  -1.6189071067743E+00
(PID.TID 0000.0001) %MON dynstat_eta_mean             =   1.0053231387792E-02
(PID.TID 0000.0001) %MON dynstat_eta_sd               =   6.4226907485590E-01
(PID.TID 0000.0001) %MON dynstat_eta_del2             =   7.2781661893454E-03
(PID.TID 0000.0001) %MON dynstat_uvel_max             =   9.6634960245681E-01
(PID.TID 0000.0001) %MON dynstat_uvel_min             =  -5.0270758101932E-01
(PID.TID 0000.0001) %MON dynstat_uvel_mean            =  -4.2639423742295E-04
(PID.TID 0000.0001) %MON dynstat_uvel_sd              =   1.2864207316130E-02
(PID.TID 0000.0001) %MON dynstat_uvel_del2            =   9.7175423081076E-05
(PID.TID 0000.0001) %MON dynstat_vvel_max             =   8.1975741512618E-01
(PID.TID 0000.0001) %MON dynstat_vvel_min             =  -7.9842357641720E-01
(PID.TID 0000.0001) %MON dynstat_vvel_mean            =  -3.7162888870243E-04
(PID.TID 0000.0001) %MON dynstat_vvel_sd              =   1.3449354279515E-02
(PID.TID 0000.0001) %MON dynstat_vvel_del2            =   1.3312258240662E-04
(PID.TID 0000.0001) %MON dynstat_wvel_max             =   1.0368728858210E-04
(PID.TID 0000.0001) %MON dynstat_wvel_min             =  -1.0448584817749E-03
(PID.TID 0000.0001) %MON dynstat_wvel_mean            =  -2.4060290943772E-07
(PID.TID 0000.0001) %MON dynstat_wvel_sd              =   1.1198360236635E-05
(PID.TID 0000.0001) %MON dynstat_wvel_del2            =   1.0106744812500E-07
(PID.TID 0000.0001) %MON dynstat_theta_max            =   3.0925252017251E+01
(PID.TID 0000.0001) %MON dynstat_theta_min            =  -3.0170467514947E+00
(PID.TID 0000.0001) %MON dynstat_theta_mean           =   3.9089532020360E+00
(PID.TID 0000.0001) %MON dynstat_theta_sd             =   4.5706358212872E+00
(PID.TID 0000.0001) %MON dynstat_theta_del2           =   2.6543981653368E-03
(PID.TID 0000.0001) %MON dynstat_salt_max             =   4.1376839286508E+01
(PID.TID 0000.0001) %MON dynstat_salt_min             =   1.8518412632658E+01
(PID.TID 0000.0001) %MON dynstat_salt_mean            =   3.4772185453209E+01
(PID.TID 0000.0001) %MON dynstat_salt_sd              =   5.3095039463081E-01
(PID.TID 0000.0001) %MON dynstat_salt_del2            =   8.0434299299665E-04
(PID.TID 0000.0001) %MON dynstat_sst_max              =   3.0925252017251E+01
(PID.TID 0000.0001) %MON dynstat_sst_min              =  -1.8998760313704E+00
(PID.TID 0000.0001) %MON dynstat_sst_mean             =   1.8100306109183E+01
(PID.TID 0000.0001) %MON dynstat_sst_sd               =   9.7998799086536E+00
(PID.TID 0000.0001) %MON dynstat_sst_del2             =   1.5322465948982E-02
(PID.TID 0000.0001) %MON dynstat_sss_max              =   4.1376839286508E+01
(PID.TID 0000.0001) %MON dynstat_sss_min              =   1.8751369472035E+01
(PID.TID 0000.0001) %MON dynstat_sss_mean             =   3.4641078686600E+01
(PID.TID 0000.0001) %MON dynstat_sss_sd               =   1.4574778110134E+00
(PID.TID 0000.0001) %MON dynstat_sss_del2             =   8.0376033431148E-03
(PID.TID 0000.0001) %MON forcing_qnet_max             =   2.9426986328125E+04
(PID.TID 0000.0001) %MON forcing_qnet_min             =  -9.9412294921875E+03
(PID.TID 0000.0001) %MON forcing_qnet_mean            =  -1.6539199542506E+02
(PID.TID 0000.0001) %MON forcing_qnet_sd              =   1.0704041011080E+03
(PID.TID 0000.0001) %MON forcing_qnet_del2            =   4.0976294405087E+01
(PID.TID 0000.0001) %MON forcing_qsw_max              =   0.0000000000000E+00
(PID.TID 0000.0001) %MON forcing_qsw_min              =   0.0000000000000E+00
(PID.TID 0000.0001) %MON forcing_qsw_mean             =   0.0000000000000E+00
(PID.TID 0000.0001) %MON forcing_qsw_sd               =   0.0000000000000E+00
(PID.TID 0000.0001) %MON forcing_qsw_del2             =   0.0000000000000E+00
(PID.TID 0000.0001) %MON forcing_empmr_max            =   1.0250994563103E-01
(PID.TID 0000.0001) %MON forcing_empmr_min            =  -6.2012594938278E-01
(PID.TID 0000.0001) %MON forcing_empmr_mean           =  -6.4600940991768E-04
(PID.TID 0000.0001) %MON forcing_empmr_sd             =   1.2253582253545E-02
(PID.TID 0000.0001) %MON forcing_empmr_del2           =   4.8496754752782E-04
(PID.TID 0000.0001) %MON forcing_fu_max               =   5.6346533419467E-01
(PID.TID 0000.0001) %MON forcing_fu_min               =  -4.3181161802186E-01
(PID.TID 0000.0001) %MON forcing_fu_mean              =  -4.0123567798204E-03
(PID.TID 0000.0001) %MON forcing_fu_sd                =   6.7976379318755E-02
(PID.TID 0000.0001) %MON forcing_fu_del2              =   6.7433384596802E-04
(PID.TID 0000.0001) %MON forcing_fv_max               =   3.1438595575216E-01
(PID.TID 0000.0001) %MON forcing_fv_min               =  -3.1472663669592E-01
(PID.TID 0000.0001) %MON forcing_fv_mean              =  -1.3044037006942E-02
(PID.TID 0000.0001) %MON forcing_fv_sd                =   6.5077964518834E-02
(PID.TID 0000.0001) %MON forcing_fv_del2              =   5.4246701088047E-04
(PID.TID 0000.0001) %MON trAdv_CFL_u_max              =   8.3965103920193E-05
(PID.TID 0000.0001) %MON trAdv_CFL_v_max              =   1.2943780217606E-04
(PID.TID 0000.0001) %MON trAdv_CFL_w_max              =   2.6749785480276E-04
(PID.TID 0000.0001) %MON advcfl_uvel_max              =   8.9515289168275E-05
(PID.TID 0000.0001) %MON advcfl_vvel_max              =   7.4310207463045E-05
(PID.TID 0000.0001) %MON advcfl_wvel_max              =   5.9915550665003E-04
(PID.TID 0000.0001) %MON advcfl_W_hf_max              =   2.6749785480276E-04
(PID.TID 0000.0001) %MON pe_b_mean                    =   5.4967211211393E-04
(PID.TID 0000.0001) %MON ke_max                       =   4.0161972473518E-01
(PID.TID 0000.0001) %MON ke_mean                      =   1.6008885417078E-04
(PID.TID 0000.0001) %MON ke_vol                       =   1.3398060979222E+18
(PID.TID 0000.0001) %MON vort_r_min                   =  -2.7936761169250E-06
(PID.TID 0000.0001) %MON vort_r_max                   =   2.8031830768691E-06
(PID.TID 0000.0001) %MON vort_a_mean                  =  -2.0549865324846E-05
(PID.TID 0000.0001) %MON vort_a_sd                    =   7.5259525707039E-05
(PID.TID 0000.0001) %MON vort_p_mean                  =  -2.4783419357831E-05
(PID.TID 0000.0001) %MON vort_p_sd                    =   1.2811958305301E-04
(PID.TID 0000.0001) %MON surfExpan_theta_mean         =  -6.5827827741122E-06
(PID.TID 0000.0001) %MON surfExpan_salt_mean          =   7.7490286573922E-07
(PID.TID 0000.0001) // =======================================================
(PID.TID 0000.0001) // End MONITOR dynamic field statistics
(PID.TID 0000.0001) // =======================================================
 cg2d: Sum(rhs),rhsMax =  -5.11506683528371E+00  2.19549483816528E+05
(PID.TID 0000.0001)      cg2d_init_res =   6.17136585491949E-03
(PID.TID 0000.0001)      cg2d_iters(min,last) =      -1       1
(PID.TID 0000.0001)      cg2d_last_res =   5.83185023236415E-08
(PID.TID 0000.0001) // =======================================================
(PID.TID 0000.0001) // Begin MONITOR dynamic field statistics
(PID.TID 0000.0001) // =======================================================
(PID.TID 0000.0001) %MON time_tsnumber                =                 72118
(PID.TID 0000.0001) %MON time_secondsf                =   1.8029500000000E+06
(PID.TID 0000.0001) %MON dynstat_eta_max              =   8.2060949872617E+00
(PID.TID 0000.0001) %MON dynstat_eta_min              =  -1.6189362657935E+00
(PID.TID 0000.0001) %MON dynstat_eta_mean             =   1.0068850782844E-02
(PID.TID 0000.0001) %MON dynstat_eta_sd               =   6.4213362878478E-01
(PID.TID 0000.0001) %MON dynstat_eta_del2             =   7.2581611213417E-03
(PID.TID 0000.0001) %MON dynstat_uvel_max             =   9.7397493309032E-01
(PID.TID 0000.0001) %MON dynstat_uvel_min             =  -5.0544055948533E-01
(PID.TID 0000.0001) %MON dynstat_uvel_mean            =  -4.2561031974839E-04
(PID.TID 0000.0001) %MON dynstat_uvel_sd              =   1.2874923381420E-02
(PID.TID 0000.0001) %MON dynstat_uvel_del2            =   9.7674392591248E-05
(PID.TID 0000.0001) %MON dynstat_vvel_max             =   8.2591148927921E-01
(PID.TID 0000.0001) %MON dynstat_vvel_min             =  -8.0464237583042E-01
(PID.TID 0000.0001) %MON dynstat_vvel_mean            =  -3.7134762953745E-04
(PID.TID 0000.0001) %MON dynstat_vvel_sd              =   1.3458902521223E-02
(PID.TID 0000.0001) %MON dynstat_vvel_del2            =   1.3390545293306E-04
(PID.TID 0000.0001) %MON dynstat_wvel_max             =   1.0369292614247E-04
(PID.TID 0000.0001) %MON dynstat_wvel_min             =  -1.0476786902433E-03
(PID.TID 0000.0001) %MON dynstat_wvel_mean            =  -2.4266615232825E-07
(PID.TID 0000.0001) %MON dynstat_wvel_sd              =   1.1231196414505E-05
(PID.TID 0000.0001) %MON dynstat_wvel_del2            =   1.0120304163497E-07
(PID.TID 0000.0001) %MON dynstat_theta_max            =   3.0925246018142E+01
(PID.TID 0000.0001) %MON dynstat_theta_min            =  -3.0170287139988E+00
(PID.TID 0000.0001) %MON dynstat_theta_mean           =   3.9089535545016E+00
(PID.TID 0000.0001) %MON dynstat_theta_sd             =   4.5706369854700E+00
(PID.TID 0000.0001) %MON dynstat_theta_del2           =   2.6543836053661E-03
(PID.TID 0000.0001) %MON dynstat_salt_max             =   4.1376826776608E+01
(PID.TID 0000.0001) %MON dynstat_salt_min             =   1.8518412900241E+01
(PID.TID 0000.0001) %MON dynstat_salt_mean            =   3.4772185244315E+01
(PID.TID 0000.0001) %MON dynstat_salt_sd              =   5.3095077809215E-01
(PID.TID 0000.0001) %MON dynstat_salt_del2            =   8.0438442129130E-04
(PID.TID 0000.0001) %MON dynstat_sst_max              =   3.0925246018142E+01
(PID.TID 0000.0001) %MON dynstat_sst_min              =  -1.8998749267827E+00
(PID.TID 0000.0001) %MON dynstat_sst_mean             =   1.8100327714181E+01
(PID.TID 0000.0001) %MON dynstat_sst_sd               =   9.7998840101159E+00
(PID.TID 0000.0001) %MON dynstat_sst_del2             =   1.5322107832563E-02
(PID.TID 0000.0001) %MON dynstat_sss_max              =   4.1376826776608E+01
(PID.TID 0000.0001) %MON dynstat_sss_min              =   1.8751369511660E+01
(PID.TID 0000.0001) %MON dynstat_sss_mean             =   3.4641063853960E+01
(PID.TID 0000.0001) %MON dynstat_sss_sd               =   1.4574866457185E+00
(PID.TID 0000.0001) %MON dynstat_sss_del2             =   8.0382555534062E-03
(PID.TID 0000.0001) %MON forcing_qnet_max             =   2.8988316406250E+04
(PID.TID 0000.0001) %MON forcing_qnet_min             =  -9.8827529296875E+03
(PID.TID 0000.0001) %MON forcing_qnet_mean            =  -1.6695912840876E+02
(PID.TID 0000.0001) %MON forcing_qnet_sd              =   1.0389681038165E+03
(PID.TID 0000.0001) %MON forcing_qnet_del2            =   3.9590541220425E+01
(PID.TID 0000.0001) %MON forcing_qsw_max              =   0.0000000000000E+00
(PID.TID 0000.0001) %MON forcing_qsw_min              =   0.0000000000000E+00
(PID.TID 0000.0001) %MON forcing_qsw_mean             =   0.0000000000000E+00
(PID.TID 0000.0001) %MON forcing_qsw_sd               =   0.0000000000000E+00
(PID.TID 0000.0001) %MON forcing_qsw_del2             =   0.0000000000000E+00
(PID.TID 0000.0001) %MON forcing_empmr_max            =   9.3310594558716E-02
(PID.TID 0000.0001) %MON forcing_empmr_min            =  -6.1863189935684E-01
(PID.TID 0000.0001) %MON forcing_empmr_mean           =  -6.4664295516479E-04
(PID.TID 0000.0001) %MON forcing_empmr_sd             =   1.2225514617605E-02
(PID.TID 0000.0001) %MON forcing_empmr_del2           =   4.8397532657646E-04
(PID.TID 0000.0001) %MON forcing_fu_max               =   5.6346533419467E-01
(PID.TID 0000.0001) %MON forcing_fu_min               =  -4.3181161802186E-01
(PID.TID 0000.0001) %MON forcing_fu_mean              =  -4.0123567798204E-03
(PID.TID 0000.0001) %MON forcing_fu_sd                =   6.7976379318755E-02
(PID.TID 0000.0001) %MON forcing_fu_del2              =   6.7433384596802E-04
(PID.TID 0000.0001) %MON forcing_fv_max               =   3.1438595575216E-01
(PID.TID 0000.0001) %MON forcing_fv_min               =  -3.1472663669592E-01
(PID.TID 0000.0001) %MON forcing_fv_mean              =  -1.3044037006942E-02
(PID.TID 0000.0001) %MON forcing_fv_sd                =   6.5077964518834E-02
(PID.TID 0000.0001) %MON forcing_fv_del2              =   5.4246701088047E-04
(PID.TID 0000.0001) %MON trAdv_CFL_u_max              =   8.4638900623066E-05
(PID.TID 0000.0001) %MON trAdv_CFL_v_max              =   1.3035035933123E-04
(PID.TID 0000.0001) %MON trAdv_CFL_w_max              =   2.6668492968519E-04
(PID.TID 0000.0001) %MON advcfl_uvel_max              =   9.0221641894998E-05
(PID.TID 0000.0001) %MON advcfl_vvel_max              =   7.4868068262613E-05
(PID.TID 0000.0001) %MON advcfl_wvel_max              =   5.9771198005492E-04
(PID.TID 0000.0001) %MON advcfl_W_hf_max              =   2.6668492968519E-04
(PID.TID 0000.0001) %MON pe_b_mean                    =   5.4944077252276E-04
(PID.TID 0000.0001) %MON ke_max                       =   4.0801078738479E-01
(PID.TID 0000.0001) %MON ke_mean                      =   1.6033434352592E-04
(PID.TID 0000.0001) %MON ke_vol                       =   1.3398061036003E+18
(PID.TID 0000.0001) %MON vort_r_min                   =  -2.8159475764330E-06
(PID.TID 0000.0001) %MON vort_r_max                   =   2.8239758735102E-06
(PID.TID 0000.0001) %MON vort_a_mean                  =  -2.0549865324846E-05
(PID.TID 0000.0001) %MON vort_a_sd                    =   7.5259525800098E-05
(PID.TID 0000.0001) %MON vort_p_mean                  =  -2.4783419219880E-05
(PID.TID 0000.0001) %MON vort_p_sd                    =   1.2811958144379E-04
(PID.TID 0000.0001) %MON surfExpan_theta_mean         =  -6.5973897644479E-06
(PID.TID 0000.0001) %MON surfExpan_salt_mean          =   7.7868588223973E-07
(PID.TID 0000.0001) // =======================================================
(PID.TID 0000.0001) // End MONITOR dynamic field statistics
(PID.TID 0000.0001) // =======================================================
 cg2d: Sum(rhs),rhsMax =  -5.12967795916406E+00  2.19263973651446E+05
(PID.TID 0000.0001)      cg2d_init_res =   6.19602492655569E-03
(PID.TID 0000.0001)      cg2d_iters(min,last) =      -1       1
(PID.TID 0000.0001)      cg2d_last_res =   5.85058317767399E-08
(PID.TID 0000.0001) // =======================================================
(PID.TID 0000.0001) // Begin MONITOR dynamic field statistics
(PID.TID 0000.0001) // =======================================================
(PID.TID 0000.0001) %MON time_tsnumber                =                 72119
(PID.TID 0000.0001) %MON time_secondsf                =   1.8029750000000E+06
(PID.TID 0000.0001) %MON dynstat_eta_max              =   8.1931240439447E+00
(PID.TID 0000.0001) %MON dynstat_eta_min              =  -1.6189659738563E+00
(PID.TID 0000.0001) %MON dynstat_eta_mean             =   1.0084481024309E-02
(PID.TID 0000.0001) %MON dynstat_eta_sd               =   6.4199820306262E-01
(PID.TID 0000.0001) %MON dynstat_eta_del2             =   7.2380792486067E-03
(PID.TID 0000.0001) %MON dynstat_uvel_max             =   9.8158438263862E-01
(PID.TID 0000.0001) %MON dynstat_uvel_min             =  -5.0816852736805E-01
(PID.TID 0000.0001) %MON dynstat_uvel_mean            =  -4.2482261612897E-04
(PID.TID 0000.0001) %MON dynstat_uvel_sd              =   1.2885630281087E-02
(PID.TID 0000.0001) %MON dynstat_uvel_del2            =   9.8172135120287E-05
(PID.TID 0000.0001) %MON dynstat_vvel_max             =   8.3204333399534E-01
(PID.TID 0000.0001) %MON dynstat_vvel_min             =  -8.1084883002287E-01
(PID.TID 0000.0001) %MON dynstat_vvel_mean            =  -3.7106826280058E-04
(PID.TID 0000.0001) %MON dynstat_vvel_sd              =   1.3468421179752E-02
(PID.TID 0000.0001) %MON dynstat_vvel_del2            =   1.3468457207229E-04
(PID.TID 0000.0001) %MON dynstat_wvel_max             =   1.0369858134164E-04
(PID.TID 0000.0001) %MON dynstat_wvel_min             =  -1.0503897444025E-03
(PID.TID 0000.0001) %MON dynstat_wvel_mean            =  -2.4471140999660E-07
(PID.TID 0000.0001) %MON dynstat_wvel_sd              =   1.1263381499042E-05
(PID.TID 0000.0001) %MON dynstat_wvel_del2            =   1.0133769685768E-07
(PID.TID 0000.0001) %MON dynstat_theta_max            =   3.0925240019786E+01
(PID.TID 0000.0001) %MON dynstat_theta_min            =  -3.0170104110117E+00
(PID.TID 0000.0001) %MON dynstat_theta_mean           =   3.9089539080502E+00
(PID.TID 0000.0001) %MON dynstat_theta_sd             =   4.5706381546660E+00
(PID.TID 0000.0001) %MON dynstat_theta_del2           =   2.6543692276554E-03
(PID.TID 0000.0001) %MON dynstat_salt_max             =   4.1376814268544E+01
(PID.TID 0000.0001) %MON dynstat_salt_min             =   1.8518413167820E+01
(PID.TID 0000.0001) %MON dynstat_salt_mean            =   3.4772185035933E+01
(PID.TID 0000.0001) %MON dynstat_salt_sd              =   5.3095116217831E-01
(PID.TID 0000.0001) %MON dynstat_salt_del2            =   8.0442623995749E-04
(PID.TID 0000.0001) %MON dynstat_sst_max              =   3.0925240019786E+01
(PID.TID 0000.0001) %MON dynstat_sst_min              =  -1.8998738207516E+00
(PID.TID 0000.0001) %MON dynstat_sst_mean             =   1.8100349295657E+01
(PID.TID 0000.0001) %MON dynstat_sst_sd               =   9.7998882589690E+00
(PID.TID 0000.0001) %MON dynstat_sst_del2             =   1.5321755347106E-02
(PID.TID 0000.0001) %MON dynstat_sss_max              =   4.1376814268544E+01
(PID.TID 0000.0001) %MON dynstat_sss_min              =   1.8751369551566E+01
(PID.TID 0000.0001) %MON dynstat_sss_mean             =   3.4641049048955E+01
(PID.TID 0000.0001) %MON dynstat_sss_sd               =   1.4574954944166E+00
(PID.TID 0000.0001) %MON dynstat_sss_del2             =   8.0389139063460E-03
(PID.TID 0000.0001) %MON forcing_qnet_max             =   2.8559400390625E+04
(PID.TID 0000.0001) %MON forcing_qnet_min             =  -9.8437685546875E+03
(PID.TID 0000.0001) %MON forcing_qnet_mean            =  -1.6759888466692E+02
(PID.TID 0000.0001) %MON forcing_qnet_sd              =   1.0113786902136E+03
(PID.TID 0000.0001) %MON forcing_qnet_del2            =   3.8368486348159E+01
(PID.TID 0000.0001) %MON forcing_qsw_max              =   0.0000000000000E+00
(PID.TID 0000.0001) %MON forcing_qsw_min              =   0.0000000000000E+00
(PID.TID 0000.0001) %MON forcing_qsw_mean             =   0.0000000000000E+00
(PID.TID 0000.0001) %MON forcing_qsw_sd               =   0.0000000000000E+00
(PID.TID 0000.0001) %MON forcing_qsw_del2             =   0.0000000000000E+00
(PID.TID 0000.0001) %MON forcing_empmr_max            =   8.4940947592258E-02
(PID.TID 0000.0001) %MON forcing_empmr_min            =  -6.1713778972626E-01
(PID.TID 0000.0001) %MON forcing_empmr_mean           =  -6.4709199664197E-04
(PID.TID 0000.0001) %MON forcing_empmr_sd             =   1.2198960203571E-02
(PID.TID 0000.0001) %MON forcing_empmr_del2           =   4.8303157616667E-04
(PID.TID 0000.0001) %MON forcing_fu_max               =   5.6346533419467E-01
(PID.TID 0000.0001) %MON forcing_fu_min               =  -4.3181161802186E-01
(PID.TID 0000.0001) %MON forcing_fu_mean              =  -4.0123567798204E-03
(PID.TID 0000.0001) %MON forcing_fu_sd                =   6.7976379318755E-02
(PID.TID 0000.0001) %MON forcing_fu_del2              =   6.7433384596802E-04
(PID.TID 0000.0001) %MON forcing_fv_max               =   3.1438595575216E-01
(PID.TID 0000.0001) %MON forcing_fv_min               =  -3.1472663669592E-01
(PID.TID 0000.0001) %MON forcing_fv_mean              =  -1.3044037006942E-02
(PID.TID 0000.0001) %MON forcing_fv_sd                =   6.5077964518834E-02
(PID.TID 0000.0001) %MON forcing_fv_del2              =   5.4246701088047E-04
(PID.TID 0000.0001) %MON trAdv_CFL_u_max              =   8.5311561675341E-05
(PID.TID 0000.0001) %MON trAdv_CFL_v_max              =   1.3125755002670E-04
(PID.TID 0000.0001) %MON trAdv_CFL_w_max              =   2.6587208988172E-04
(PID.TID 0000.0001) %MON advcfl_uvel_max              =   9.0926523518580E-05
(PID.TID 0000.0001) %MON advcfl_vvel_max              =   7.5423913985481E-05
(PID.TID 0000.0001) %MON advcfl_wvel_max              =   5.9626839587078E-04
(PID.TID 0000.0001) %MON advcfl_W_hf_max              =   2.6587208988172E-04
(PID.TID 0000.0001) %MON pe_b_mean                    =   5.4920951755934E-04
(PID.TID 0000.0001) %MON ke_max                       =   4.1443773406173E-01
(PID.TID 0000.0001) %MON ke_mean                      =   1.6057954510564E-04
(PID.TID 0000.0001) %MON ke_vol                       =   1.3398061092840E+18
(PID.TID 0000.0001) %MON vort_r_min                   =  -2.8381298812119E-06
(PID.TID 0000.0001) %MON vort_r_max                   =   2.8446843274561E-06
(PID.TID 0000.0001) %MON vort_a_mean                  =  -2.0549865324846E-05
(PID.TID 0000.0001) %MON vort_a_sd                    =   7.5259525892822E-05
(PID.TID 0000.0001) %MON vort_p_mean                  =  -2.4783419081627E-05
(PID.TID 0000.0001) %MON vort_p_sd                    =   1.2811957982350E-04
(PID.TID 0000.0001) %MON surfExpan_theta_mean         =  -6.6129521472956E-06
(PID.TID 0000.0001) %MON surfExpan_salt_mean          =   7.8231350587848E-07
(PID.TID 0000.0001) // =======================================================
(PID.TID 0000.0001) // End MONITOR dynamic field statistics
(PID.TID 0000.0001) // =======================================================
 cg2d: Sum(rhs),rhsMax =  -5.14438362213909E+00  2.18976281723855E+05
(PID.TID 0000.0001)      cg2d_init_res =   6.22046391831490E-03
(PID.TID 0000.0001)      cg2d_iters(min,last) =      -1       1
(PID.TID 0000.0001)      cg2d_last_res =   5.86965472130007E-08
(PID.TID 0000.0001) // =======================================================
(PID.TID 0000.0001) // Begin MONITOR dynamic field statistics
(PID.TID 0000.0001) // =======================================================
(PID.TID 0000.0001) %MON time_tsnumber                =                 72120
(PID.TID 0000.0001) %MON time_secondsf                =   1.8030000000000E+06
(PID.TID 0000.0001) %MON dynstat_eta_max              =   8.1800552163691E+00
(PID.TID 0000.0001) %MON dynstat_eta_min              =  -1.6189962234738E+00
(PID.TID 0000.0001) %MON dynstat_eta_mean             =   1.0100121441708E-02
(PID.TID 0000.0001) %MON dynstat_eta_sd               =   6.4186281183196E-01
(PID.TID 0000.0001) %MON dynstat_eta_del2             =   7.2179214595112E-03
(PID.TID 0000.0001) %MON dynstat_uvel_max             =   9.8917781014018E-01
(PID.TID 0000.0001) %MON dynstat_uvel_min             =  -5.1089146050140E-01
(PID.TID 0000.0001) %MON dynstat_uvel_mean            =  -4.2403115997522E-04
(PID.TID 0000.0001) %MON dynstat_uvel_sd              =   1.2896326761932E-02
(PID.TID 0000.0001) %MON dynstat_uvel_del2            =   9.8668618897526E-05
(PID.TID 0000.0001) %MON dynstat_vvel_max             =   8.3815289247080E-01
(PID.TID 0000.0001) %MON dynstat_vvel_min             =  -8.1704284519602E-01
(PID.TID 0000.0001) %MON dynstat_vvel_mean            =  -3.7079083536470E-04
(PID.TID 0000.0001) %MON dynstat_vvel_sd              =   1.3477909334834E-02
(PID.TID 0000.0001) %MON dynstat_vvel_del2            =   1.3545990993930E-04
(PID.TID 0000.0001) %MON dynstat_wvel_max             =   1.0370425424298E-04
(PID.TID 0000.0001) %MON dynstat_wvel_min             =  -1.0529919480876E-03
(PID.TID 0000.0001) %MON dynstat_wvel_mean            =  -2.4681405910078E-07
(PID.TID 0000.0001) %MON dynstat_wvel_sd              =   1.1294891653085E-05
(PID.TID 0000.0001) %MON dynstat_wvel_del2            =   1.0146713131626E-07
(PID.TID 0000.0001) %MON dynstat_theta_max            =   3.0925234022181E+01
(PID.TID 0000.0001) %MON dynstat_theta_min            =  -3.0169918434531E+00
(PID.TID 0000.0001) %MON dynstat_theta_mean           =   3.9089542616585E+00
(PID.TID 0000.0001) %MON dynstat_theta_sd             =   4.5706393249447E+00
(PID.TID 0000.0001) %MON dynstat_theta_del2           =   2.6543550104924E-03
(PID.TID 0000.0001) %MON dynstat_salt_max             =   4.1376801662090E+01
(PID.TID 0000.0001) %MON dynstat_salt_min             =   1.8518413435394E+01
(PID.TID 0000.0001) %MON dynstat_salt_mean            =   3.4772184828038E+01
(PID.TID 0000.0001) %MON dynstat_salt_sd              =   5.3095154685456E-01
(PID.TID 0000.0001) %MON dynstat_salt_del2            =   8.0446845168407E-04
(PID.TID 0000.0001) %MON dynstat_sst_max              =   3.0925234022181E+01
(PID.TID 0000.0001) %MON dynstat_sst_min              =  -1.8998727132648E+00
(PID.TID 0000.0001) %MON dynstat_sst_mean             =   1.8100370786208E+01
(PID.TID 0000.0001) %MON dynstat_sst_sd               =   9.7998926228388E+00
(PID.TID 0000.0001) %MON dynstat_sst_del2             =   1.5321407808685E-02
(PID.TID 0000.0001) %MON dynstat_sss_max              =   4.1376801662090E+01
(PID.TID 0000.0001) %MON dynstat_sss_min              =   1.8751369591716E+01
(PID.TID 0000.0001) %MON dynstat_sss_mean             =   3.4641034270457E+01
(PID.TID 0000.0001) %MON dynstat_sss_sd               =   1.4575043562917E+00
(PID.TID 0000.0001) %MON dynstat_sss_del2             =   8.0395784411696E-03
(PID.TID 0000.0001) %MON forcing_qnet_max             =   2.8149978515625E+04
(PID.TID 0000.0001) %MON forcing_qnet_min             =  -9.7950371093750E+03
(PID.TID 0000.0001) %MON forcing_qnet_mean            =  -1.6761490360329E+02
(PID.TID 0000.0001) %MON forcing_qnet_sd              =   9.8647408464563E+02
(PID.TID 0000.0001) %MON forcing_qnet_del2            =   3.7274560375229E+01
(PID.TID 0000.0001) %MON forcing_qsw_max              =   0.0000000000000E+00
(PID.TID 0000.0001) %MON forcing_qsw_min              =   0.0000000000000E+00
(PID.TID 0000.0001) %MON forcing_qsw_mean             =   0.0000000000000E+00
(PID.TID 0000.0001) %MON forcing_qsw_sd               =   0.0000000000000E+00
(PID.TID 0000.0001) %MON forcing_qsw_del2             =   0.0000000000000E+00
(PID.TID 0000.0001) %MON forcing_empmr_max            =   7.7316448092461E-02
(PID.TID 0000.0001) %MON forcing_empmr_min            =  -6.1566334962845E-01
(PID.TID 0000.0001) %MON forcing_empmr_mean           =  -6.4751328031358E-04
(PID.TID 0000.0001) %MON forcing_empmr_sd             =   1.2173131585083E-02
(PID.TID 0000.0001) %MON forcing_empmr_del2           =   4.8209514377909E-04
(PID.TID 0000.0001) %MON forcing_fu_max               =   5.6346533419467E-01
(PID.TID 0000.0001) %MON forcing_fu_min               =  -4.3181161802186E-01
(PID.TID 0000.0001) %MON forcing_fu_mean              =  -4.0123567798204E-03
(PID.TID 0000.0001) %MON forcing_fu_sd                =   6.7976379318755E-02
(PID.TID 0000.0001) %MON forcing_fu_del2              =   6.7433384596802E-04
(PID.TID 0000.0001) %MON forcing_fv_max               =   3.1438595575216E-01
(PID.TID 0000.0001) %MON forcing_fv_min               =  -3.1472663669592E-01
(PID.TID 0000.0001) %MON forcing_fv_mean              =  -1.3044037006942E-02
(PID.TID 0000.0001) %MON forcing_fv_sd                =   6.5077964518834E-02
(PID.TID 0000.0001) %MON forcing_fv_del2              =   5.4246701088047E-04
(PID.TID 0000.0001) %MON trAdv_CFL_u_max              =   8.5983075207440E-05
(PID.TID 0000.0001) %MON trAdv_CFL_v_max              =   1.3215935178778E-04
(PID.TID 0000.0001) %MON trAdv_CFL_w_max              =   2.6506815563424E-04
(PID.TID 0000.0001) %MON advcfl_uvel_max              =   9.1629920981416E-05
(PID.TID 0000.0001) %MON advcfl_vvel_max              =   7.5977739482441E-05
(PID.TID 0000.0001) %MON advcfl_wvel_max              =   5.9484381606613E-04
(PID.TID 0000.0001) %MON advcfl_W_hf_max              =   2.6506815563424E-04
(PID.TID 0000.0001) %MON pe_b_mean                    =   5.4897837137157E-04
(PID.TID 0000.0001) %MON ke_max                       =   4.2090014278573E-01
(PID.TID 0000.0001) %MON ke_mean                      =   1.6082443153885E-04
(PID.TID 0000.0001) %MON ke_vol                       =   1.3398061149717E+18
(PID.TID 0000.0001) %MON vort_r_min                   =  -2.8602225394785E-06
(PID.TID 0000.0001) %MON vort_r_max                   =   2.8653082325055E-06
(PID.TID 0000.0001) %MON vort_a_mean                  =  -2.0549865324846E-05
(PID.TID 0000.0001) %MON vort_a_sd                    =   7.5259525985199E-05
(PID.TID 0000.0001) %MON vort_p_mean                  =  -2.4783418943102E-05
(PID.TID 0000.0001) %MON vort_p_sd                    =   1.2811957819283E-04
(PID.TID 0000.0001) %MON surfExpan_theta_mean         =  -6.6296185571493E-06
(PID.TID 0000.0001) %MON surfExpan_salt_mean          =   7.8583988892130E-07
(PID.TID 0000.0001) // =======================================================
(PID.TID 0000.0001) // End MONITOR dynamic field statistics
(PID.TID 0000.0001) // =======================================================
 cg2d: Sum(rhs),rhsMax =  -5.15918291991485E+00  2.18686413996656E+05
(PID.TID 0000.0001)      cg2d_init_res =   6.24469734704193E-03
(PID.TID 0000.0001)      cg2d_iters(min,last) =      -1       1
(PID.TID 0000.0001)      cg2d_last_res =   5.88864486396185E-08
(PID.TID 0000.0001) // =======================================================
(PID.TID 0000.0001) // Begin MONITOR dynamic field statistics
(PID.TID 0000.0001) // =======================================================
(PID.TID 0000.0001) %MON time_tsnumber                =                 72121
(PID.TID 0000.0001) %MON time_secondsf                =   1.8030250000000E+06
(PID.TID 0000.0001) %MON dynstat_eta_max              =   8.1668888119069E+00
(PID.TID 0000.0001) %MON dynstat_eta_min              =  -1.6190270066084E+00
(PID.TID 0000.0001) %MON dynstat_eta_mean             =   1.0115768943221E-02
(PID.TID 0000.0001) %MON dynstat_eta_sd               =   6.4172747574579E-01
(PID.TID 0000.0001) %MON dynstat_eta_del2             =   7.1976886764224E-03
(PID.TID 0000.0001) %MON dynstat_uvel_max             =   9.9675507572821E-01
(PID.TID 0000.0001) %MON dynstat_uvel_min             =  -5.1360933479314E-01
(PID.TID 0000.0001) %MON dynstat_uvel_mean            =  -4.2323598483069E-04
(PID.TID 0000.0001) %MON dynstat_uvel_sd              =   1.2907011590297E-02
(PID.TID 0000.0001) %MON dynstat_uvel_del2            =   9.9163812745457E-05
(PID.TID 0000.0001) %MON dynstat_vvel_max             =   8.4424010879507E-01
(PID.TID 0000.0001) %MON dynstat_vvel_min             =  -8.2322432779162E-01
(PID.TID 0000.0001) %MON dynstat_vvel_mean            =  -3.7051539285018E-04
(PID.TID 0000.0001) %MON dynstat_vvel_sd              =   1.3487366102330E-02
(PID.TID 0000.0001) %MON dynstat_vvel_del2            =   1.3623143763079E-04
(PID.TID 0000.0001) %MON dynstat_wvel_max             =   1.0370994486398E-04
(PID.TID 0000.0001) %MON dynstat_wvel_min             =  -1.0554856030907E-03
(PID.TID 0000.0001) %MON dynstat_wvel_mean            =  -2.4889863242248E-07
(PID.TID 0000.0001) %MON dynstat_wvel_sd              =   1.1325716937872E-05
(PID.TID 0000.0001) %MON dynstat_wvel_del2            =   1.0159361426333E-07
(PID.TID 0000.0001) %MON dynstat_theta_max            =   3.0925228025328E+01
(PID.TID 0000.0001) %MON dynstat_theta_min            =  -3.0169730122961E+00
(PID.TID 0000.0001) %MON dynstat_theta_mean           =   3.9089546148882E+00
(PID.TID 0000.0001) %MON dynstat_theta_sd             =   4.5706404943202E+00
(PID.TID 0000.0001) %MON dynstat_theta_del2           =   2.6543409567888E-03
(PID.TID 0000.0001) %MON dynstat_salt_max             =   4.1376788957475E+01
(PID.TID 0000.0001) %MON dynstat_salt_min             =   1.8518413702963E+01
(PID.TID 0000.0001) %MON dynstat_salt_mean            =   3.4772184620569E+01
(PID.TID 0000.0001) %MON dynstat_salt_sd              =   5.3095193202695E-01
(PID.TID 0000.0001) %MON dynstat_salt_del2            =   8.0451104844569E-04
(PID.TID 0000.0001) %MON dynstat_sst_max              =   3.0925228025328E+01
(PID.TID 0000.0001) %MON dynstat_sst_min              =  -1.8998716043109E+00
(PID.TID 0000.0001) %MON dynstat_sst_mean             =   1.8100392161068E+01
(PID.TID 0000.0001) %MON dynstat_sst_sd               =   9.7998970733350E+00
(PID.TID 0000.0001) %MON dynstat_sst_del2             =   1.5321065221644E-02
(PID.TID 0000.0001) %MON dynstat_sss_max              =   4.1376788957475E+01
(PID.TID 0000.0001) %MON dynstat_sss_min              =   1.8751369632074E+01
(PID.TID 0000.0001) %MON dynstat_sss_mean             =   3.4641019514543E+01
(PID.TID 0000.0001) %MON dynstat_sss_sd               =   1.4575132290875E+00
(PID.TID 0000.0001) %MON dynstat_sss_del2             =   8.0402490284779E-03
(PID.TID 0000.0001) %MON forcing_qnet_max             =   2.7730812500000E+04
(PID.TID 0000.0001) %MON forcing_qnet_min             =  -9.7463066406250E+03
(PID.TID 0000.0001) %MON forcing_qnet_mean            =  -1.6735930974740E+02
(PID.TID 0000.0001) %MON forcing_qnet_sd              =   9.6388008356552E+02
(PID.TID 0000.0001) %MON forcing_qnet_del2            =   3.6273739375452E+01
(PID.TID 0000.0001) %MON forcing_qsw_max              =   0.0000000000000E+00
(PID.TID 0000.0001) %MON forcing_qsw_min              =   0.0000000000000E+00
(PID.TID 0000.0001) %MON forcing_qsw_mean             =   0.0000000000000E+00
(PID.TID 0000.0001) %MON forcing_qsw_sd               =   0.0000000000000E+00
(PID.TID 0000.0001) %MON forcing_qsw_del2             =   0.0000000000000E+00
(PID.TID 0000.0001) %MON forcing_empmr_max            =   7.0380680263042E-02
(PID.TID 0000.0001) %MON forcing_empmr_min            =  -6.1416923999786E-01
(PID.TID 0000.0001) %MON forcing_empmr_mean           =  -6.4780656263670E-04
(PID.TID 0000.0001) %MON forcing_empmr_sd             =   1.2148157189748E-02
(PID.TID 0000.0001) %MON forcing_empmr_del2           =   4.8118160135132E-04
(PID.TID 0000.0001) %MON forcing_fu_max               =   5.6346533419467E-01
(PID.TID 0000.0001) %MON forcing_fu_min               =  -4.3181161802186E-01
(PID.TID 0000.0001) %MON forcing_fu_mean              =  -4.0123567798204E-03
(PID.TID 0000.0001) %MON forcing_fu_sd                =   6.7976379318755E-02
(PID.TID 0000.0001) %MON forcing_fu_del2              =   6.7433384596802E-04
(PID.TID 0000.0001) %MON forcing_fv_max               =   3.1438595575216E-01
(PID.TID 0000.0001) %MON forcing_fv_min               =  -3.1472663669592E-01
(PID.TID 0000.0001) %MON forcing_fv_mean              =  -1.3044037006942E-02
(PID.TID 0000.0001) %MON forcing_fv_sd                =   6.5077964518834E-02
(PID.TID 0000.0001) %MON forcing_fv_del2              =   5.4246701088047E-04
(PID.TID 0000.0001) %MON trAdv_CFL_u_max              =   8.6653429410119E-05
(PID.TID 0000.0001) %MON trAdv_CFL_v_max              =   1.3305574236544E-04
(PID.TID 0000.0001) %MON trAdv_CFL_w_max              =   2.6425558757663E-04
(PID.TID 0000.0001) %MON advcfl_uvel_max              =   9.2331821327308E-05
(PID.TID 0000.0001) %MON advcfl_vvel_max              =   7.6529539685260E-05
(PID.TID 0000.0001) %MON advcfl_wvel_max              =   5.9340023188199E-04
(PID.TID 0000.0001) %MON advcfl_W_hf_max              =   2.6425558757663E-04
(PID.TID 0000.0001) %MON pe_b_mean                    =   5.4874736915253E-04
(PID.TID 0000.0001) %MON ke_max                       =   4.2739759023479E-01
(PID.TID 0000.0001) %MON ke_mean                      =   1.6106897605883E-04
(PID.TID 0000.0001) %MON ke_vol                       =   1.3398061206630E+18
(PID.TID 0000.0001) %MON vort_r_min                   =  -2.8822250643087E-06
(PID.TID 0000.0001) %MON vort_r_max                   =   2.8858473836204E-06
(PID.TID 0000.0001) %MON vort_a_mean                  =  -2.0549865324846E-05
(PID.TID 0000.0001) %MON vort_a_sd                    =   7.5259526077214E-05
(PID.TID 0000.0001) %MON vort_p_mean                  =  -2.4783418804304E-05
(PID.TID 0000.0001) %MON vort_p_sd                    =   1.2811957655215E-04
(PID.TID 0000.0001) %MON surfExpan_theta_mean         =  -6.6483623491888E-06
(PID.TID 0000.0001) %MON surfExpan_salt_mean          =   7.8926418177991E-07
(PID.TID 0000.0001) // =======================================================
(PID.TID 0000.0001) // End MONITOR dynamic field statistics
(PID.TID 0000.0001) // =======================================================
 cg2d: Sum(rhs),rhsMax =  -5.17407446334084E+00  2.18394376464176E+05
(PID.TID 0000.0001)      cg2d_init_res =   6.26873024213437E-03
(PID.TID 0000.0001)      cg2d_iters(min,last) =      -1       1
(PID.TID 0000.0001)      cg2d_last_res =   5.90746568193641E-08
(PID.TID 0000.0001) // =======================================================
(PID.TID 0000.0001) // Begin MONITOR dynamic field statistics
(PID.TID 0000.0001) // =======================================================
(PID.TID 0000.0001) %MON time_tsnumber                =                 72122
(PID.TID 0000.0001) %MON time_secondsf                =   1.8030500000000E+06
(PID.TID 0000.0001) %MON dynstat_eta_max              =   8.1536251395106E+00
(PID.TID 0000.0001) %MON dynstat_eta_min              =  -1.6190583146718E+00
(PID.TID 0000.0001) %MON dynstat_eta_mean             =   1.0131419490643E-02
(PID.TID 0000.0001) %MON dynstat_eta_sd               =   6.4159220953190E-01
(PID.TID 0000.0001) %MON dynstat_eta_del2             =   7.1773818648685E-03
(PID.TID 0000.0001) %MON dynstat_uvel_max             =   1.0043160406299E+00
(PID.TID 0000.0001) %MON dynstat_uvel_min             =  -5.1632212622708E-01
(PID.TID 0000.0001) %MON dynstat_uvel_mean            =  -4.2243712505510E-04
(PID.TID 0000.0001) %MON dynstat_uvel_sd              =   1.2917683553552E-02
(PID.TID 0000.0001) %MON dynstat_uvel_del2            =   9.9657686057731E-05
(PID.TID 0000.0001) %MON dynstat_vvel_max             =   8.5030492795328E-01
(PID.TID 0000.0001) %MON dynstat_vvel_min             =  -8.2939318449208E-01
(PID.TID 0000.0001) %MON dynstat_vvel_mean            =  -3.7024197943489E-04
(PID.TID 0000.0001) %MON dynstat_vvel_sd              =   1.3496790634527E-02
(PID.TID 0000.0001) %MON dynstat_vvel_del2            =   1.3699912720642E-04
(PID.TID 0000.0001) %MON dynstat_wvel_max             =   1.0371565326643E-04
(PID.TID 0000.0001) %MON dynstat_wvel_min             =  -1.0578710095701E-03
(PID.TID 0000.0001) %MON dynstat_wvel_mean            =  -2.5092577550338E-07
(PID.TID 0000.0001) %MON dynstat_wvel_sd              =   1.1355918574894E-05
(PID.TID 0000.0001) %MON dynstat_wvel_del2            =   1.0171734849512E-07
(PID.TID 0000.0001) %MON dynstat_theta_max            =   3.0925222029223E+01
(PID.TID 0000.0001) %MON dynstat_theta_min            =  -3.0169539185664E+00
(PID.TID 0000.0001) %MON dynstat_theta_mean           =   3.9089549673865E+00
(PID.TID 0000.0001) %MON dynstat_theta_sd             =   4.5706416614373E+00
(PID.TID 0000.0001) %MON dynstat_theta_del2           =   2.6543270197872E-03
(PID.TID 0000.0001) %MON dynstat_salt_max             =   4.1376776154928E+01
(PID.TID 0000.0001) %MON dynstat_salt_min             =   1.8518413970524E+01
(PID.TID 0000.0001) %MON dynstat_salt_mean            =   3.4772184413529E+01
(PID.TID 0000.0001) %MON dynstat_salt_sd              =   5.3095231770372E-01
(PID.TID 0000.0001) %MON dynstat_salt_del2            =   8.0455403741954E-04
(PID.TID 0000.0001) %MON dynstat_sst_max              =   3.0925222029223E+01
(PID.TID 0000.0001) %MON dynstat_sst_min              =  -1.8998704938736E+00
(PID.TID 0000.0001) %MON dynstat_sst_mean             =   1.8100413403339E+01
(PID.TID 0000.0001) %MON dynstat_sst_sd               =   9.7999015943035E+00
(PID.TID 0000.0001) %MON dynstat_sst_del2             =   1.5320726222391E-02
(PID.TID 0000.0001) %MON dynstat_sss_max              =   4.1376776154928E+01
(PID.TID 0000.0001) %MON dynstat_sss_min              =   1.8751369672611E+01
(PID.TID 0000.0001) %MON dynstat_sss_mean             =   3.4641004782210E+01
(PID.TID 0000.0001) %MON dynstat_sss_sd               =   1.4575221133209E+00
(PID.TID 0000.0001) %MON dynstat_sss_del2             =   8.0409257791598E-03
(PID.TID 0000.0001) %MON forcing_qnet_max             =   2.7321392578125E+04
(PID.TID 0000.0001) %MON forcing_qnet_min             =  -9.6975751953125E+03
(PID.TID 0000.0001) %MON forcing_qnet_mean            =  -1.6690739438550E+02
(PID.TID 0000.0001) %MON forcing_qnet_sd              =   9.4315440935030E+02
(PID.TID 0000.0001) %MON forcing_qnet_del2            =   3.5360005466053E+01
(PID.TID 0000.0001) %MON forcing_qsw_max              =   0.0000000000000E+00
(PID.TID 0000.0001) %MON forcing_qsw_min              =   0.0000000000000E+00
(PID.TID 0000.0001) %MON forcing_qsw_mean             =   0.0000000000000E+00
(PID.TID 0000.0001) %MON forcing_qsw_sd               =   0.0000000000000E+00
(PID.TID 0000.0001) %MON forcing_qsw_del2             =   0.0000000000000E+00
(PID.TID 0000.0001) %MON forcing_empmr_max            =   6.4065188169479E-02
(PID.TID 0000.0001) %MON forcing_empmr_min            =  -6.1269485950470E-01
(PID.TID 0000.0001) %MON forcing_empmr_mean           =  -6.4793266325905E-04
(PID.TID 0000.0001) %MON forcing_empmr_sd             =   1.2124406468501E-02
(PID.TID 0000.0001) %MON forcing_empmr_del2           =   4.8030037694259E-04
(PID.TID 0000.0001) %MON forcing_fu_max               =   5.6346533419467E-01
(PID.TID 0000.0001) %MON forcing_fu_min               =  -4.3181161802186E-01
(PID.TID 0000.0001) %MON forcing_fu_mean              =  -4.0123567798204E-03
(PID.TID 0000.0001) %MON forcing_fu_sd                =   6.7976379318755E-02
(PID.TID 0000.0001) %MON forcing_fu_del2              =   6.7433384596802E-04
(PID.TID 0000.0001) %MON forcing_fv_max               =   3.1438595575216E-01
(PID.TID 0000.0001) %MON forcing_fv_min               =  -3.1472663669592E-01
(PID.TID 0000.0001) %MON forcing_fv_mean              =  -1.3044037006942E-02
(PID.TID 0000.0001) %MON forcing_fv_sd                =   6.5077964518834E-02
(PID.TID 0000.0001) %MON forcing_fv_del2              =   5.4246701088047E-04
(PID.TID 0000.0001) %MON trAdv_CFL_u_max              =   8.7322612534506E-05
(PID.TID 0000.0001) %MON trAdv_CFL_v_max              =   1.3394669973698E-04
(PID.TID 0000.0001) %MON trAdv_CFL_w_max              =   2.6345198365602E-04
(PID.TID 0000.0001) %MON advcfl_uvel_max              =   9.3032211701398E-05
(PID.TID 0000.0001) %MON advcfl_vvel_max              =   7.7079309606894E-05
(PID.TID 0000.0001) %MON advcfl_wvel_max              =   5.9197570966638E-04
(PID.TID 0000.0001) %MON advcfl_W_hf_max              =   2.6345198365602E-04
(PID.TID 0000.0001) %MON pe_b_mean                    =   5.4851653591111E-04
(PID.TID 0000.0001) %MON ke_max                       =   4.3392965172073E-01
(PID.TID 0000.0001) %MON ke_mean                      =   1.6131315252764E-04
(PID.TID 0000.0001) %MON ke_vol                       =   1.3398061263569E+18
(PID.TID 0000.0001) %MON vort_r_min                   =  -2.9041369736497E-06
(PID.TID 0000.0001) %MON vort_r_max                   =   2.9063015769322E-06
(PID.TID 0000.0001) %MON vort_a_mean                  =  -2.0549865324846E-05
(PID.TID 0000.0001) %MON vort_a_sd                    =   7.5259526168853E-05
(PID.TID 0000.0001) %MON vort_p_mean                  =  -2.4783418665251E-05
(PID.TID 0000.0001) %MON vort_p_sd                    =   1.2811957490208E-04
(PID.TID 0000.0001) %MON surfExpan_theta_mean         =  -6.6652541810571E-06
(PID.TID 0000.0001) %MON surfExpan_salt_mean          =   7.9266922273859E-07
(PID.TID 0000.0001) // =======================================================
(PID.TID 0000.0001) // End MONITOR dynamic field statistics
(PID.TID 0000.0001) // =======================================================
 cg2d: Sum(rhs),rhsMax =  -5.18905696473971E+00  2.18100175151993E+05
(PID.TID 0000.0001)      cg2d_init_res =   6.29254316041092E-03
(PID.TID 0000.0001)      cg2d_iters(min,last) =      -1       1
(PID.TID 0000.0001)      cg2d_last_res =   5.92629352089065E-08
(PID.TID 0000.0001) // =======================================================
(PID.TID 0000.0001) // Begin MONITOR dynamic field statistics
(PID.TID 0000.0001) // =======================================================
(PID.TID 0000.0001) %MON time_tsnumber                =                 72123
(PID.TID 0000.0001) %MON time_secondsf                =   1.8030750000000E+06
(PID.TID 0000.0001) %MON dynstat_eta_max              =   8.1402645096973E+00
(PID.TID 0000.0001) %MON dynstat_eta_min              =  -1.6190901385306E+00
(PID.TID 0000.0001) %MON dynstat_eta_mean             =   1.0147069252570E-02
(PID.TID 0000.0001) %MON dynstat_eta_sd               =   6.4145702832650E-01
(PID.TID 0000.0001) %MON dynstat_eta_del2             =   7.1570020084125E-03
(PID.TID 0000.0001) %MON dynstat_uvel_max             =   1.0118605671743E+00
(PID.TID 0000.0001) %MON dynstat_uvel_min             =  -5.1902981086134E-01
(PID.TID 0000.0001) %MON dynstat_uvel_mean            =  -4.2163461468858E-04
(PID.TID 0000.0001) %MON dynstat_uvel_sd              =   1.2928341459054E-02
(PID.TID 0000.0001) %MON dynstat_uvel_del2            =   1.0015020883437E-04
(PID.TID 0000.0001) %MON dynstat_vvel_max             =   8.5634729581982E-01
(PID.TID 0000.0001) %MON dynstat_vvel_min             =  -8.3554932222125E-01
(PID.TID 0000.0001) %MON dynstat_vvel_mean            =  -3.6997063850962E-04
(PID.TID 0000.0001) %MON dynstat_vvel_sd              =   1.3506182119181E-02
(PID.TID 0000.0001) %MON dynstat_vvel_del2            =   1.3776295166348E-04
(PID.TID 0000.0001) %MON dynstat_wvel_max             =   1.0372137947282E-04
(PID.TID 0000.0001) %MON dynstat_wvel_min             =  -1.0601484656939E-03
(PID.TID 0000.0001) %MON dynstat_wvel_mean            =  -2.5288971560773E-07
(PID.TID 0000.0001) %MON dynstat_wvel_sd              =   1.1385479559413E-05
(PID.TID 0000.0001) %MON dynstat_wvel_del2            =   1.0183921903070E-07
(PID.TID 0000.0001) %MON dynstat_theta_max            =   3.0925216033867E+01
(PID.TID 0000.0001) %MON dynstat_theta_min            =  -3.0169345633391E+00
(PID.TID 0000.0001) %MON dynstat_theta_mean           =   3.9089553183166E+00
(PID.TID 0000.0001) %MON dynstat_theta_sd             =   4.5706428236042E+00
(PID.TID 0000.0001) %MON dynstat_theta_del2           =   2.6543132006794E-03
(PID.TID 0000.0001) %MON dynstat_salt_max             =   4.1376763254679E+01
(PID.TID 0000.0001) %MON dynstat_salt_min             =   1.8518414238076E+01
(PID.TID 0000.0001) %MON dynstat_salt_mean            =   3.4772184206903E+01
(PID.TID 0000.0001) %MON dynstat_salt_sd              =   5.3095270392364E-01
(PID.TID 0000.0001) %MON dynstat_salt_del2            =   8.0459741775306E-04
(PID.TID 0000.0001) %MON dynstat_sst_max              =   3.0925216033867E+01
(PID.TID 0000.0001) %MON dynstat_sst_min              =  -1.8998693819463E+00
(PID.TID 0000.0001) %MON dynstat_sst_mean             =   1.8100434458712E+01
(PID.TID 0000.0001) %MON dynstat_sst_sd               =   9.7999061765688E+00
(PID.TID 0000.0001) %MON dynstat_sst_del2             =   1.5320390788670E-02
(PID.TID 0000.0001) %MON dynstat_sss_max              =   4.1376763254679E+01
(PID.TID 0000.0001) %MON dynstat_sss_min              =   1.8751369713300E+01
(PID.TID 0000.0001) %MON dynstat_sss_mean             =   3.4640990073015E+01
(PID.TID 0000.0001) %MON dynstat_sss_sd               =   1.4575310103483E+00
(PID.TID 0000.0001) %MON dynstat_sss_del2             =   8.0416086774136E-03
(PID.TID 0000.0001) %MON forcing_qnet_max             =   2.6931470703125E+04
(PID.TID 0000.0001) %MON forcing_qnet_min             =  -9.6585908203125E+03
(PID.TID 0000.0001) %MON forcing_qnet_mean            =  -1.6595051421319E+02
(PID.TID 0000.0001) %MON forcing_qnet_sd              =   9.2418228598912E+02
(PID.TID 0000.0001) %MON forcing_qnet_del2            =   3.4531207114698E+01
(PID.TID 0000.0001) %MON forcing_qsw_max              =   0.0000000000000E+00
(PID.TID 0000.0001) %MON forcing_qsw_min              =   0.0000000000000E+00
(PID.TID 0000.0001) %MON forcing_qsw_mean             =   0.0000000000000E+00
(PID.TID 0000.0001) %MON forcing_qsw_sd               =   0.0000000000000E+00
(PID.TID 0000.0001) %MON forcing_qsw_del2             =   0.0000000000000E+00
(PID.TID 0000.0001) %MON forcing_empmr_max            =   5.8317609131336E-02
(PID.TID 0000.0001) %MON forcing_empmr_min            =  -6.1122035980225E-01
(PID.TID 0000.0001) %MON forcing_empmr_mean           =  -6.4790014377718E-04
(PID.TID 0000.0001) %MON forcing_empmr_sd             =   1.2101487938207E-02
(PID.TID 0000.0001) %MON forcing_empmr_del2           =   4.7945475639938E-04
(PID.TID 0000.0001) %MON forcing_fu_max               =   5.6346533419467E-01
(PID.TID 0000.0001) %MON forcing_fu_min               =  -4.3181161802186E-01
(PID.TID 0000.0001) %MON forcing_fu_mean              =  -4.0123567798204E-03
(PID.TID 0000.0001) %MON forcing_fu_sd                =   6.7976379318755E-02
(PID.TID 0000.0001) %MON forcing_fu_del2              =   6.7433384596802E-04
(PID.TID 0000.0001) %MON forcing_fv_max               =   3.1438595575216E-01
(PID.TID 0000.0001) %MON forcing_fv_min               =  -3.1472663669592E-01
(PID.TID 0000.0001) %MON forcing_fv_mean              =  -1.3044037006942E-02
(PID.TID 0000.0001) %MON forcing_fv_sd                =   6.5077964518834E-02
(PID.TID 0000.0001) %MON forcing_fv_del2              =   5.4246701088047E-04
(PID.TID 0000.0001) %MON trAdv_CFL_u_max              =   8.7990612892880E-05
(PID.TID 0000.0001) %MON trAdv_CFL_v_max              =   1.3483220210853E-04
(PID.TID 0000.0001) %MON trAdv_CFL_w_max              =   2.6264850222887E-04
(PID.TID 0000.0001) %MON advcfl_uvel_max              =   9.3731079350894E-05
(PID.TID 0000.0001) %MON advcfl_vvel_max              =   7.7627044340909E-05
(PID.TID 0000.0001) %MON advcfl_wvel_max              =   5.9055107227270E-04
(PID.TID 0000.0001) %MON advcfl_W_hf_max              =   2.6264850222887E-04
(PID.TID 0000.0001) %MON pe_b_mean                    =   5.4828589733804E-04
(PID.TID 0000.0001) %MON ke_max                       =   4.4049590124355E-01
(PID.TID 0000.0001) %MON ke_mean                      =   1.6155693541457E-04
(PID.TID 0000.0001) %MON ke_vol                       =   1.3398061320519E+18
(PID.TID 0000.0001) %MON vort_r_min                   =  -2.9259577903506E-06
(PID.TID 0000.0001) %MON vort_r_max                   =   2.9266706097756E-06
(PID.TID 0000.0001) %MON vort_a_mean                  =  -2.0549865324846E-05
(PID.TID 0000.0001) %MON vort_a_sd                    =   7.5259526260103E-05
(PID.TID 0000.0001) %MON vort_p_mean                  =  -2.4783418525970E-05
(PID.TID 0000.0001) %MON vort_p_sd                    =   1.2811957324307E-04
(PID.TID 0000.0001) %MON surfExpan_theta_mean         =  -6.6808857857230E-06
(PID.TID 0000.0001) %MON surfExpan_salt_mean          =   7.9609886309253E-07
(PID.TID 0000.0001) // =======================================================
(PID.TID 0000.0001) // End MONITOR dynamic field statistics
(PID.TID 0000.0001) // =======================================================
 cg2d: Sum(rhs),rhsMax =  -5.20413019356148E+00  2.17803816116887E+05
(PID.TID 0000.0001)      cg2d_init_res =   6.31612888688082E-03
(PID.TID 0000.0001)      cg2d_iters(min,last) =      -1       1
(PID.TID 0000.0001)      cg2d_last_res =   5.94510612538541E-08
(PID.TID 0000.0001) // =======================================================
(PID.TID 0000.0001) // Begin MONITOR dynamic field statistics
(PID.TID 0000.0001) // =======================================================
(PID.TID 0000.0001) %MON time_tsnumber                =                 72124
(PID.TID 0000.0001) %MON time_secondsf                =   1.8031000000000E+06
(PID.TID 0000.0001) %MON dynstat_eta_max              =   8.1268072345332E+00
(PID.TID 0000.0001) %MON dynstat_eta_min              =  -1.6191224684992E+00
(PID.TID 0000.0001) %MON dynstat_eta_mean             =   1.0162716469607E-02
(PID.TID 0000.0001) %MON dynstat_eta_sd               =   6.4132194358193E-01
(PID.TID 0000.0001) %MON dynstat_eta_del2             =   7.1365498775405E-03
(PID.TID 0000.0001) %MON dynstat_uvel_max             =   1.0193885187913E+00
(PID.TID 0000.0001) %MON dynstat_uvel_min             =  -5.2173236483166E-01
(PID.TID 0000.0001) %MON dynstat_uvel_mean            =  -4.2082848827538E-04
(PID.TID 0000.0001) %MON dynstat_uvel_sd              =   1.2938984133966E-02
(PID.TID 0000.0001) %MON dynstat_uvel_del2            =   1.0064135158306E-04
(PID.TID 0000.0001) %MON dynstat_vvel_max             =   8.6236715914325E-01
(PID.TID 0000.0001) %MON dynstat_vvel_min             =  -8.4169264814976E-01
(PID.TID 0000.0001) %MON dynstat_vvel_mean            =  -3.6970141208482E-04
(PID.TID 0000.0001) %MON dynstat_vvel_sd              =   1.3515539778750E-02
(PID.TID 0000.0001) %MON dynstat_vvel_del2            =   1.3852288487124E-04
(PID.TID 0000.0001) %MON dynstat_wvel_max             =   1.0372712354163E-04
(PID.TID 0000.0001) %MON dynstat_wvel_min             =  -1.0623182680558E-03
(PID.TID 0000.0001) %MON dynstat_wvel_mean            =  -2.5486120047384E-07
(PID.TID 0000.0001) %MON dynstat_wvel_sd              =   1.1414348460075E-05
(PID.TID 0000.0001) %MON dynstat_wvel_del2            =   1.0195551888885E-07
(PID.TID 0000.0001) %MON dynstat_theta_max            =   3.0925210039260E+01
(PID.TID 0000.0001) %MON dynstat_theta_min            =  -3.0169149477423E+00
(PID.TID 0000.0001) %MON dynstat_theta_mean           =   3.9089556672046E+00
(PID.TID 0000.0001) %MON dynstat_theta_sd             =   4.5706439786177E+00
(PID.TID 0000.0001) %MON dynstat_theta_del2           =   2.6542995149644E-03
(PID.TID 0000.0001) %MON dynstat_salt_max             =   4.1376750357406E+01
(PID.TID 0000.0001) %MON dynstat_salt_min             =   1.8518414505618E+01
(PID.TID 0000.0001) %MON dynstat_salt_mean            =   3.4772184000668E+01
(PID.TID 0000.0001) %MON dynstat_salt_sd              =   5.3095309069216E-01
(PID.TID 0000.0001) %MON dynstat_salt_del2            =   8.0464118426569E-04
(PID.TID 0000.0001) %MON dynstat_sst_max              =   3.0925210039260E+01
(PID.TID 0000.0001) %MON dynstat_sst_min              =  -1.8998682685159E+00
(PID.TID 0000.0001) %MON dynstat_sst_mean             =   1.8100455298258E+01
(PID.TID 0000.0001) %MON dynstat_sst_sd               =   9.7999107899256E+00
(PID.TID 0000.0001) %MON dynstat_sst_del2             =   1.5320059325976E-02
(PID.TID 0000.0001) %MON dynstat_sss_max              =   4.1376750357406E+01
(PID.TID 0000.0001) %MON dynstat_sss_min              =   1.8751369754120E+01
(PID.TID 0000.0001) %MON dynstat_sss_mean             =   3.4640975385905E+01
(PID.TID 0000.0001) %MON dynstat_sss_sd               =   1.4575399204393E+00
(PID.TID 0000.0001) %MON dynstat_sss_del2             =   8.0422976445310E-03
(PID.TID 0000.0001) %MON forcing_qnet_max             =   2.6531802734375E+04
(PID.TID 0000.0001) %MON forcing_qnet_min             =  -9.6001132812500E+03
(PID.TID 0000.0001) %MON forcing_qnet_mean            =  -1.6470730154659E+02
(PID.TID 0000.0001) %MON forcing_qnet_sd              =   9.0644201493085E+02
(PID.TID 0000.0001) %MON forcing_qnet_del2            =   3.3756403841998E+01
(PID.TID 0000.0001) %MON forcing_qsw_max              =   0.0000000000000E+00
(PID.TID 0000.0001) %MON forcing_qsw_min              =   0.0000000000000E+00
(PID.TID 0000.0001) %MON forcing_qsw_mean             =   0.0000000000000E+00
(PID.TID 0000.0001) %MON forcing_qsw_sd               =   0.0000000000000E+00
(PID.TID 0000.0001) %MON forcing_qsw_del2             =   0.0000000000000E+00
(PID.TID 0000.0001) %MON forcing_empmr_max            =   5.3085580468178E-02
(PID.TID 0000.0001) %MON forcing_empmr_min            =  -6.0974597930908E-01
(PID.TID 0000.0001) %MON forcing_empmr_mean           =  -6.4779478532359E-04
(PID.TID 0000.0001) %MON forcing_empmr_sd             =   1.2078453163270E-02
(PID.TID 0000.0001) %MON forcing_empmr_del2           =   4.7858870851553E-04
(PID.TID 0000.0001) %MON forcing_fu_max               =   5.6346533419467E-01
(PID.TID 0000.0001) %MON forcing_fu_min               =  -4.3181161802186E-01
(PID.TID 0000.0001) %MON forcing_fu_mean              =  -4.0123567798204E-03
(PID.TID 0000.0001) %MON forcing_fu_sd                =   6.7976379318755E-02
(PID.TID 0000.0001) %MON forcing_fu_del2              =   6.7433384596802E-04
(PID.TID 0000.0001) %MON forcing_fv_max               =   3.1438595575216E-01
(PID.TID 0000.0001) %MON forcing_fv_min               =  -3.1472663669592E-01
(PID.TID 0000.0001) %MON forcing_fv_mean              =  -1.3044037006942E-02
(PID.TID 0000.0001) %MON forcing_fv_sd                =   6.5077964518834E-02
(PID.TID 0000.0001) %MON forcing_fv_del2              =   5.4246701088047E-04
(PID.TID 0000.0001) %MON trAdv_CFL_u_max              =   8.8657418858697E-05
(PID.TID 0000.0001) %MON trAdv_CFL_v_max              =   1.3571222791315E-04
(PID.TID 0000.0001) %MON trAdv_CFL_w_max              =   2.6184526559079E-04
(PID.TID 0000.0001) %MON advcfl_uvel_max              =   9.4428411624978E-05
(PID.TID 0000.0001) %MON advcfl_vvel_max              =   7.8172739060113E-05
(PID.TID 0000.0001) %MON advcfl_wvel_max              =   5.8912655005708E-04
(PID.TID 0000.0001) %MON advcfl_W_hf_max              =   2.6184526559079E-04
(PID.TID 0000.0001) %MON pe_b_mean                    =   5.4805547286308E-04
(PID.TID 0000.0001) %MON ke_max                       =   4.4709591115870E-01
(PID.TID 0000.0001) %MON ke_mean                      =   1.6180029978744E-04
(PID.TID 0000.0001) %MON ke_vol                       =   1.3398061377467E+18
(PID.TID 0000.0001) %MON vort_r_min                   =  -2.9476870421198E-06
(PID.TID 0000.0001) %MON vort_r_max                   =   2.9469542806661E-06
(PID.TID 0000.0001) %MON vort_a_mean                  =  -2.0549865324846E-05
(PID.TID 0000.0001) %MON vort_a_sd                    =   7.5259526350952E-05
(PID.TID 0000.0001) %MON vort_p_mean                  =  -2.4783418386487E-05
(PID.TID 0000.0001) %MON vort_p_sd                    =   1.2811957157547E-04
(PID.TID 0000.0001) %MON surfExpan_theta_mean         =  -6.6961035186703E-06
(PID.TID 0000.0001) %MON surfExpan_salt_mean          =   7.9963339248639E-07
(PID.TID 0000.0001) // =======================================================
(PID.TID 0000.0001) // End MONITOR dynamic field statistics
(PID.TID 0000.0001) // =======================================================
 cg2d: Sum(rhs),rhsMax =  -5.21929270300434E+00  2.17505305446370E+05
(PID.TID 0000.0001)      cg2d_init_res =   6.33950314730735E-03
(PID.TID 0000.0001)      cg2d_iters(min,last) =      -1       1
(PID.TID 0000.0001)      cg2d_last_res =   5.96402694782749E-08
(PID.TID 0000.0001) // =======================================================
(PID.TID 0000.0001) // Begin MONITOR dynamic field statistics
(PID.TID 0000.0001) // =======================================================
(PID.TID 0000.0001) %MON time_tsnumber                =                 72125
(PID.TID 0000.0001) %MON time_secondsf                =   1.8031250000000E+06
(PID.TID 0000.0001) %MON dynstat_eta_max              =   8.1132536276182E+00
(PID.TID 0000.0001) %MON dynstat_eta_min              =  -1.6191552943560E+00
(PID.TID 0000.0001) %MON dynstat_eta_mean             =   1.0178357007110E-02
(PID.TID 0000.0001) %MON dynstat_eta_sd               =   6.4118697029094E-01
(PID.TID 0000.0001) %MON dynstat_eta_del2             =   7.1160263816344E-03
(PID.TID 0000.0001) %MON dynstat_uvel_max             =   1.0268997600135E+00
(PID.TID 0000.0001) %MON dynstat_uvel_min             =  -5.2442976434855E-01
(PID.TID 0000.0001) %MON dynstat_uvel_mean            =  -4.2001878063861E-04
(PID.TID 0000.0001) %MON dynstat_uvel_sd              =   1.2949610425707E-02
(PID.TID 0000.0001) %MON dynstat_uvel_del2            =   1.0113108535935E-04
(PID.TID 0000.0001) %MON dynstat_vvel_max             =   8.6836446554824E-01
(PID.TID 0000.0001) %MON dynstat_vvel_min             =  -8.4782306969160E-01
(PID.TID 0000.0001) %MON dynstat_vvel_mean            =  -3.6943434050157E-04
(PID.TID 0000.0001) %MON dynstat_vvel_sd              =   1.3524862870958E-02
(PID.TID 0000.0001) %MON dynstat_vvel_del2            =   1.3927890161124E-04
(PID.TID 0000.0001) %MON dynstat_wvel_max             =   1.0373288549735E-04
(PID.TID 0000.0001) %MON dynstat_wvel_min             =  -1.0643807116487E-03
(PID.TID 0000.0001) %MON dynstat_wvel_mean            =  -2.5680393278887E-07
(PID.TID 0000.0001) %MON dynstat_wvel_sd              =   1.1442578783324E-05
(PID.TID 0000.0001) %MON dynstat_wvel_del2            =   1.0206834748588E-07
(PID.TID 0000.0001) %MON dynstat_theta_max            =   3.0925204045398E+01
(PID.TID 0000.0001) %MON dynstat_theta_min            =  -3.0168950729556E+00
(PID.TID 0000.0001) %MON dynstat_theta_mean           =   3.9089560140072E+00
(PID.TID 0000.0001) %MON dynstat_theta_sd             =   4.5706451259260E+00
(PID.TID 0000.0001) %MON dynstat_theta_del2           =   2.6542859200793E-03
(PID.TID 0000.0001) %MON dynstat_salt_max             =   4.1376737262448E+01
(PID.TID 0000.0001) %MON dynstat_salt_min             =   1.8518414773149E+01
(PID.TID 0000.0001) %MON dynstat_salt_mean            =   3.4772183794757E+01
(PID.TID 0000.0001) %MON dynstat_salt_sd              =   5.3095347795407E-01
(PID.TID 0000.0001) %MON dynstat_salt_del2            =   8.0468533856250E-04
(PID.TID 0000.0001) %MON dynstat_sst_max              =   3.0925204045398E+01
(PID.TID 0000.0001) %MON dynstat_sst_min              =  -1.8998671535703E+00
(PID.TID 0000.0001) %MON dynstat_sst_mean             =   1.8100475924893E+01
(PID.TID 0000.0001) %MON dynstat_sst_sd               =   9.7999154153882E+00
(PID.TID 0000.0001) %MON dynstat_sst_del2             =   1.5319730673685E-02
(PID.TID 0000.0001) %MON dynstat_sss_max              =   4.1376737262448E+01
(PID.TID 0000.0001) %MON dynstat_sss_min              =   1.8751369795049E+01
(PID.TID 0000.0001) %MON dynstat_sss_mean             =   3.4640960716189E+01
(PID.TID 0000.0001) %MON dynstat_sss_sd               =   1.4575488420801E+00
(PID.TID 0000.0001) %MON dynstat_sss_del2             =   8.0429927111692E-03
(PID.TID 0000.0001) %MON forcing_qnet_max             =   2.6132136718750E+04
(PID.TID 0000.0001) %MON forcing_qnet_min             =  -9.5611289062500E+03
(PID.TID 0000.0001) %MON forcing_qnet_mean            =  -1.6344523492463E+02
(PID.TID 0000.0001) %MON forcing_qnet_sd              =   8.8985693213576E+02
(PID.TID 0000.0001) %MON forcing_qnet_del2            =   3.3037189735506E+01
(PID.TID 0000.0001) %MON forcing_qsw_max              =   0.0000000000000E+00
(PID.TID 0000.0001) %MON forcing_qsw_min              =   0.0000000000000E+00
(PID.TID 0000.0001) %MON forcing_qsw_mean             =   0.0000000000000E+00
(PID.TID 0000.0001) %MON forcing_qsw_sd               =   0.0000000000000E+00
(PID.TID 0000.0001) %MON forcing_qsw_del2             =   0.0000000000000E+00
(PID.TID 0000.0001) %MON forcing_empmr_max            =   4.8324789851904E-02
(PID.TID 0000.0001) %MON forcing_empmr_min            =  -6.0827153921127E-01
(PID.TID 0000.0001) %MON forcing_empmr_mean           =  -6.4751825262759E-04
(PID.TID 0000.0001) %MON forcing_empmr_sd             =   1.2055870764477E-02
(PID.TID 0000.0001) %MON forcing_empmr_del2           =   4.7773998531494E-04
(PID.TID 0000.0001) %MON forcing_fu_max               =   5.6346533419467E-01
(PID.TID 0000.0001) %MON forcing_fu_min               =  -4.3181161802186E-01
(PID.TID 0000.0001) %MON forcing_fu_mean              =  -4.0123567798204E-03
(PID.TID 0000.0001) %MON forcing_fu_sd                =   6.7976379318755E-02
(PID.TID 0000.0001) %MON forcing_fu_del2              =   6.7433384596802E-04
(PID.TID 0000.0001) %MON forcing_fv_max               =   3.1438595575216E-01
(PID.TID 0000.0001) %MON forcing_fv_min               =  -3.1472663669592E-01
(PID.TID 0000.0001) %MON forcing_fv_mean              =  -1.3044037006942E-02
(PID.TID 0000.0001) %MON forcing_fv_sd                =   6.5077964518834E-02
(PID.TID 0000.0001) %MON forcing_fv_del2              =   5.4246701088047E-04
(PID.TID 0000.0001) %MON trAdv_CFL_u_max              =   8.9323018866866E-05
(PID.TID 0000.0001) %MON trAdv_CFL_v_max              =   1.3658675581446E-04
(PID.TID 0000.0001) %MON trAdv_CFL_w_max              =   2.6104220980720E-04
(PID.TID 0000.0001) %MON advcfl_uvel_max              =   9.5124195974978E-05
(PID.TID 0000.0001) %MON advcfl_vvel_max              =   7.8716389016735E-05
(PID.TID 0000.0001) %MON advcfl_wvel_max              =   5.8770197025244E-04
(PID.TID 0000.0001) %MON advcfl_W_hf_max              =   2.6104220980720E-04
(PID.TID 0000.0001) %MON pe_b_mean                    =   5.4782528788283E-04
(PID.TID 0000.0001) %MON ke_max                       =   4.5372925320183E-01
(PID.TID 0000.0001) %MON ke_mean                      =   1.6204322132773E-04
(PID.TID 0000.0001) %MON ke_vol                       =   1.3398061434405E+18
(PID.TID 0000.0001) %MON vort_r_min                   =  -2.9693242615908E-06
(PID.TID 0000.0001) %MON vort_r_max                   =   2.9671523893064E-06
(PID.TID 0000.0001) %MON vort_a_mean                  =  -2.0549865324846E-05
(PID.TID 0000.0001) %MON vort_a_sd                    =   7.5259526441386E-05
(PID.TID 0000.0001) %MON vort_p_mean                  =  -2.4783418246814E-05
(PID.TID 0000.0001) %MON vort_p_sd                    =   1.2811956989946E-04
(PID.TID 0000.0001) %MON surfExpan_theta_mean         =  -6.7110041453437E-06
(PID.TID 0000.0001) %MON surfExpan_salt_mean          =   8.0290398188710E-07
(PID.TID 0000.0001) // =======================================================
(PID.TID 0000.0001) // End MONITOR dynamic field statistics
(PID.TID 0000.0001) // =======================================================
 cg2d: Sum(rhs),rhsMax =  -5.23454702533586E+00  2.17204649258688E+05
(PID.TID 0000.0001)      cg2d_init_res =   6.36269368176339E-03
(PID.TID 0000.0001)      cg2d_iters(min,last) =      -1       1
(PID.TID 0000.0001)      cg2d_last_res =   5.98293870703575E-08
(PID.TID 0000.0001) // =======================================================
(PID.TID 0000.0001) // Begin MONITOR dynamic field statistics
(PID.TID 0000.0001) // =======================================================
(PID.TID 0000.0001) %MON time_tsnumber                =                 72126
(PID.TID 0000.0001) %MON time_secondsf                =   1.8031500000000E+06
(PID.TID 0000.0001) %MON dynstat_eta_max              =   8.0996040040698E+00
(PID.TID 0000.0001) %MON dynstat_eta_min              =  -1.6191886053438E+00
(PID.TID 0000.0001) %MON dynstat_eta_mean             =   1.0193994489297E-02
(PID.TID 0000.0001) %MON dynstat_eta_sd               =   6.4105212290531E-01
(PID.TID 0000.0001) %MON dynstat_eta_del2             =   7.0954325154458E-03
(PID.TID 0000.0001) %MON dynstat_uvel_max             =   1.0343941564794E+00
(PID.TID 0000.0001) %MON dynstat_uvel_min             =  -5.2712198569756E-01
(PID.TID 0000.0001) %MON dynstat_uvel_mean            =  -4.1920552694290E-04
(PID.TID 0000.0001) %MON dynstat_uvel_sd              =   1.2960219201916E-02
(PID.TID 0000.0001) %MON dynstat_uvel_del2            =   1.0161938176028E-04
(PID.TID 0000.0001) %MON dynstat_vvel_max             =   8.7433916353031E-01
(PID.TID 0000.0001) %MON dynstat_vvel_min             =  -8.5394049451045E-01
(PID.TID 0000.0001) %MON dynstat_vvel_mean            =  -3.6916946331577E-04
(PID.TID 0000.0001) %MON dynstat_vvel_sd              =   1.3534150687411E-02
(PID.TID 0000.0001) %MON dynstat_vvel_del2            =   1.4003097749338E-04
(PID.TID 0000.0001) %MON dynstat_wvel_max             =   1.0373866540304E-04
(PID.TID 0000.0001) %MON dynstat_wvel_min             =  -1.0663360898351E-03
(PID.TID 0000.0001) %MON dynstat_wvel_mean            =  -2.5879575331756E-07
(PID.TID 0000.0001) %MON dynstat_wvel_sd              =   1.1470166333950E-05
(PID.TID 0000.0001) %MON dynstat_wvel_del2            =   1.0217885495043E-07
(PID.TID 0000.0001) %MON dynstat_theta_max            =   3.0925198052282E+01
(PID.TID 0000.0001) %MON dynstat_theta_min            =  -3.0168749402103E+00
(PID.TID 0000.0001) %MON dynstat_theta_mean           =   3.9089563586621E+00
(PID.TID 0000.0001) %MON dynstat_theta_sd             =   4.5706462654261E+00
(PID.TID 0000.0001) %MON dynstat_theta_del2           =   2.6542724209603E-03
(PID.TID 0000.0001) %MON dynstat_salt_max             =   4.1376724070486E+01
(PID.TID 0000.0001) %MON dynstat_salt_min             =   1.8518415040668E+01
(PID.TID 0000.0001) %MON dynstat_salt_mean            =   3.4772183589191E+01
(PID.TID 0000.0001) %MON dynstat_salt_sd              =   5.3095386581399E-01
(PID.TID 0000.0001) %MON dynstat_salt_del2            =   8.0472987696665E-04
(PID.TID 0000.0001) %MON dynstat_sst_max              =   3.0925198052282E+01
(PID.TID 0000.0001) %MON dynstat_sst_min              =  -1.8998660370974E+00
(PID.TID 0000.0001) %MON dynstat_sst_mean             =   1.8100496338016E+01
(PID.TID 0000.0001) %MON dynstat_sst_sd               =   9.7999200510879E+00
(PID.TID 0000.0001) %MON dynstat_sst_del2             =   1.5319404894969E-02
(PID.TID 0000.0001) %MON dynstat_sss_max              =   4.1376724070486E+01
(PID.TID 0000.0001) %MON dynstat_sss_min              =   1.8751369836070E+01
(PID.TID 0000.0001) %MON dynstat_sss_mean             =   3.4640946065780E+01
(PID.TID 0000.0001) %MON dynstat_sss_sd               =   1.4575577779314E+00
(PID.TID 0000.0001) %MON dynstat_sss_del2             =   8.0436938146227E-03
(PID.TID 0000.0001) %MON forcing_qnet_max             =   2.5761710937500E+04
(PID.TID 0000.0001) %MON forcing_qnet_min             =  -9.5123984375000E+03
(PID.TID 0000.0001) %MON forcing_qnet_mean            =  -1.6214077138838E+02
(PID.TID 0000.0001) %MON forcing_qnet_sd              =   8.7462923363691E+02
(PID.TID 0000.0001) %MON forcing_qnet_del2            =   3.2388100366006E+01
(PID.TID 0000.0001) %MON forcing_qsw_max              =   0.0000000000000E+00
(PID.TID 0000.0001) %MON forcing_qsw_min              =   0.0000000000000E+00
(PID.TID 0000.0001) %MON forcing_qsw_mean             =   0.0000000000000E+00
(PID.TID 0000.0001) %MON forcing_qsw_sd               =   0.0000000000000E+00
(PID.TID 0000.0001) %MON forcing_qsw_del2             =   0.0000000000000E+00
(PID.TID 0000.0001) %MON forcing_empmr_max            =   4.3986920267344E-02
(PID.TID 0000.0001) %MON forcing_empmr_min            =  -6.0681676864624E-01
(PID.TID 0000.0001) %MON forcing_empmr_mean           =  -6.4739176254761E-04
(PID.TID 0000.0001) %MON forcing_empmr_sd             =   1.2034340213122E-02
(PID.TID 0000.0001) %MON forcing_empmr_del2           =   4.7691888606143E-04
(PID.TID 0000.0001) %MON forcing_fu_max               =   5.6346533419467E-01
(PID.TID 0000.0001) %MON forcing_fu_min               =  -4.3181161802186E-01
(PID.TID 0000.0001) %MON forcing_fu_mean              =  -4.0123567798204E-03
(PID.TID 0000.0001) %MON forcing_fu_sd                =   6.7976379318755E-02
(PID.TID 0000.0001) %MON forcing_fu_del2              =   6.7433384596802E-04
(PID.TID 0000.0001) %MON forcing_fv_max               =   3.1438595575216E-01
(PID.TID 0000.0001) %MON forcing_fv_min               =  -3.1472663669592E-01
(PID.TID 0000.0001) %MON forcing_fv_mean              =  -1.3044037006942E-02
(PID.TID 0000.0001) %MON forcing_fv_sd                =   6.5077964518834E-02
(PID.TID 0000.0001) %MON forcing_fv_del2              =   5.4246701088047E-04
(PID.TID 0000.0001) %MON trAdv_CFL_u_max              =   8.9987401414148E-05
(PID.TID 0000.0001) %MON trAdv_CFL_v_max              =   1.3745576470643E-04
(PID.TID 0000.0001) %MON trAdv_CFL_w_max              =   2.6024815473975E-04
(PID.TID 0000.0001) %MON advcfl_uvel_max              =   9.5818419954667E-05
(PID.TID 0000.0001) %MON advcfl_vvel_max              =   7.9257989541945E-05
(PID.TID 0000.0001) %MON advcfl_wvel_max              =   5.8629639482729E-04
(PID.TID 0000.0001) %MON advcfl_W_hf_max              =   2.6024815473975E-04
(PID.TID 0000.0001) %MON pe_b_mean                    =   5.4759536705883E-04
(PID.TID 0000.0001) %MON ke_max                       =   4.6039549741892E-01
(PID.TID 0000.0001) %MON ke_mean                      =   1.6228567631596E-04
(PID.TID 0000.0001) %MON ke_vol                       =   1.3398061491319E+18
(PID.TID 0000.0001) %MON vort_r_min                   =  -2.9908689863037E-06
(PID.TID 0000.0001) %MON vort_r_max                   =   2.9872647366256E-06
(PID.TID 0000.0001) %MON vort_a_mean                  =  -2.0549865324846E-05
(PID.TID 0000.0001) %MON vort_a_sd                    =   7.5259526531395E-05
(PID.TID 0000.0001) %MON vort_p_mean                  =  -2.4783418106976E-05
(PID.TID 0000.0001) %MON vort_p_sd                    =   1.2811956821565E-04
(PID.TID 0000.0001) %MON surfExpan_theta_mean         =  -6.7266696145589E-06
(PID.TID 0000.0001) %MON surfExpan_salt_mean          =   8.0647363796536E-07
(PID.TID 0000.0001) // =======================================================
(PID.TID 0000.0001) // End MONITOR dynamic field statistics
(PID.TID 0000.0001) // =======================================================
 cg2d: Sum(rhs),rhsMax =  -5.24989363056575E+00  2.16901853702627E+05
(PID.TID 0000.0001)      cg2d_init_res =   6.38566028780538E-03
(PID.TID 0000.0001)      cg2d_iters(min,last) =      -1       1
(PID.TID 0000.0001)      cg2d_last_res =   6.00196470159304E-08
(PID.TID 0000.0001) // =======================================================
(PID.TID 0000.0001) // Begin MONITOR dynamic field statistics
(PID.TID 0000.0001) // =======================================================
(PID.TID 0000.0001) %MON time_tsnumber                =                 72127
(PID.TID 0000.0001) %MON time_secondsf                =   1.8031750000000E+06
(PID.TID 0000.0001) %MON dynstat_eta_max              =   8.0858586805082E+00
(PID.TID 0000.0001) %MON dynstat_eta_min              =  -1.6192223901779E+00
(PID.TID 0000.0001) %MON dynstat_eta_mean             =   1.0209628496820E-02
(PID.TID 0000.0001) %MON dynstat_eta_sd               =   6.4091741411865E-01
(PID.TID 0000.0001) %MON dynstat_eta_del2             =   7.0747691265097E-03
(PID.TID 0000.0001) %MON dynstat_uvel_max             =   1.0418715749304E+00
(PID.TID 0000.0001) %MON dynstat_uvel_min             =  -5.2980900524259E-01
(PID.TID 0000.0001) %MON dynstat_uvel_mean            =  -4.1838876276451E-04
(PID.TID 0000.0001) %MON dynstat_uvel_sd              =   1.2970809350404E-02
(PID.TID 0000.0001) %MON dynstat_uvel_del2            =   1.0210621293044E-04
(PID.TID 0000.0001) %MON dynstat_vvel_max             =   8.8029120243575E-01
(PID.TID 0000.0001) %MON dynstat_vvel_min             =  -8.6004483051767E-01
(PID.TID 0000.0001) %MON dynstat_vvel_mean            =  -3.6890681858784E-04
(PID.TID 0000.0001) %MON dynstat_vvel_sd              =   1.3543402553709E-02
(PID.TID 0000.0001) %MON dynstat_vvel_del2            =   1.4077908896767E-04
(PID.TID 0000.0001) %MON dynstat_wvel_max             =   1.0374446327906E-04
(PID.TID 0000.0001) %MON dynstat_wvel_min             =  -1.0681846948062E-03
(PID.TID 0000.0001) %MON dynstat_wvel_mean            =  -2.6081194673173E-07
(PID.TID 0000.0001) %MON dynstat_wvel_sd              =   1.1497124085175E-05
(PID.TID 0000.0001) %MON dynstat_wvel_del2            =   1.0228636963250E-07
(PID.TID 0000.0001) %MON dynstat_theta_max            =   3.0925192059909E+01
(PID.TID 0000.0001) %MON dynstat_theta_min            =  -3.0168545507852E+00
(PID.TID 0000.0001) %MON dynstat_theta_mean           =   3.9089567011474E+00
(PID.TID 0000.0001) %MON dynstat_theta_sd             =   4.5706473971571E+00
(PID.TID 0000.0001) %MON dynstat_theta_del2           =   2.6542590203637E-03
(PID.TID 0000.0001) %MON dynstat_salt_max             =   4.1376710882196E+01
(PID.TID 0000.0001) %MON dynstat_salt_min             =   1.8518415308172E+01
(PID.TID 0000.0001) %MON dynstat_salt_mean            =   3.4772183383939E+01
(PID.TID 0000.0001) %MON dynstat_salt_sd              =   5.3095425417688E-01
(PID.TID 0000.0001) %MON dynstat_salt_del2            =   8.0477480030750E-04
(PID.TID 0000.0001) %MON dynstat_sst_max              =   3.0925192059909E+01
(PID.TID 0000.0001) %MON dynstat_sst_min              =  -1.8998649190852E+00
(PID.TID 0000.0001) %MON dynstat_sst_mean             =   1.8100516541147E+01
(PID.TID 0000.0001) %MON dynstat_sst_sd               =   9.7999246982221E+00
(PID.TID 0000.0001) %MON dynstat_sst_del2             =   1.5319081976687E-02
(PID.TID 0000.0001) %MON dynstat_sss_max              =   4.1376710882196E+01
(PID.TID 0000.0001) %MON dynstat_sss_min              =   1.8751369877169E+01
(PID.TID 0000.0001) %MON dynstat_sss_mean             =   3.4640931433367E+01
(PID.TID 0000.0001) %MON dynstat_sss_sd               =   1.4575667258617E+00
(PID.TID 0000.0001) %MON dynstat_sss_del2             =   8.0444009538231E-03
(PID.TID 0000.0001) %MON forcing_qnet_max             =   2.5371796875000E+04
(PID.TID 0000.0001) %MON forcing_qnet_min             =  -9.4636669921875E+03
(PID.TID 0000.0001) %MON forcing_qnet_mean            =  -1.6081645425943E+02
(PID.TID 0000.0001) %MON forcing_qnet_sd              =   8.5982932826539E+02
(PID.TID 0000.0001) %MON forcing_qnet_del2            =   3.1755176276792E+01
(PID.TID 0000.0001) %MON forcing_qsw_max              =   0.0000000000000E+00
(PID.TID 0000.0001) %MON forcing_qsw_min              =   0.0000000000000E+00
(PID.TID 0000.0001) %MON forcing_qsw_mean             =   0.0000000000000E+00
(PID.TID 0000.0001) %MON forcing_qsw_sd               =   0.0000000000000E+00
(PID.TID 0000.0001) %MON forcing_qsw_del2             =   0.0000000000000E+00
(PID.TID 0000.0001) %MON forcing_empmr_max            =   4.0035709738731E-02
(PID.TID 0000.0001) %MON forcing_empmr_min            =  -6.0534232854843E-01
(PID.TID 0000.0001) %MON forcing_empmr_mean           =  -6.4724791145547E-04
(PID.TID 0000.0001) %MON forcing_empmr_sd             =   1.2012937196922E-02
(PID.TID 0000.0001) %MON forcing_empmr_del2           =   4.7611087313394E-04
(PID.TID 0000.0001) %MON forcing_fu_max               =   5.6346533419467E-01
(PID.TID 0000.0001) %MON forcing_fu_min               =  -4.3181161802186E-01
(PID.TID 0000.0001) %MON forcing_fu_mean              =  -4.0123567798204E-03
(PID.TID 0000.0001) %MON forcing_fu_sd                =   6.7976379318755E-02
(PID.TID 0000.0001) %MON forcing_fu_del2              =   6.7433384596802E-04
(PID.TID 0000.0001) %MON forcing_fv_max               =   3.1438595575216E-01
(PID.TID 0000.0001) %MON forcing_fv_min               =  -3.1472663669592E-01
(PID.TID 0000.0001) %MON forcing_fv_mean              =  -1.3044037006942E-02
(PID.TID 0000.0001) %MON forcing_fv_sd                =   6.5077964518834E-02
(PID.TID 0000.0001) %MON forcing_fv_del2              =   5.4246701088047E-04
(PID.TID 0000.0001) %MON trAdv_CFL_u_max              =   9.0650555059017E-05
(PID.TID 0000.0001) %MON trAdv_CFL_v_max              =   1.3831923371520E-04
(PID.TID 0000.0001) %MON trAdv_CFL_w_max              =   2.5944556098113E-04
(PID.TID 0000.0001) %MON advcfl_uvel_max              =   9.6511071219973E-05
(PID.TID 0000.0001) %MON advcfl_vvel_max              =   7.9797536044032E-05
(PID.TID 0000.0001) %MON advcfl_wvel_max              =   5.8487181502264E-04
(PID.TID 0000.0001) %MON advcfl_W_hf_max              =   2.5944556098113E-04
(PID.TID 0000.0001) %MON pe_b_mean                    =   5.4736573191909E-04
(PID.TID 0000.0001) %MON ke_max                       =   4.6709421268914E-01
(PID.TID 0000.0001) %MON ke_mean                      =   1.6252764163523E-04
(PID.TID 0000.0001) %MON ke_vol                       =   1.3398061548222E+18
(PID.TID 0000.0001) %MON vort_r_min                   =  -3.0123207587503E-06
(PID.TID 0000.0001) %MON vort_r_max                   =   3.0072911247408E-06
(PID.TID 0000.0001) %MON vort_a_mean                  =  -2.0549865324846E-05
(PID.TID 0000.0001) %MON vort_a_sd                    =   7.5259526620965E-05
(PID.TID 0000.0001) %MON vort_p_mean                  =  -2.4783417966953E-05
(PID.TID 0000.0001) %MON vort_p_sd                    =   1.2811956652385E-04
(PID.TID 0000.0001) %MON surfExpan_theta_mean         =  -6.7433597082260E-06
(PID.TID 0000.0001) %MON surfExpan_salt_mean          =   8.1007614411747E-07
(PID.TID 0000.0001) // =======================================================
(PID.TID 0000.0001) // End MONITOR dynamic field statistics
(PID.TID 0000.0001) // =======================================================
 cg2d: Sum(rhs),rhsMax =  -5.26533209088936E+00  2.16596924957327E+05
(PID.TID 0000.0001)      cg2d_init_res =   6.40841847623464E-03
(PID.TID 0000.0001)      cg2d_iters(min,last) =      -1       1
(PID.TID 0000.0001)      cg2d_last_res =   6.02108211312240E-08
(PID.TID 0000.0001) // =======================================================
(PID.TID 0000.0001) // Begin MONITOR dynamic field statistics
(PID.TID 0000.0001) // =======================================================
(PID.TID 0000.0001) %MON time_tsnumber                =                 72128
(PID.TID 0000.0001) %MON time_secondsf                =   1.8032000000000E+06
(PID.TID 0000.0001) %MON dynstat_eta_max              =   8.0720179750400E+00
(PID.TID 0000.0001) %MON dynstat_eta_min              =  -1.6192566370472E+00
(PID.TID 0000.0001) %MON dynstat_eta_mean             =   1.0225256855880E-02
(PID.TID 0000.0001) %MON dynstat_eta_sd               =   6.4078285689617E-01
(PID.TID 0000.0001) %MON dynstat_eta_del2             =   7.0540370795895E-03
(PID.TID 0000.0001) %MON dynstat_uvel_max             =   1.0493318832167E+00
(PID.TID 0000.0001) %MON dynstat_uvel_min             =  -5.3249079942306E-01
(PID.TID 0000.0001) %MON dynstat_uvel_mean            =  -4.1756852391183E-04
(PID.TID 0000.0001) %MON dynstat_uvel_sd              =   1.2981379778660E-02
(PID.TID 0000.0001) %MON dynstat_uvel_del2            =   1.0259155149269E-04
(PID.TID 0000.0001) %MON dynstat_vvel_max             =   8.8622053246773E-01
(PID.TID 0000.0001) %MON dynstat_vvel_min             =  -8.6613598587372E-01
(PID.TID 0000.0001) %MON dynstat_vvel_mean            =  -3.6864644304358E-04
(PID.TID 0000.0001) %MON dynstat_vvel_sd              =   1.3552617828312E-02
(PID.TID 0000.0001) %MON dynstat_vvel_del2            =   1.4152321329361E-04
(PID.TID 0000.0001) %MON dynstat_wvel_max             =   1.0375027918382E-04
(PID.TID 0000.0001) %MON dynstat_wvel_min             =  -1.0699268173481E-03
(PID.TID 0000.0001) %MON dynstat_wvel_mean            =  -2.6283740744247E-07
(PID.TID 0000.0001) %MON dynstat_wvel_sd              =   1.1523433787263E-05
(PID.TID 0000.0001) %MON dynstat_wvel_del2            =   1.0238912781560E-07
(PID.TID 0000.0001) %MON dynstat_theta_max            =   3.0925186068281E+01
(PID.TID 0000.0001) %MON dynstat_theta_min            =  -3.0168339060107E+00
(PID.TID 0000.0001) %MON dynstat_theta_mean           =   3.9089570415689E+00
(PID.TID 0000.0001) %MON dynstat_theta_sd             =   4.5706485216285E+00
(PID.TID 0000.0001) %MON dynstat_theta_del2           =   2.6542457078015E-03
(PID.TID 0000.0001) %MON dynstat_salt_max             =   4.1376697597368E+01
(PID.TID 0000.0001) %MON dynstat_salt_min             =   1.8518415575662E+01
(PID.TID 0000.0001) %MON dynstat_salt_mean            =   3.4772183178990E+01
(PID.TID 0000.0001) %MON dynstat_salt_sd              =   5.3095464313405E-01
(PID.TID 0000.0001) %MON dynstat_salt_del2            =   8.0482011196555E-04
(PID.TID 0000.0001) %MON dynstat_sst_max              =   3.0925186068281E+01
(PID.TID 0000.0001) %MON dynstat_sst_min              =  -1.8998637995221E+00
(PID.TID 0000.0001) %MON dynstat_sst_mean             =   1.8100536546319E+01
(PID.TID 0000.0001) %MON dynstat_sst_sd               =   9.7999293593116E+00
(PID.TID 0000.0001) %MON dynstat_sst_del2             =   1.5318761655483E-02
(PID.TID 0000.0001) %MON dynstat_sss_max              =   4.1376697597368E+01
(PID.TID 0000.0001) %MON dynstat_sss_min              =   1.8751369918331E+01
(PID.TID 0000.0001) %MON dynstat_sss_mean             =   3.4640916818263E+01
(PID.TID 0000.0001) %MON dynstat_sss_sd               =   1.4575756885885E+00
(PID.TID 0000.0001) %MON dynstat_sss_del2             =   8.0451141924963E-03
(PID.TID 0000.0001) %MON forcing_qnet_max             =   2.5011121093750E+04
(PID.TID 0000.0001) %MON forcing_qnet_min             =  -9.4246826171875E+03
(PID.TID 0000.0001) %MON forcing_qnet_mean            =  -1.5956335884572E+02
(PID.TID 0000.0001) %MON forcing_qnet_sd              =   8.4614331610104E+02
(PID.TID 0000.0001) %MON forcing_qnet_del2            =   3.1177208421870E+01
(PID.TID 0000.0001) %MON forcing_qsw_max              =   0.0000000000000E+00
(PID.TID 0000.0001) %MON forcing_qsw_min              =   0.0000000000000E+00
(PID.TID 0000.0001) %MON forcing_qsw_mean             =   0.0000000000000E+00
(PID.TID 0000.0001) %MON forcing_qsw_sd               =   0.0000000000000E+00
(PID.TID 0000.0001) %MON forcing_qsw_del2             =   0.0000000000000E+00
(PID.TID 0000.0001) %MON forcing_empmr_max            =   3.6446996033192E-02
(PID.TID 0000.0001) %MON forcing_empmr_min            =  -6.0388755798340E-01
(PID.TID 0000.0001) %MON forcing_empmr_mean           =  -6.4701406506998E-04
(PID.TID 0000.0001) %MON forcing_empmr_sd             =   1.1991604459862E-02
(PID.TID 0000.0001) %MON forcing_empmr_del2           =   4.7529733703794E-04
(PID.TID 0000.0001) %MON forcing_fu_max               =   5.6346533419467E-01
(PID.TID 0000.0001) %MON forcing_fu_min               =  -4.3181161802186E-01
(PID.TID 0000.0001) %MON forcing_fu_mean              =  -4.0123567798204E-03
(PID.TID 0000.0001) %MON forcing_fu_sd                =   6.7976379318755E-02
(PID.TID 0000.0001) %MON forcing_fu_del2              =   6.7433384596802E-04
(PID.TID 0000.0001) %MON forcing_fv_max               =   3.1438595575216E-01
(PID.TID 0000.0001) %MON forcing_fv_min               =  -3.1472663669592E-01
(PID.TID 0000.0001) %MON forcing_fv_mean              =  -1.3044037006942E-02
(PID.TID 0000.0001) %MON forcing_fv_sd                =   6.5077964518834E-02
(PID.TID 0000.0001) %MON forcing_fv_del2              =   5.4246701088047E-04
(PID.TID 0000.0001) %MON trAdv_CFL_u_max              =   9.1312468422325E-05
(PID.TID 0000.0001) %MON trAdv_CFL_v_max              =   1.3917714219923E-04
(PID.TID 0000.0001) %MON trAdv_CFL_w_max              =   2.5865199937655E-04
(PID.TID 0000.0001) %MON advcfl_uvel_max              =   9.7202137529551E-05
(PID.TID 0000.0001) %MON advcfl_vvel_max              =   8.0335024008963E-05
(PID.TID 0000.0001) %MON advcfl_wvel_max              =   5.8346623959749E-04
(PID.TID 0000.0001) %MON advcfl_W_hf_max              =   2.5865199937655E-04
(PID.TID 0000.0001) %MON pe_b_mean                    =   5.4713640438999E-04
(PID.TID 0000.0001) %MON ke_max                       =   4.7382496668453E-01
(PID.TID 0000.0001) %MON ke_mean                      =   1.6276909475393E-04
(PID.TID 0000.0001) %MON ke_vol                       =   1.3398061605112E+18
(PID.TID 0000.0001) %MON vort_r_min                   =  -3.0336791263500E-06
(PID.TID 0000.0001) %MON vort_r_max                   =   3.0272313569796E-06
(PID.TID 0000.0001) %MON vort_a_mean                  =  -2.0549865324846E-05
(PID.TID 0000.0001) %MON vort_a_sd                    =   7.5259526710086E-05
(PID.TID 0000.0001) %MON vort_p_mean                  =  -2.4783417826746E-05
(PID.TID 0000.0001) %MON vort_p_sd                    =   1.2811956482427E-04
(PID.TID 0000.0001) %MON surfExpan_theta_mean         =  -6.7600567664588E-06
(PID.TID 0000.0001) %MON surfExpan_salt_mean          =   8.1353229303355E-07
(PID.TID 0000.0001) // =======================================================
(PID.TID 0000.0001) // End MONITOR dynamic field statistics
(PID.TID 0000.0001) // =======================================================
 cg2d: Sum(rhs),rhsMax =  -5.28086257736611E+00  2.16289869232103E+05
(PID.TID 0000.0001)      cg2d_init_res =   6.43097509287319E-03
(PID.TID 0000.0001)      cg2d_iters(min,last) =      -1       1
(PID.TID 0000.0001)      cg2d_last_res =   6.04026713252330E-08
(PID.TID 0000.0001) // =======================================================
(PID.TID 0000.0001) // Begin MONITOR dynamic field statistics
(PID.TID 0000.0001) // =======================================================
(PID.TID 0000.0001) %MON time_tsnumber                =                 72129
(PID.TID 0000.0001) %MON time_secondsf                =   1.8032250000000E+06
(PID.TID 0000.0001) %MON dynstat_eta_max              =   8.0580822072434E+00
(PID.TID 0000.0001) %MON dynstat_eta_min              =  -1.6192913336180E+00
(PID.TID 0000.0001) %MON dynstat_eta_mean             =   1.0240878552981E-02
(PID.TID 0000.0001) %MON dynstat_eta_sd               =   6.4064846440065E-01
(PID.TID 0000.0001) %MON dynstat_eta_del2             =   7.0332372136597E-03
(PID.TID 0000.0001) %MON dynstat_uvel_max             =   1.0567749503002E+00
(PID.TID 0000.0001) %MON dynstat_uvel_min             =  -5.3516734475413E-01
(PID.TID 0000.0001) %MON dynstat_uvel_mean            =  -4.1674484651102E-04
(PID.TID 0000.0001) %MON dynstat_uvel_sd              =   1.2991929414074E-02
(PID.TID 0000.0001) %MON dynstat_uvel_del2            =   1.0307537058098E-04
(PID.TID 0000.0001) %MON dynstat_vvel_max             =   8.9212710467762E-01
(PID.TID 0000.0001) %MON dynstat_vvel_min             =  -8.7221386899353E-01
(PID.TID 0000.0001) %MON dynstat_vvel_mean            =  -3.6838837226619E-04
(PID.TID 0000.0001) %MON dynstat_vvel_sd              =   1.3561795902597E-02
(PID.TID 0000.0001) %MON dynstat_vvel_del2            =   1.4226332849703E-04
(PID.TID 0000.0001) %MON dynstat_wvel_max             =   1.0375611314177E-04
(PID.TID 0000.0001) %MON dynstat_wvel_min             =  -1.0715627472766E-03
(PID.TID 0000.0001) %MON dynstat_wvel_mean            =  -2.6485237074285E-07
(PID.TID 0000.0001) %MON dynstat_wvel_sd              =   1.1549092937605E-05
(PID.TID 0000.0001) %MON dynstat_wvel_del2            =   1.0248843288425E-07
(PID.TID 0000.0001) %MON dynstat_theta_max            =   3.0925180077395E+01
(PID.TID 0000.0001) %MON dynstat_theta_min            =  -3.0168130072675E+00
(PID.TID 0000.0001) %MON dynstat_theta_mean           =   3.9089573801135E+00
(PID.TID 0000.0001) %MON dynstat_theta_sd             =   4.5706496393192E+00
(PID.TID 0000.0001) %MON dynstat_theta_del2           =   2.6542324805489E-03
(PID.TID 0000.0001) %MON dynstat_salt_max             =   4.1376684115799E+01
(PID.TID 0000.0001) %MON dynstat_salt_min             =   1.8518415843136E+01
(PID.TID 0000.0001) %MON dynstat_salt_mean            =   3.4772182974331E+01
(PID.TID 0000.0001) %MON dynstat_salt_sd              =   5.3095503264017E-01
(PID.TID 0000.0001) %MON dynstat_salt_del2            =   8.0486580438515E-04
(PID.TID 0000.0001) %MON dynstat_sst_max              =   3.0925180077395E+01
(PID.TID 0000.0001) %MON dynstat_sst_min              =  -1.8998626783963E+00
(PID.TID 0000.0001) %MON dynstat_sst_mean             =   1.8100556371096E+01
(PID.TID 0000.0001) %MON dynstat_sst_sd               =   9.7999340274643E+00
(PID.TID 0000.0001) %MON dynstat_sst_del2             =   1.5318443824803E-02
(PID.TID 0000.0001) %MON dynstat_sss_max              =   4.1376684115799E+01
(PID.TID 0000.0001) %MON dynstat_sss_min              =   1.8751369959546E+01
(PID.TID 0000.0001) %MON dynstat_sss_mean             =   3.4640902219805E+01
(PID.TID 0000.0001) %MON dynstat_sss_sd               =   1.4575846649673E+00
(PID.TID 0000.0001) %MON dynstat_sss_del2             =   8.0458334101029E-03
(PID.TID 0000.0001) %MON forcing_qnet_max             =   2.4640701171875E+04
(PID.TID 0000.0001) %MON forcing_qnet_min             =  -9.3662050781250E+03
(PID.TID 0000.0001) %MON forcing_qnet_mean            =  -1.5842796608819E+02
(PID.TID 0000.0001) %MON forcing_qnet_sd              =   8.3313559660074E+02
(PID.TID 0000.0001) %MON forcing_qnet_del2            =   3.0625385677189E+01
(PID.TID 0000.0001) %MON forcing_qsw_max              =   0.0000000000000E+00
(PID.TID 0000.0001) %MON forcing_qsw_min              =   0.0000000000000E+00
(PID.TID 0000.0001) %MON forcing_qsw_mean             =   0.0000000000000E+00
(PID.TID 0000.0001) %MON forcing_qsw_sd               =   0.0000000000000E+00
(PID.TID 0000.0001) %MON forcing_qsw_del2             =   0.0000000000000E+00
(PID.TID 0000.0001) %MON forcing_empmr_max            =   3.3180497586727E-02
(PID.TID 0000.0001) %MON forcing_empmr_min            =  -6.0243278741837E-01
(PID.TID 0000.0001) %MON forcing_empmr_mean           =  -6.4673825999126E-04
(PID.TID 0000.0001) %MON forcing_empmr_sd             =   1.1970484232814E-02
(PID.TID 0000.0001) %MON forcing_empmr_del2           =   4.7448457622517E-04
(PID.TID 0000.0001) %MON forcing_fu_max               =   5.6346533419467E-01
(PID.TID 0000.0001) %MON forcing_fu_min               =  -4.3181161802186E-01
(PID.TID 0000.0001) %MON forcing_fu_mean              =  -4.0123567798204E-03
(PID.TID 0000.0001) %MON forcing_fu_sd                =   6.7976379318755E-02
(PID.TID 0000.0001) %MON forcing_fu_del2              =   6.7433384596802E-04
(PID.TID 0000.0001) %MON forcing_fv_max               =   3.1438595575216E-01
(PID.TID 0000.0001) %MON forcing_fv_min               =  -3.1472663669592E-01
(PID.TID 0000.0001) %MON forcing_fv_mean              =  -1.3044037006942E-02
(PID.TID 0000.0001) %MON forcing_fv_sd                =   6.5077964518834E-02
(PID.TID 0000.0001) %MON forcing_fv_del2              =   5.4246701088047E-04
(PID.TID 0000.0001) %MON trAdv_CFL_u_max              =   9.1973130187674E-05
(PID.TID 0000.0001) %MON trAdv_CFL_v_max              =   1.4002946975077E-04
(PID.TID 0000.0001) %MON trAdv_CFL_w_max              =   2.5785870788714E-04
(PID.TID 0000.0001) %MON advcfl_uvel_max              =   9.7891606745028E-05
(PID.TID 0000.0001) %MON advcfl_vvel_max              =   8.0870448999592E-05
(PID.TID 0000.0001) %MON advcfl_wvel_max              =   5.8206066417233E-04
(PID.TID 0000.0001) %MON advcfl_W_hf_max              =   2.5785870788714E-04
(PID.TID 0000.0001) %MON pe_b_mean                    =   5.4690740674831E-04
(PID.TID 0000.0001) %MON ke_max                       =   4.8058732590159E-01
(PID.TID 0000.0001) %MON ke_mean                      =   1.6301001373194E-04
(PID.TID 0000.0001) %MON ke_vol                       =   1.3398061661981E+18
(PID.TID 0000.0001) %MON vort_r_min                   =  -3.0549436414714E-06
(PID.TID 0000.0001) %MON vort_r_max                   =   3.0470852379089E-06
(PID.TID 0000.0001) %MON vort_a_mean                  =  -2.0549865324846E-05
(PID.TID 0000.0001) %MON vort_a_sd                    =   7.5259526798747E-05
(PID.TID 0000.0001) %MON vort_p_mean                  =  -2.4783417686369E-05
(PID.TID 0000.0001) %MON vort_p_sd                    =   1.2811956311729E-04
(PID.TID 0000.0001) %MON surfExpan_theta_mean         =  -6.7765705858439E-06
(PID.TID 0000.0001) %MON surfExpan_salt_mean          =   8.1698138984838E-07
(PID.TID 0000.0001) // =======================================================
(PID.TID 0000.0001) // End MONITOR dynamic field statistics
(PID.TID 0000.0001) // =======================================================
 cg2d: Sum(rhs),rhsMax =  -5.29648592987942E+00  2.15980692766267E+05
(PID.TID 0000.0001)      cg2d_init_res =   6.45334928069444E-03
(PID.TID 0000.0001)      cg2d_iters(min,last) =      -1       1
(PID.TID 0000.0001)      cg2d_last_res =   6.05959028722616E-08
(PID.TID 0000.0001) // =======================================================
(PID.TID 0000.0001) // Begin MONITOR dynamic field statistics
(PID.TID 0000.0001) // =======================================================
(PID.TID 0000.0001) %MON time_tsnumber                =                 72130
(PID.TID 0000.0001) %MON time_secondsf                =   1.8032500000000E+06
(PID.TID 0000.0001) %MON dynstat_eta_max              =   8.0440516981517E+00
(PID.TID 0000.0001) %MON dynstat_eta_min              =  -1.6193264670486E+00
(PID.TID 0000.0001) %MON dynstat_eta_mean             =   1.0256493862252E-02
(PID.TID 0000.0001) %MON dynstat_eta_sd               =   6.4051424849149E-01
(PID.TID 0000.0001) %MON dynstat_eta_del2             =   7.0123704659583E-03
(PID.TID 0000.0001) %MON dynstat_uvel_max             =   1.0642006462471E+00
(PID.TID 0000.0001) %MON dynstat_uvel_min             =  -5.3783861783007E-01
(PID.TID 0000.0001) %MON dynstat_uvel_mean            =  -4.1591776693845E-04
(PID.TID 0000.0001) %MON dynstat_uvel_sd              =   1.3002457204250E-02
(PID.TID 0000.0001) %MON dynstat_uvel_del2            =   1.0355764381961E-04
(PID.TID 0000.0001) %MON dynstat_vvel_max             =   8.9801087094908E-01
(PID.TID 0000.0001) %MON dynstat_vvel_min             =  -8.7827838854421E-01
(PID.TID 0000.0001) %MON dynstat_vvel_mean            =  -3.6813264072747E-04
(PID.TID 0000.0001) %MON dynstat_vvel_sd              =   1.3570936200162E-02
(PID.TID 0000.0001) %MON dynstat_vvel_del2            =   1.4299941337307E-04
(PID.TID 0000.0001) %MON dynstat_wvel_max             =   1.0376196521307E-04
(PID.TID 0000.0001) %MON dynstat_wvel_min             =  -1.0730927736223E-03
(PID.TID 0000.0001) %MON dynstat_wvel_mean            =  -2.6687842626710E-07
(PID.TID 0000.0001) %MON dynstat_wvel_sd              =   1.1574140685022E-05
(PID.TID 0000.0001) %MON dynstat_wvel_del2            =   1.0258480424046E-07
(PID.TID 0000.0001) %MON dynstat_theta_max            =   3.0925174087250E+01
(PID.TID 0000.0001) %MON dynstat_theta_min            =  -3.0167918559859E+00
(PID.TID 0000.0001) %MON dynstat_theta_mean           =   3.9089577165671E+00
(PID.TID 0000.0001) %MON dynstat_theta_sd             =   4.5706507498187E+00
(PID.TID 0000.0001) %MON dynstat_theta_del2           =   2.6542193263460E-03
(PID.TID 0000.0001) %MON dynstat_salt_max             =   4.1376670638607E+01
(PID.TID 0000.0001) %MON dynstat_salt_min             =   1.8518416110592E+01
(PID.TID 0000.0001) %MON dynstat_salt_mean            =   3.4772182769929E+01
(PID.TID 0000.0001) %MON dynstat_salt_sd              =   5.3095542272880E-01
(PID.TID 0000.0001) %MON dynstat_salt_del2            =   8.0491187745527E-04
(PID.TID 0000.0001) %MON dynstat_sst_max              =   3.0925174087250E+01
(PID.TID 0000.0001) %MON dynstat_sst_min              =  -1.8998615556957E+00
(PID.TID 0000.0001) %MON dynstat_sst_mean             =   1.8100576002813E+01
(PID.TID 0000.0001) %MON dynstat_sst_sd               =   9.7999387086471E+00
(PID.TID 0000.0001) %MON dynstat_sst_del2             =   1.5318128134100E-02
(PID.TID 0000.0001) %MON dynstat_sss_max              =   4.1376670638607E+01
(PID.TID 0000.0001) %MON dynstat_sss_min              =   1.8751370000804E+01
(PID.TID 0000.0001) %MON dynstat_sss_mean             =   3.4640887635856E+01
(PID.TID 0000.0001) %MON dynstat_sss_sd               =   1.4575936558336E+00
(PID.TID 0000.0001) %MON dynstat_sss_del2             =   8.0465586037129E-03
(PID.TID 0000.0001) %MON forcing_qnet_max             =   2.4280031250000E+04
(PID.TID 0000.0001) %MON forcing_qnet_min             =  -9.3272207031250E+03
(PID.TID 0000.0001) %MON forcing_qnet_mean            =  -1.5716132794952E+02
(PID.TID 0000.0001) %MON forcing_qnet_sd              =   8.2065500588238E+02
(PID.TID 0000.0001) %MON forcing_qnet_del2            =   3.0107657082034E+01
(PID.TID 0000.0001) %MON forcing_qsw_max              =   0.0000000000000E+00
(PID.TID 0000.0001) %MON forcing_qsw_min              =   0.0000000000000E+00
(PID.TID 0000.0001) %MON forcing_qsw_mean             =   0.0000000000000E+00
(PID.TID 0000.0001) %MON forcing_qsw_sd               =   0.0000000000000E+00
(PID.TID 0000.0001) %MON forcing_qsw_del2             =   0.0000000000000E+00
(PID.TID 0000.0001) %MON forcing_empmr_max            =   3.0199972912669E-02
(PID.TID 0000.0001) %MON forcing_empmr_min            =  -6.0099768638611E-01
(PID.TID 0000.0001) %MON forcing_empmr_mean           =  -6.4647380383458E-04
(PID.TID 0000.0001) %MON forcing_empmr_sd             =   1.1950046048020E-02
(PID.TID 0000.0001) %MON forcing_empmr_del2           =   4.7369418919997E-04
(PID.TID 0000.0001) %MON forcing_fu_max               =   5.6346533419467E-01
(PID.TID 0000.0001) %MON forcing_fu_min               =  -4.3181161802186E-01
(PID.TID 0000.0001) %MON forcing_fu_mean              =  -4.0123567798204E-03
(PID.TID 0000.0001) %MON forcing_fu_sd                =   6.7976379318755E-02
(PID.TID 0000.0001) %MON forcing_fu_del2              =   6.7433384596802E-04
(PID.TID 0000.0001) %MON forcing_fv_max               =   3.1438595575216E-01
(PID.TID 0000.0001) %MON forcing_fv_min               =  -3.1472663669592E-01
(PID.TID 0000.0001) %MON forcing_fv_mean              =  -1.3044037006942E-02
(PID.TID 0000.0001) %MON forcing_fv_sd                =   6.5077964518834E-02
(PID.TID 0000.0001) %MON forcing_fv_del2              =   5.4246701088047E-04
(PID.TID 0000.0001) %MON trAdv_CFL_u_max              =   9.2632529100916E-05
(PID.TID 0000.0001) %MON trAdv_CFL_v_max              =   1.4087619619599E-04
(PID.TID 0000.0001) %MON trAdv_CFL_w_max              =   2.5707447951991E-04
(PID.TID 0000.0001) %MON advcfl_uvel_max              =   9.8579466830313E-05
(PID.TID 0000.0001) %MON advcfl_vvel_max              =   8.1403806654221E-05
(PID.TID 0000.0001) %MON advcfl_wvel_max              =   5.8067409312667E-04
(PID.TID 0000.0001) %MON advcfl_W_hf_max              =   2.5707447951991E-04
(PID.TID 0000.0001) %MON pe_b_mean                    =   5.4667875906267E-04
(PID.TID 0000.0001) %MON ke_max                       =   4.8738085568134E-01
(PID.TID 0000.0001) %MON ke_mean                      =   1.6325037721835E-04
(PID.TID 0000.0001) %MON ke_vol                       =   1.3398061718826E+18
(PID.TID 0000.0001) %MON vort_r_min                   =  -3.0761138614421E-06
(PID.TID 0000.0001) %MON vort_r_max                   =   3.0668525733126E-06
(PID.TID 0000.0001) %MON vort_a_mean                  =  -2.0549865324846E-05
(PID.TID 0000.0001) %MON vort_a_sd                    =   7.5259526886936E-05
(PID.TID 0000.0001) %MON vort_p_mean                  =  -2.4783417545832E-05
(PID.TID 0000.0001) %MON vort_p_sd                    =   1.2811956140315E-04
(PID.TID 0000.0001) %MON surfExpan_theta_mean         =  -6.7931874431585E-06
(PID.TID 0000.0001) %MON surfExpan_salt_mean          =   8.2049219009086E-07
(PID.TID 0000.0001) // =======================================================
(PID.TID 0000.0001) // End MONITOR dynamic field statistics
(PID.TID 0000.0001) // =======================================================
 cg2d: Sum(rhs),rhsMax =  -5.31220230922737E+00  2.15669401828944E+05
(PID.TID 0000.0001)      cg2d_init_res =   6.47551366469839E-03
(PID.TID 0000.0001)      cg2d_iters(min,last) =      -1       1
(PID.TID 0000.0001)      cg2d_last_res =   6.07902249748607E-08
(PID.TID 0000.0001) // =======================================================
(PID.TID 0000.0001) // Begin MONITOR dynamic field statistics
(PID.TID 0000.0001) // =======================================================
(PID.TID 0000.0001) %MON time_tsnumber                =                 72131
(PID.TID 0000.0001) %MON time_secondsf                =   1.8032750000000E+06
(PID.TID 0000.0001) %MON dynstat_eta_max              =   8.0299267702388E+00
(PID.TID 0000.0001) %MON dynstat_eta_min              =  -1.6193620239955E+00
(PID.TID 0000.0001) %MON dynstat_eta_mean             =   1.0272101729719E-02
(PID.TID 0000.0001) %MON dynstat_eta_sd               =   6.4038022133604E-01
(PID.TID 0000.0001) %MON dynstat_eta_del2             =   6.9914376858624E-03
(PID.TID 0000.0001) %MON dynstat_uvel_max             =   1.0716088422374E+00
(PID.TID 0000.0001) %MON dynstat_uvel_min             =  -5.4050459532035E-01
(PID.TID 0000.0001) %MON dynstat_uvel_mean            =  -4.1508732193659E-04
(PID.TID 0000.0001) %MON dynstat_uvel_sd              =   1.3012962116755E-02
(PID.TID 0000.0001) %MON dynstat_uvel_del2            =   1.0403834534088E-04
(PID.TID 0000.0001) %MON dynstat_vvel_max             =   9.0387178400210E-01
(PID.TID 0000.0001) %MON dynstat_vvel_min             =  -8.8432945344575E-01
(PID.TID 0000.0001) %MON dynstat_vvel_mean            =  -3.6787928173537E-04
(PID.TID 0000.0001) %MON dynstat_vvel_sd              =   1.3580038176090E-02
(PID.TID 0000.0001) %MON dynstat_vvel_del2            =   1.4373144746364E-04
(PID.TID 0000.0001) %MON dynstat_wvel_max             =   1.0376783541524E-04
(PID.TID 0000.0001) %MON dynstat_wvel_min             =  -1.0745171846573E-03
(PID.TID 0000.0001) %MON dynstat_wvel_mean            =  -2.6890455579397E-07
(PID.TID 0000.0001) %MON dynstat_wvel_sd              =   1.1598552945252E-05
(PID.TID 0000.0001) %MON dynstat_wvel_del2            =   1.0267813486460E-07
(PID.TID 0000.0001) %MON dynstat_theta_max            =   3.0925168097846E+01
(PID.TID 0000.0001) %MON dynstat_theta_min            =  -3.0167704536425E+00
(PID.TID 0000.0001) %MON dynstat_theta_mean           =   3.9089580510648E+00
(PID.TID 0000.0001) %MON dynstat_theta_sd             =   4.5706518534636E+00
(PID.TID 0000.0001) %MON dynstat_theta_del2           =   2.6542062487275E-03
(PID.TID 0000.0001) %MON dynstat_salt_max             =   4.1376656864713E+01
(PID.TID 0000.0001) %MON dynstat_salt_min             =   1.8518416378030E+01
(PID.TID 0000.0001) %MON dynstat_salt_mean            =   3.4772182565796E+01
(PID.TID 0000.0001) %MON dynstat_salt_sd              =   5.3095581342027E-01
(PID.TID 0000.0001) %MON dynstat_salt_del2            =   8.0495833584804E-04
(PID.TID 0000.0001) %MON dynstat_sst_max              =   3.0925168097846E+01
(PID.TID 0000.0001) %MON dynstat_sst_min              =  -1.8998604314045E+00
(PID.TID 0000.0001) %MON dynstat_sst_mean             =   1.8100595454248E+01
(PID.TID 0000.0001) %MON dynstat_sst_sd               =   9.7999433978150E+00
(PID.TID 0000.0001) %MON dynstat_sst_del2             =   1.5317814652276E-02
(PID.TID 0000.0001) %MON dynstat_sss_max              =   4.1376656864713E+01
(PID.TID 0000.0001) %MON dynstat_sss_min              =   1.8751370042094E+01
(PID.TID 0000.0001) %MON dynstat_sss_mean             =   3.4640873067640E+01
(PID.TID 0000.0001) %MON dynstat_sss_sd               =   1.4576026619733E+00
(PID.TID 0000.0001) %MON dynstat_sss_del2             =   8.0472898466197E-03
(PID.TID 0000.0001) %MON forcing_qnet_max             =   2.3919359375000E+04
(PID.TID 0000.0001) %MON forcing_qnet_min             =  -9.2784892578125E+03
(PID.TID 0000.0001) %MON forcing_qnet_mean            =  -1.5597714321183E+02
(PID.TID 0000.0001) %MON forcing_qnet_sd              =   8.0874314368621E+02
(PID.TID 0000.0001) %MON forcing_qnet_del2            =   2.9614322136741E+01
(PID.TID 0000.0001) %MON forcing_qsw_max              =   0.0000000000000E+00
(PID.TID 0000.0001) %MON forcing_qsw_min              =   0.0000000000000E+00
(PID.TID 0000.0001) %MON forcing_qsw_mean             =   0.0000000000000E+00
(PID.TID 0000.0001) %MON forcing_qsw_sd               =   0.0000000000000E+00
(PID.TID 0000.0001) %MON forcing_qsw_del2             =   0.0000000000000E+00
(PID.TID 0000.0001) %MON forcing_empmr_max            =   2.7493333443999E-02
(PID.TID 0000.0001) %MON forcing_empmr_min            =  -5.9954291582108E-01
(PID.TID 0000.0001) %MON forcing_empmr_mean           =  -6.4616571311047E-04
(PID.TID 0000.0001) %MON forcing_empmr_sd             =   1.1929578987927E-02
(PID.TID 0000.0001) %MON forcing_empmr_del2           =   4.7291088066636E-04
(PID.TID 0000.0001) %MON forcing_fu_max               =   5.6346533419467E-01
(PID.TID 0000.0001) %MON forcing_fu_min               =  -4.3181161802186E-01
(PID.TID 0000.0001) %MON forcing_fu_mean              =  -4.0123567798204E-03
(PID.TID 0000.0001) %MON forcing_fu_sd                =   6.7976379318755E-02
(PID.TID 0000.0001) %MON forcing_fu_del2              =   6.7433384596802E-04
(PID.TID 0000.0001) %MON forcing_fv_max               =   3.1438595575216E-01
(PID.TID 0000.0001) %MON forcing_fv_min               =  -3.1472663669592E-01
(PID.TID 0000.0001) %MON forcing_fv_mean              =  -1.3044037006942E-02
(PID.TID 0000.0001) %MON forcing_fv_sd                =   6.5077964518834E-02
(PID.TID 0000.0001) %MON forcing_fv_del2              =   5.4246701088047E-04
(PID.TID 0000.0001) %MON trAdv_CFL_u_max              =   9.3290653971152E-05
(PID.TID 0000.0001) %MON trAdv_CFL_v_max              =   1.4171730159671E-04
(PID.TID 0000.0001) %MON trAdv_CFL_w_max              =   2.5628177469928E-04
(PID.TID 0000.0001) %MON advcfl_uvel_max              =   9.9265705852502E-05
(PID.TID 0000.0001) %MON advcfl_vvel_max              =   8.1935092686962E-05
(PID.TID 0000.0001) %MON advcfl_wvel_max              =   5.7926851770152E-04
(PID.TID 0000.0001) %MON advcfl_W_hf_max              =   2.5628177469928E-04
(PID.TID 0000.0001) %MON pe_b_mean                    =   5.4645048187396E-04
(PID.TID 0000.0001) %MON ke_max                       =   4.9420512023699E-01
(PID.TID 0000.0001) %MON ke_mean                      =   1.6349016444206E-04
(PID.TID 0000.0001) %MON ke_vol                       =   1.3398061775648E+18
(PID.TID 0000.0001) %MON vort_r_min                   =  -3.0971893485578E-06
(PID.TID 0000.0001) %MON vort_r_max                   =   3.0865331701982E-06
(PID.TID 0000.0001) %MON vort_a_mean                  =  -2.0549865324846E-05
(PID.TID 0000.0001) %MON vort_a_sd                    =   7.5259526974644E-05
(PID.TID 0000.0001) %MON vort_p_mean                  =  -2.4783417405133E-05
(PID.TID 0000.0001) %MON vort_p_sd                    =   1.2811955968196E-04
(PID.TID 0000.0001) %MON surfExpan_theta_mean         =  -6.8098793942356E-06
(PID.TID 0000.0001) %MON surfExpan_salt_mean          =   8.2402296962007E-07
(PID.TID 0000.0001) // =======================================================
(PID.TID 0000.0001) // End MONITOR dynamic field statistics
(PID.TID 0000.0001) // =======================================================
 cg2d: Sum(rhs),rhsMax =  -5.32801253556873E+00  2.15356002718889E+05
(PID.TID 0000.0001)      cg2d_init_res =   6.49748250776652E-03
(PID.TID 0000.0001)      cg2d_iters(min,last) =      -1       1
(PID.TID 0000.0001)      cg2d_last_res =   6.09857273769250E-08
(PID.TID 0000.0001) // =======================================================
(PID.TID 0000.0001) // Begin MONITOR dynamic field statistics
(PID.TID 0000.0001) // =======================================================
(PID.TID 0000.0001) %MON time_tsnumber                =                 72132
(PID.TID 0000.0001) %MON time_secondsf                =   1.8033000000000E+06
(PID.TID 0000.0001) %MON dynstat_eta_max              =   8.0157077474026E+00
(PID.TID 0000.0001) %MON dynstat_eta_min              =  -1.6193979906246E+00
(PID.TID 0000.0001) %MON dynstat_eta_mean             =   1.0287702367113E-02
(PID.TID 0000.0001) %MON dynstat_eta_sd               =   6.4024639305951E-01
(PID.TID 0000.0001) %MON dynstat_eta_del2             =   6.9704396969483E-03
(PID.TID 0000.0001) %MON dynstat_uvel_max             =   1.0789994105631E+00
(PID.TID 0000.0001) %MON dynstat_uvel_min             =  -5.4316525397398E-01
(PID.TID 0000.0001) %MON dynstat_uvel_mean            =  -4.1425354835175E-04
(PID.TID 0000.0001) %MON dynstat_uvel_sd              =   1.3023443138530E-02
(PID.TID 0000.0001) %MON dynstat_uvel_del2            =   1.0451744972322E-04
(PID.TID 0000.0001) %MON dynstat_vvel_max             =   9.0970979737400E-01
(PID.TID 0000.0001) %MON dynstat_vvel_min             =  -8.9036697287796E-01
(PID.TID 0000.0001) %MON dynstat_vvel_mean            =  -3.6762832723925E-04
(PID.TID 0000.0001) %MON dynstat_vvel_sd              =   1.3589101316444E-02
(PID.TID 0000.0001) %MON dynstat_vvel_del2            =   1.4445941103288E-04
(PID.TID 0000.0001) %MON dynstat_wvel_max             =   1.0377372381230E-04
(PID.TID 0000.0001) %MON dynstat_wvel_min             =  -1.0758362682639E-03
(PID.TID 0000.0001) %MON dynstat_wvel_mean            =  -2.7095762538033E-07
(PID.TID 0000.0001) %MON dynstat_wvel_sd              =   1.1622307041699E-05
(PID.TID 0000.0001) %MON dynstat_wvel_del2            =   1.0276755719972E-07
(PID.TID 0000.0001) %MON dynstat_theta_max            =   3.0925162109182E+01
(PID.TID 0000.0001) %MON dynstat_theta_min            =  -3.0167488017637E+00
(PID.TID 0000.0001) %MON dynstat_theta_mean           =   3.9089583836296E+00
(PID.TID 0000.0001) %MON dynstat_theta_sd             =   4.5706529503307E+00
(PID.TID 0000.0001) %MON dynstat_theta_del2           =   2.6541932434829E-03
(PID.TID 0000.0001) %MON dynstat_salt_max             =   4.1376643196109E+01
(PID.TID 0000.0001) %MON dynstat_salt_min             =   1.8518416645448E+01
(PID.TID 0000.0001) %MON dynstat_salt_mean            =   3.4772182361929E+01
(PID.TID 0000.0001) %MON dynstat_salt_sd              =   5.3095620470533E-01
(PID.TID 0000.0001) %MON dynstat_salt_del2            =   8.0500517257253E-04
(PID.TID 0000.0001) %MON dynstat_sst_max              =   3.0925162109182E+01
(PID.TID 0000.0001) %MON dynstat_sst_min              =  -1.8998593055162E+00
(PID.TID 0000.0001) %MON dynstat_sst_mean             =   1.8100614729646E+01
(PID.TID 0000.0001) %MON dynstat_sst_sd               =   9.7999480930581E+00
(PID.TID 0000.0001) %MON dynstat_sst_del2             =   1.5317503252784E-02
(PID.TID 0000.0001) %MON dynstat_sss_max              =   4.1376643196109E+01
(PID.TID 0000.0001) %MON dynstat_sss_min              =   1.8751370083411E+01
(PID.TID 0000.0001) %MON dynstat_sss_mean             =   3.4640858515111E+01
(PID.TID 0000.0001) %MON dynstat_sss_sd               =   1.4576116832529E+00
(PID.TID 0000.0001) %MON dynstat_sss_del2             =   8.0480270273562E-03
(PID.TID 0000.0001) %MON forcing_qnet_max             =   2.3578185546875E+04
(PID.TID 0000.0001) %MON forcing_qnet_min             =  -9.2395048828125E+03
(PID.TID 0000.0001) %MON forcing_qnet_mean            =  -1.5480902486892E+02
(PID.TID 0000.0001) %MON forcing_qnet_sd              =   7.9759297968169E+02
(PID.TID 0000.0001) %MON forcing_qnet_del2            =   2.9156336824325E+01
(PID.TID 0000.0001) %MON forcing_qsw_max              =   0.0000000000000E+00
(PID.TID 0000.0001) %MON forcing_qsw_min              =   0.0000000000000E+00
(PID.TID 0000.0001) %MON forcing_qsw_mean             =   0.0000000000000E+00
(PID.TID 0000.0001) %MON forcing_qsw_sd               =   0.0000000000000E+00
(PID.TID 0000.0001) %MON forcing_qsw_del2             =   0.0000000000000E+00
(PID.TID 0000.0001) %MON forcing_empmr_max            =   2.5639979168773E-02
(PID.TID 0000.0001) %MON forcing_empmr_min            =  -5.9808814525604E-01
(PID.TID 0000.0001) %MON forcing_empmr_mean           =  -6.4586638814104E-04
(PID.TID 0000.0001) %MON forcing_empmr_sd             =   1.1908980008502E-02
(PID.TID 0000.0001) %MON forcing_empmr_del2           =   4.7212144352216E-04
(PID.TID 0000.0001) %MON forcing_fu_max               =   5.6346533419467E-01
(PID.TID 0000.0001) %MON forcing_fu_min               =  -4.3181161802186E-01
(PID.TID 0000.0001) %MON forcing_fu_mean              =  -4.0123567798204E-03
(PID.TID 0000.0001) %MON forcing_fu_sd                =   6.7976379318755E-02
(PID.TID 0000.0001) %MON forcing_fu_del2              =   6.7433384596802E-04
(PID.TID 0000.0001) %MON forcing_fv_max               =   3.1438595575216E-01
(PID.TID 0000.0001) %MON forcing_fv_min               =  -3.1472663669592E-01
(PID.TID 0000.0001) %MON forcing_fv_mean              =  -1.3044037006942E-02
(PID.TID 0000.0001) %MON forcing_fv_sd                =   6.5077964518834E-02
(PID.TID 0000.0001) %MON forcing_fv_del2              =   5.4246701088047E-04
(PID.TID 0000.0001) %MON trAdv_CFL_u_max              =   9.3947493670724E-05
(PID.TID 0000.0001) %MON trAdv_CFL_v_max              =   1.4255276625191E-04
(PID.TID 0000.0001) %MON trAdv_CFL_w_max              =   2.5548938657051E-04
(PID.TID 0000.0001) %MON advcfl_uvel_max              =   9.9950311981704E-05
(PID.TID 0000.0001) %MON advcfl_vvel_max              =   8.2464302886020E-05
(PID.TID 0000.0001) %MON advcfl_wvel_max              =   5.7786294227637E-04
(PID.TID 0000.0001) %MON advcfl_W_hf_max              =   2.5548938657051E-04
(PID.TID 0000.0001) %MON pe_b_mean                    =   5.4622259225704E-04
(PID.TID 0000.0001) %MON ke_max                       =   5.0105968268759E-01
(PID.TID 0000.0001) %MON ke_mean                      =   1.6372935520082E-04
(PID.TID 0000.0001) %MON ke_vol                       =   1.3398061832443E+18
(PID.TID 0000.0001) %MON vort_r_min                   =  -3.1181696701094E-06
(PID.TID 0000.0001) %MON vort_r_max                   =   3.1061268368310E-06
(PID.TID 0000.0001) %MON vort_a_mean                  =  -2.0549865324846E-05
(PID.TID 0000.0001) %MON vort_a_sd                    =   7.5259527061860E-05
(PID.TID 0000.0001) %MON vort_p_mean                  =  -2.4783417264282E-05
(PID.TID 0000.0001) %MON vort_p_sd                    =   1.2811955795398E-04
(PID.TID 0000.0001) %MON surfExpan_theta_mean         =  -6.8265613146902E-06
(PID.TID 0000.0001) %MON surfExpan_salt_mean          =   8.2753002873681E-07
(PID.TID 0000.0001) // =======================================================
(PID.TID 0000.0001) // End MONITOR dynamic field statistics
(PID.TID 0000.0001) // =======================================================
 cg2d: Sum(rhs),rhsMax =  -5.34391633581524E+00  2.15040501764311E+05
(PID.TID 0000.0001)      cg2d_init_res =   6.51925973142416E-03
(PID.TID 0000.0001)      cg2d_iters(min,last) =      -1       1
(PID.TID 0000.0001)      cg2d_last_res =   6.11826060791018E-08
(PID.TID 0000.0001) // =======================================================
(PID.TID 0000.0001) // Begin MONITOR dynamic field statistics
(PID.TID 0000.0001) // =======================================================
(PID.TID 0000.0001) %MON time_tsnumber                =                 72133
(PID.TID 0000.0001) %MON time_secondsf                =   1.8033250000000E+06
(PID.TID 0000.0001) %MON dynstat_eta_max              =   8.0013949549502E+00
(PID.TID 0000.0001) %MON dynstat_eta_min              =  -1.6194343526093E+00
(PID.TID 0000.0001) %MON dynstat_eta_mean             =   1.0303293863485E-02
(PID.TID 0000.0001) %MON dynstat_eta_sd               =   6.4011277451960E-01
(PID.TID 0000.0001) %MON dynstat_eta_del2             =   6.9493773147664E-03
(PID.TID 0000.0001) %MON dynstat_uvel_max             =   1.0863722246293E+00
(PID.TID 0000.0001) %MON dynstat_uvel_min             =  -5.4582057061669E-01
(PID.TID 0000.0001) %MON dynstat_uvel_mean            =  -4.1341648336180E-04
(PID.TID 0000.0001) %MON dynstat_uvel_sd              =   1.3033899276480E-02
(PID.TID 0000.0001) %MON dynstat_uvel_del2            =   1.0499493200792E-04
(PID.TID 0000.0001) %MON dynstat_vvel_max             =   9.1552486542039E-01
(PID.TID 0000.0001) %MON dynstat_vvel_min             =  -8.9639085627605E-01
(PID.TID 0000.0001) %MON dynstat_vvel_mean            =  -3.6737980830804E-04
(PID.TID 0000.0001) %MON dynstat_vvel_sd              =   1.3598125137633E-02
(PID.TID 0000.0001) %MON dynstat_vvel_del2            =   1.4518328503282E-04
(PID.TID 0000.0001) %MON dynstat_wvel_max             =   1.0377963042338E-04
(PID.TID 0000.0001) %MON dynstat_wvel_min             =  -1.0770503121925E-03
(PID.TID 0000.0001) %MON dynstat_wvel_mean            =  -2.7299649836277E-07
(PID.TID 0000.0001) %MON dynstat_wvel_sd              =   1.1645454838156E-05
(PID.TID 0000.0001) %MON dynstat_wvel_del2            =   1.0285254690532E-07
(PID.TID 0000.0001) %MON dynstat_theta_max            =   3.0925156121255E+01
(PID.TID 0000.0001) %MON dynstat_theta_min            =  -3.0167269019244E+00
(PID.TID 0000.0001) %MON dynstat_theta_mean           =   3.9089587141801E+00
(PID.TID 0000.0001) %MON dynstat_theta_sd             =   4.5706540403240E+00
(PID.TID 0000.0001) %MON dynstat_theta_del2           =   2.6541803168085E-03
(PID.TID 0000.0001) %MON dynstat_salt_max             =   4.1376629331721E+01
(PID.TID 0000.0001) %MON dynstat_salt_min             =   1.8518416912844E+01
(PID.TID 0000.0001) %MON dynstat_salt_mean            =   3.4772182158337E+01
(PID.TID 0000.0001) %MON dynstat_salt_sd              =   5.3095659662724E-01
(PID.TID 0000.0001) %MON dynstat_salt_del2            =   8.0505238473576E-04
(PID.TID 0000.0001) %MON dynstat_sst_max              =   3.0925156121255E+01
(PID.TID 0000.0001) %MON dynstat_sst_min              =  -1.8998581780178E+00
(PID.TID 0000.0001) %MON dynstat_sst_mean             =   1.8100633824248E+01
(PID.TID 0000.0001) %MON dynstat_sst_sd               =   9.7999527986218E+00
(PID.TID 0000.0001) %MON dynstat_sst_del2             =   1.5317194139329E-02
(PID.TID 0000.0001) %MON dynstat_sss_max              =   4.1376629331721E+01
(PID.TID 0000.0001) %MON dynstat_sss_min              =   1.8751370124746E+01
(PID.TID 0000.0001) %MON dynstat_sss_mean             =   3.4640843978852E+01
(PID.TID 0000.0001) %MON dynstat_sss_sd               =   1.4576207207469E+00
(PID.TID 0000.0001) %MON dynstat_sss_del2             =   8.0487700951561E-03
(PID.TID 0000.0001) %MON forcing_qnet_max             =   2.3227263671875E+04
(PID.TID 0000.0001) %MON forcing_qnet_min             =  -9.2005195312500E+03
(PID.TID 0000.0001) %MON forcing_qnet_mean            =  -1.5359445368156E+02
(PID.TID 0000.0001) %MON forcing_qnet_sd              =   7.8659982308759E+02
(PID.TID 0000.0001) %MON forcing_qnet_del2            =   2.8705102976422E+01
(PID.TID 0000.0001) %MON forcing_qsw_max              =   0.0000000000000E+00
(PID.TID 0000.0001) %MON forcing_qsw_min              =   0.0000000000000E+00
(PID.TID 0000.0001) %MON forcing_qsw_mean             =   0.0000000000000E+00
(PID.TID 0000.0001) %MON forcing_qsw_sd               =   0.0000000000000E+00
(PID.TID 0000.0001) %MON forcing_qsw_del2             =   0.0000000000000E+00
(PID.TID 0000.0001) %MON forcing_empmr_max            =   2.5466790422797E-02
(PID.TID 0000.0001) %MON forcing_empmr_min            =  -5.9665298461914E-01
(PID.TID 0000.0001) %MON forcing_empmr_mean           =  -6.4548794977877E-04
(PID.TID 0000.0001) %MON forcing_empmr_sd             =   1.1888495071292E-02
(PID.TID 0000.0001) %MON forcing_empmr_del2           =   4.7132505315977E-04
(PID.TID 0000.0001) %MON forcing_fu_max               =   5.6346533419467E-01
(PID.TID 0000.0001) %MON forcing_fu_min               =  -4.3181161802186E-01
(PID.TID 0000.0001) %MON forcing_fu_mean              =  -4.0123567798204E-03
(PID.TID 0000.0001) %MON forcing_fu_sd                =   6.7976379318755E-02
(PID.TID 0000.0001) %MON forcing_fu_del2              =   6.7433384596802E-04
(PID.TID 0000.0001) %MON forcing_fv_max               =   3.1438595575216E-01
(PID.TID 0000.0001) %MON forcing_fv_min               =  -3.1472663669592E-01
(PID.TID 0000.0001) %MON forcing_fv_mean              =  -1.3044037006942E-02
(PID.TID 0000.0001) %MON forcing_fv_sd                =   6.5077964518834E-02
(PID.TID 0000.0001) %MON forcing_fv_del2              =   5.4246701088047E-04
(PID.TID 0000.0001) %MON trAdv_CFL_u_max              =   9.4603037135454E-05
(PID.TID 0000.0001) %MON trAdv_CFL_v_max              =   1.4338257069606E-04
(PID.TID 0000.0001) %MON trAdv_CFL_w_max              =   2.5470608139240E-04
(PID.TID 0000.0001) %MON advcfl_uvel_max              =   1.0063327349112E-04
(PID.TID 0000.0001) %MON advcfl_vvel_max              =   8.2991433113775E-05
(PID.TID 0000.0001) %MON advcfl_wvel_max              =   5.7647631364168E-04
(PID.TID 0000.0001) %MON advcfl_W_hf_max              =   2.5470608139240E-04
(PID.TID 0000.0001) %MON pe_b_mean                    =   5.4599510846350E-04
(PID.TID 0000.0001) %MON ke_max                       =   5.0794410507602E-01
(PID.TID 0000.0001) %MON ke_mean                      =   1.6396792986323E-04
(PID.TID 0000.0001) %MON ke_vol                       =   1.3398061889212E+18
(PID.TID 0000.0001) %MON vort_r_min                   =  -3.1390543983377E-06
(PID.TID 0000.0001) %MON vort_r_max                   =   3.1256333827120E-06
(PID.TID 0000.0001) %MON vort_a_mean                  =  -2.0549865324846E-05
(PID.TID 0000.0001) %MON vort_a_sd                    =   7.5259527148575E-05
(PID.TID 0000.0001) %MON vort_p_mean                  =  -2.4783417123278E-05
(PID.TID 0000.0001) %MON vort_p_sd                    =   1.2811955621932E-04
(PID.TID 0000.0001) %MON surfExpan_theta_mean         =  -6.8429558454087E-06
(PID.TID 0000.0001) %MON surfExpan_salt_mean          =   8.3103542305722E-07
(PID.TID 0000.0001) // =======================================================
(PID.TID 0000.0001) // End MONITOR dynamic field statistics
(PID.TID 0000.0001) // =======================================================
 cg2d: Sum(rhs),rhsMax =  -5.35991514881979E+00  2.14722905322685E+05
(PID.TID 0000.0001)      cg2d_init_res =   6.54087707350676E-03
(PID.TID 0000.0001)      cg2d_iters(min,last) =      -1       1
(PID.TID 0000.0001)      cg2d_last_res =   6.13813356022903E-08
(PID.TID 0000.0001) // =======================================================
(PID.TID 0000.0001) // Begin MONITOR dynamic field statistics
(PID.TID 0000.0001) // =======================================================
(PID.TID 0000.0001) %MON time_tsnumber                =                 72134
(PID.TID 0000.0001) %MON time_secondsf                =   1.8033500000000E+06
(PID.TID 0000.0001) %MON dynstat_eta_max              =   7.9869887195822E+00
(PID.TID 0000.0001) %MON dynstat_eta_min              =  -1.6194710951490E+00
(PID.TID 0000.0001) %MON dynstat_eta_mean             =   1.0318877601205E-02
(PID.TID 0000.0001) %MON dynstat_eta_sd               =   6.3997937769198E-01
(PID.TID 0000.0001) %MON dynstat_eta_del2             =   6.9282514661631E-03
(PID.TID 0000.0001) %MON dynstat_uvel_max             =   1.0937271589582E+00
(PID.TID 0000.0001) %MON dynstat_uvel_min             =  -5.4847052215119E-01
(PID.TID 0000.0001) %MON dynstat_uvel_mean            =  -4.1257616423857E-04
(PID.TID 0000.0001) %MON dynstat_uvel_sd              =   1.3044329557233E-02
(PID.TID 0000.0001) %MON dynstat_uvel_del2            =   1.0547076770861E-04
(PID.TID 0000.0001) %MON dynstat_vvel_max             =   9.2131694330736E-01
(PID.TID 0000.0001) %MON dynstat_vvel_min             =  -9.0240101333725E-01
(PID.TID 0000.0001) %MON dynstat_vvel_mean            =  -3.6713375457075E-04
(PID.TID 0000.0001) %MON dynstat_vvel_sd              =   1.3607109186404E-02
(PID.TID 0000.0001) %MON dynstat_vvel_del2            =   1.4590305110849E-04
(PID.TID 0000.0001) %MON dynstat_wvel_max             =   1.0378555530878E-04
(PID.TID 0000.0001) %MON dynstat_wvel_min             =  -1.0781596040773E-03
(PID.TID 0000.0001) %MON dynstat_wvel_mean            =  -2.7505063664469E-07
(PID.TID 0000.0001) %MON dynstat_wvel_sd              =   1.1668012636910E-05
(PID.TID 0000.0001) %MON dynstat_wvel_del2            =   1.0293521475952E-07
(PID.TID 0000.0001) %MON dynstat_theta_max            =   3.0925150134067E+01
(PID.TID 0000.0001) %MON dynstat_theta_min            =  -3.0167047557447E+00
(PID.TID 0000.0001) %MON dynstat_theta_mean           =   3.9089590428348E+00
(PID.TID 0000.0001) %MON dynstat_theta_sd             =   4.5706551239528E+00
(PID.TID 0000.0001) %MON dynstat_theta_del2           =   2.6541674642781E-03
(PID.TID 0000.0001) %MON dynstat_salt_max             =   4.1376615472664E+01
(PID.TID 0000.0001) %MON dynstat_salt_min             =   1.8518417180218E+01
(PID.TID 0000.0001) %MON dynstat_salt_mean            =   3.4772181954986E+01
(PID.TID 0000.0001) %MON dynstat_salt_sd              =   5.3095698915525E-01
(PID.TID 0000.0001) %MON dynstat_salt_del2            =   8.0509997889473E-04
(PID.TID 0000.0001) %MON dynstat_sst_max              =   3.0925150134067E+01
(PID.TID 0000.0001) %MON dynstat_sst_min              =  -1.8998570488972E+00
(PID.TID 0000.0001) %MON dynstat_sst_mean             =   1.8100652750508E+01
(PID.TID 0000.0001) %MON dynstat_sst_sd               =   9.7999575162478E+00
(PID.TID 0000.0001) %MON dynstat_sst_del2             =   1.5316887123925E-02
(PID.TID 0000.0001) %MON dynstat_sss_max              =   4.1376615472664E+01
(PID.TID 0000.0001) %MON dynstat_sss_min              =   1.8751370166095E+01
(PID.TID 0000.0001) %MON dynstat_sss_mean             =   3.4640829456811E+01
(PID.TID 0000.0001) %MON dynstat_sss_sd               =   1.4576297737900E+00
(PID.TID 0000.0001) %MON dynstat_sss_del2             =   8.0495191559257E-03
(PID.TID 0000.0001) %MON forcing_qnet_max             =   2.2886093750000E+04
(PID.TID 0000.0001) %MON forcing_qnet_min             =  -9.1517890625000E+03
(PID.TID 0000.0001) %MON forcing_qnet_mean            =  -1.5245312915799E+02
(PID.TID 0000.0001) %MON forcing_qnet_sd              =   7.7608742158177E+02
(PID.TID 0000.0001) %MON forcing_qnet_del2            =   2.8273404950767E+01
(PID.TID 0000.0001) %MON forcing_qsw_max              =   0.0000000000000E+00
(PID.TID 0000.0001) %MON forcing_qsw_min              =   0.0000000000000E+00
(PID.TID 0000.0001) %MON forcing_qsw_mean             =   0.0000000000000E+00
(PID.TID 0000.0001) %MON forcing_qsw_sd               =   0.0000000000000E+00
(PID.TID 0000.0001) %MON forcing_qsw_del2             =   0.0000000000000E+00
(PID.TID 0000.0001) %MON forcing_empmr_max            =   2.5293599814177E-02
(PID.TID 0000.0001) %MON forcing_empmr_min            =  -5.9521794319153E-01
(PID.TID 0000.0001) %MON forcing_empmr_mean           =  -6.4516674159508E-04
(PID.TID 0000.0001) %MON forcing_empmr_sd             =   1.1868703100290E-02
(PID.TID 0000.0001) %MON forcing_empmr_del2           =   4.7055467697848E-04
(PID.TID 0000.0001) %MON forcing_fu_max               =   5.6346533419467E-01
(PID.TID 0000.0001) %MON forcing_fu_min               =  -4.3181161802186E-01
(PID.TID 0000.0001) %MON forcing_fu_mean              =  -4.0123567798204E-03
(PID.TID 0000.0001) %MON forcing_fu_sd                =   6.7976379318755E-02
(PID.TID 0000.0001) %MON forcing_fu_del2              =   6.7433384596802E-04
(PID.TID 0000.0001) %MON forcing_fv_max               =   3.1438595575216E-01
(PID.TID 0000.0001) %MON forcing_fv_min               =  -3.1472663669592E-01
(PID.TID 0000.0001) %MON forcing_fv_mean              =  -1.3044037006942E-02
(PID.TID 0000.0001) %MON forcing_fv_sd                =   6.5077964518834E-02
(PID.TID 0000.0001) %MON forcing_fv_del2              =   5.4246701088047E-04
(PID.TID 0000.0001) %MON trAdv_CFL_u_max              =   9.5257273365202E-05
(PID.TID 0000.0001) %MON trAdv_CFL_v_max              =   1.4420669570290E-04
(PID.TID 0000.0001) %MON trAdv_CFL_w_max              =   2.5392317664652E-04
(PID.TID 0000.0001) %MON advcfl_uvel_max              =   1.0131457875745E-04
(PID.TID 0000.0001) %MON advcfl_vvel_max              =   8.3516479306077E-05
(PID.TID 0000.0001) %MON advcfl_wvel_max              =   5.7508980018505E-04
(PID.TID 0000.0001) %MON advcfl_W_hf_max              =   2.5392317664652E-04
(PID.TID 0000.0001) %MON pe_b_mean                    =   5.4576805072665E-04
(PID.TID 0000.0001) %MON ke_max                       =   5.1485794840167E-01
(PID.TID 0000.0001) %MON ke_mean                      =   1.6420586936812E-04
(PID.TID 0000.0001) %MON ke_vol                       =   1.3398061945947E+18
(PID.TID 0000.0001) %MON vort_r_min                   =  -3.1598431104953E-06
(PID.TID 0000.0001) %MON vort_r_max                   =   3.1450526185843E-06
(PID.TID 0000.0001) %MON vort_a_mean                  =  -2.0549865324846E-05
(PID.TID 0000.0001) %MON vort_a_sd                    =   7.5259527234780E-05
(PID.TID 0000.0001) %MON vort_p_mean                  =  -2.4783416982137E-05
(PID.TID 0000.0001) %MON vort_p_sd                    =   1.2811955447826E-04
(PID.TID 0000.0001) %MON surfExpan_theta_mean         =  -6.8595290573774E-06
(PID.TID 0000.0001) %MON surfExpan_salt_mean          =   8.3462186254607E-07
(PID.TID 0000.0001) // =======================================================
(PID.TID 0000.0001) // End MONITOR dynamic field statistics
(PID.TID 0000.0001) // =======================================================
 cg2d: Sum(rhs),rhsMax =  -5.37600943686202E+00  2.14403219780571E+05
(PID.TID 0000.0001)      cg2d_init_res =   6.56229790961059E-03
(PID.TID 0000.0001)      cg2d_iters(min,last) =      -1       1
(PID.TID 0000.0001)      cg2d_last_res =   6.15814484425775E-08
(PID.TID 0000.0001) // =======================================================
(PID.TID 0000.0001) // Begin MONITOR dynamic field statistics
(PID.TID 0000.0001) // =======================================================
(PID.TID 0000.0001) %MON time_tsnumber                =                 72135
(PID.TID 0000.0001) %MON time_secondsf                =   1.8033750000000E+06
(PID.TID 0000.0001) %MON dynstat_eta_max              =   7.9724893693769E+00
(PID.TID 0000.0001) %MON dynstat_eta_min              =  -1.6195082029761E+00
(PID.TID 0000.0001) %MON dynstat_eta_mean             =   1.0334453063345E-02
(PID.TID 0000.0001) %MON dynstat_eta_sd               =   6.3984621352283E-01
(PID.TID 0000.0001) %MON dynstat_eta_del2             =   6.9070630143132E-03
(PID.TID 0000.0001) %MON dynstat_uvel_max             =   1.1010640891830E+00
(PID.TID 0000.0001) %MON dynstat_uvel_min             =  -5.5111508556041E-01
(PID.TID 0000.0001) %MON dynstat_uvel_mean            =  -4.1173262869599E-04
(PID.TID 0000.0001) %MON dynstat_uvel_sd              =   1.3054733027474E-02
(PID.TID 0000.0001) %MON dynstat_uvel_del2            =   1.0594493280056E-04
(PID.TID 0000.0001) %MON dynstat_vvel_max             =   9.2708598699507E-01
(PID.TID 0000.0001) %MON dynstat_vvel_min             =  -9.0839735401847E-01
(PID.TID 0000.0001) %MON dynstat_vvel_mean            =  -3.6689019434605E-04
(PID.TID 0000.0001) %MON dynstat_vvel_sd              =   1.3616053038570E-02
(PID.TID 0000.0001) %MON dynstat_vvel_del2            =   1.4661869157719E-04
(PID.TID 0000.0001) %MON dynstat_wvel_max             =   1.0379149849137E-04
(PID.TID 0000.0001) %MON dynstat_wvel_min             =  -1.0791644319362E-03
(PID.TID 0000.0001) %MON dynstat_wvel_mean            =  -2.7711086634995E-07
(PID.TID 0000.0001) %MON dynstat_wvel_sd              =   1.1689932691131E-05
(PID.TID 0000.0001) %MON dynstat_wvel_del2            =   1.0301549701513E-07
(PID.TID 0000.0001) %MON dynstat_theta_max            =   3.0925144147615E+01
(PID.TID 0000.0001) %MON dynstat_theta_min            =  -3.0166823648930E+00
(PID.TID 0000.0001) %MON dynstat_theta_mean           =   3.9089593697410E+00
(PID.TID 0000.0001) %MON dynstat_theta_sd             =   4.5706562015915E+00
(PID.TID 0000.0001) %MON dynstat_theta_del2           =   2.6541546935312E-03
(PID.TID 0000.0001) %MON dynstat_salt_max             =   4.1376601418306E+01
(PID.TID 0000.0001) %MON dynstat_salt_min             =   1.8518417447569E+01
(PID.TID 0000.0001) %MON dynstat_salt_mean            =   3.4772181751827E+01
(PID.TID 0000.0001) %MON dynstat_salt_sd              =   5.3095738233462E-01
(PID.TID 0000.0001) %MON dynstat_salt_del2            =   8.0514794736718E-04
(PID.TID 0000.0001) %MON dynstat_sst_max              =   3.0925144147615E+01
(PID.TID 0000.0001) %MON dynstat_sst_min              =  -1.8998559181430E+00
(PID.TID 0000.0001) %MON dynstat_sst_mean             =   1.8100671520389E+01
(PID.TID 0000.0001) %MON dynstat_sst_sd               =   9.7999622417194E+00
(PID.TID 0000.0001) %MON dynstat_sst_del2             =   1.5316582399126E-02
(PID.TID 0000.0001) %MON dynstat_sss_max              =   4.1376601418306E+01
(PID.TID 0000.0001) %MON dynstat_sss_min              =   1.8751370207452E+01
(PID.TID 0000.0001) %MON dynstat_sss_mean             =   3.4640814945748E+01
(PID.TID 0000.0001) %MON dynstat_sss_sd               =   1.4576388433547E+00
(PID.TID 0000.0001) %MON dynstat_sss_del2             =   8.0502740845654E-03
(PID.TID 0000.0001) %MON forcing_qnet_max             =   2.2544919921875E+04
(PID.TID 0000.0001) %MON forcing_qnet_min             =  -9.1030585937500E+03
(PID.TID 0000.0001) %MON forcing_qnet_mean            =  -1.5139712797126E+02
(PID.TID 0000.0001) %MON forcing_qnet_sd              =   7.6613770146998E+02
(PID.TID 0000.0001) %MON forcing_qnet_del2            =   2.7865137046114E+01
(PID.TID 0000.0001) %MON forcing_qsw_max              =   0.0000000000000E+00
(PID.TID 0000.0001) %MON forcing_qsw_min              =   0.0000000000000E+00
(PID.TID 0000.0001) %MON forcing_qsw_mean             =   0.0000000000000E+00
(PID.TID 0000.0001) %MON forcing_qsw_sd               =   0.0000000000000E+00
(PID.TID 0000.0001) %MON forcing_qsw_del2             =   0.0000000000000E+00
(PID.TID 0000.0001) %MON forcing_empmr_max            =   2.5124439969659E-02
(PID.TID 0000.0001) %MON forcing_empmr_min            =  -5.9378278255463E-01
(PID.TID 0000.0001) %MON forcing_empmr_mean           =  -6.4482413261036E-04
(PID.TID 0000.0001) %MON forcing_empmr_sd             =   1.1848900471172E-02
(PID.TID 0000.0001) %MON forcing_empmr_del2           =   4.6979097004791E-04
(PID.TID 0000.0001) %MON forcing_fu_max               =   5.6346533419467E-01
(PID.TID 0000.0001) %MON forcing_fu_min               =  -4.3181161802186E-01
(PID.TID 0000.0001) %MON forcing_fu_mean              =  -4.0123567798204E-03
(PID.TID 0000.0001) %MON forcing_fu_sd                =   6.7976379318755E-02
(PID.TID 0000.0001) %MON forcing_fu_del2              =   6.7433384596802E-04
(PID.TID 0000.0001) %MON forcing_fv_max               =   3.1438595575216E-01
(PID.TID 0000.0001) %MON forcing_fv_min               =  -3.1472663669592E-01
(PID.TID 0000.0001) %MON forcing_fv_mean              =  -1.3044037006942E-02
(PID.TID 0000.0001) %MON forcing_fv_sd                =   6.5077964518834E-02
(PID.TID 0000.0001) %MON forcing_fv_del2              =   5.4246701088047E-04
(PID.TID 0000.0001) %MON trAdv_CFL_u_max              =   9.5910191423448E-05
(PID.TID 0000.0001) %MON trAdv_CFL_v_max              =   1.4502512228450E-04
(PID.TID 0000.0001) %MON trAdv_CFL_w_max              =   2.5314058121919E-04
(PID.TID 0000.0001) %MON advcfl_uvel_max              =   1.0199421626028E-04
(PID.TID 0000.0001) %MON advcfl_vvel_max              =   8.4039437470756E-05
(PID.TID 0000.0001) %MON advcfl_wvel_max              =   5.7370317155036E-04
(PID.TID 0000.0001) %MON advcfl_W_hf_max              =   2.5314058121919E-04
(PID.TID 0000.0001) %MON pe_b_mean                    =   5.4554143745553E-04
(PID.TID 0000.0001) %MON ke_max                       =   5.2180077264373E-01
(PID.TID 0000.0001) %MON ke_mean                      =   1.6444315521520E-04
(PID.TID 0000.0001) %MON ke_vol                       =   1.3398062002655E+18
(PID.TID 0000.0001) %MON vort_r_min                   =  -3.1805353888257E-06
(PID.TID 0000.0001) %MON vort_r_max                   =   3.1643843564675E-06
(PID.TID 0000.0001) %MON vort_a_mean                  =  -2.0549865324846E-05
(PID.TID 0000.0001) %MON vort_a_sd                    =   7.5259527320465E-05
(PID.TID 0000.0001) %MON vort_p_mean                  =  -2.4783416840851E-05
(PID.TID 0000.0001) %MON vort_p_sd                    =   1.2811955273089E-04
(PID.TID 0000.0001) %MON surfExpan_theta_mean         =  -6.8763881119376E-06
(PID.TID 0000.0001) %MON surfExpan_salt_mean          =   8.3822515050114E-07
(PID.TID 0000.0001) // =======================================================
(PID.TID 0000.0001) // End MONITOR dynamic field statistics
(PID.TID 0000.0001) // =======================================================
 cg2d: Sum(rhs),rhsMax =  -5.39219927934909E+00  2.14081451553431E+05
(PID.TID 0000.0001)      cg2d_init_res =   6.58353697364363E-03
(PID.TID 0000.0001)      cg2d_iters(min,last) =      -1       1
(PID.TID 0000.0001)      cg2d_last_res =   6.17832746196307E-08
(PID.TID 0000.0001) // =======================================================
(PID.TID 0000.0001) // Begin MONITOR dynamic field statistics
(PID.TID 0000.0001) // =======================================================
(PID.TID 0000.0001) %MON time_tsnumber                =                 72136
(PID.TID 0000.0001) %MON time_secondsf                =   1.8034000000000E+06
(PID.TID 0000.0001) %MON dynstat_eta_max              =   7.9578972337752E+00
(PID.TID 0000.0001) %MON dynstat_eta_min              =  -1.6195456603649E+00
(PID.TID 0000.0001) %MON dynstat_eta_mean             =   1.0350018987136E-02
(PID.TID 0000.0001) %MON dynstat_eta_sd               =   6.3971329011220E-01
(PID.TID 0000.0001) %MON dynstat_eta_del2             =   6.8858127364913E-03
(PID.TID 0000.0001) %MON dynstat_uvel_max             =   1.1083828920513E+00
(PID.TID 0000.0001) %MON dynstat_uvel_min             =  -5.5375423790542E-01
(PID.TID 0000.0001) %MON dynstat_uvel_mean            =  -4.1088591453583E-04
(PID.TID 0000.0001) %MON dynstat_uvel_sd              =   1.3065108752900E-02
(PID.TID 0000.0001) %MON dynstat_uvel_del2            =   1.0641740367896E-04
(PID.TID 0000.0001) %MON dynstat_vvel_max             =   9.3283195323829E-01
(PID.TID 0000.0001) %MON dynstat_vvel_min             =  -9.1437978853777E-01
(PID.TID 0000.0001) %MON dynstat_vvel_mean            =  -3.6664915486442E-04
(PID.TID 0000.0001) %MON dynstat_vvel_sd              =   1.3624956298834E-02
(PID.TID 0000.0001) %MON dynstat_vvel_del2            =   1.4733018940567E-04
(PID.TID 0000.0001) %MON dynstat_wvel_max             =   1.0379746002810E-04
(PID.TID 0000.0001) %MON dynstat_wvel_min             =  -1.0800650844451E-03
(PID.TID 0000.0001) %MON dynstat_wvel_mean            =  -2.7917502555876E-07
(PID.TID 0000.0001) %MON dynstat_wvel_sd              =   1.1711239215458E-05
(PID.TID 0000.0001) %MON dynstat_wvel_del2            =   1.0309113587283E-07
(PID.TID 0000.0001) %MON dynstat_theta_max            =   3.0925138161898E+01
(PID.TID 0000.0001) %MON dynstat_theta_min            =  -3.0166597310852E+00
(PID.TID 0000.0001) %MON dynstat_theta_mean           =   3.9089596948862E+00
(PID.TID 0000.0001) %MON dynstat_theta_sd             =   4.5706572733809E+00
(PID.TID 0000.0001) %MON dynstat_theta_del2           =   2.6541419810349E-03
(PID.TID 0000.0001) %MON dynstat_salt_max             =   4.1376587369760E+01
(PID.TID 0000.0001) %MON dynstat_salt_min             =   1.8518417714894E+01
(PID.TID 0000.0001) %MON dynstat_salt_mean            =   3.4772181548936E+01
(PID.TID 0000.0001) %MON dynstat_salt_sd              =   5.3095777617224E-01
(PID.TID 0000.0001) %MON dynstat_salt_del2            =   8.0519628915985E-04
(PID.TID 0000.0001) %MON dynstat_sst_max              =   3.0925138161898E+01
(PID.TID 0000.0001) %MON dynstat_sst_min              =  -1.8998547857430E+00
(PID.TID 0000.0001) %MON dynstat_sst_mean             =   1.8100690135022E+01
(PID.TID 0000.0001) %MON dynstat_sst_sd               =   9.7999669796666E+00
(PID.TID 0000.0001) %MON dynstat_sst_del2             =   1.5316279321942E-02
(PID.TID 0000.0001) %MON dynstat_sss_max              =   4.1376587369760E+01
(PID.TID 0000.0001) %MON dynstat_sss_min              =   1.8751370248813E+01
(PID.TID 0000.0001) %MON dynstat_sss_mean             =   3.4640800451222E+01
(PID.TID 0000.0001) %MON dynstat_sss_sd               =   1.4576479301853E+00
(PID.TID 0000.0001) %MON dynstat_sss_del2             =   8.0510348661094E-03
(PID.TID 0000.0001) %MON forcing_qnet_max             =   2.2223244140625E+04
(PID.TID 0000.0001) %MON forcing_qnet_min             =  -9.0543271484375E+03
(PID.TID 0000.0001) %MON forcing_qnet_mean            =  -1.5033846795035E+02
(PID.TID 0000.0001) %MON forcing_qnet_sd              =   7.5655619151768E+02
(PID.TID 0000.0001) %MON forcing_qnet_del2            =   2.7480317382255E+01
(PID.TID 0000.0001) %MON forcing_qsw_max              =   0.0000000000000E+00
(PID.TID 0000.0001) %MON forcing_qsw_min              =   0.0000000000000E+00
(PID.TID 0000.0001) %MON forcing_qsw_mean             =   0.0000000000000E+00
(PID.TID 0000.0001) %MON forcing_qsw_sd               =   0.0000000000000E+00
(PID.TID 0000.0001) %MON forcing_qsw_del2             =   0.0000000000000E+00
(PID.TID 0000.0001) %MON forcing_empmr_max            =   2.4951253086329E-02
(PID.TID 0000.0001) %MON forcing_empmr_min            =  -5.9234768152237E-01
(PID.TID 0000.0001) %MON forcing_empmr_mean           =  -6.4442924494425E-04
(PID.TID 0000.0001) %MON forcing_empmr_sd             =   1.1828858332673E-02
(PID.TID 0000.0001) %MON forcing_empmr_del2           =   4.6901647358483E-04
(PID.TID 0000.0001) %MON forcing_fu_max               =   5.6346533419467E-01
(PID.TID 0000.0001) %MON forcing_fu_min               =  -4.3181161802186E-01
(PID.TID 0000.0001) %MON forcing_fu_mean              =  -4.0123567798204E-03
(PID.TID 0000.0001) %MON forcing_fu_sd                =   6.7976379318755E-02
(PID.TID 0000.0001) %MON forcing_fu_del2              =   6.7433384596802E-04
(PID.TID 0000.0001) %MON forcing_fv_max               =   3.1438595575216E-01
(PID.TID 0000.0001) %MON forcing_fv_min               =  -3.1472663669592E-01
(PID.TID 0000.0001) %MON forcing_fv_mean              =  -1.3044037006942E-02
(PID.TID 0000.0001) %MON forcing_fv_sd                =   6.5077964518834E-02
(PID.TID 0000.0001) %MON forcing_fv_del2              =   5.4246701088047E-04
(PID.TID 0000.0001) %MON trAdv_CFL_u_max              =   9.6561780437843E-05
(PID.TID 0000.0001) %MON trAdv_CFL_v_max              =   1.4583783169328E-04
(PID.TID 0000.0001) %MON trAdv_CFL_w_max              =   2.5235839013155E-04
(PID.TID 0000.0001) %MON advcfl_uvel_max              =   1.0267217458246E-04
(PID.TID 0000.0001) %MON advcfl_vvel_max              =   8.4560303687677E-05
(PID.TID 0000.0001) %MON advcfl_wvel_max              =   5.7231660050470E-04
(PID.TID 0000.0001) %MON advcfl_W_hf_max              =   2.5235839013155E-04
(PID.TID 0000.0001) %MON pe_b_mean                    =   5.4531528217264E-04
(PID.TID 0000.0001) %MON ke_max                       =   5.2877213678572E-01
(PID.TID 0000.0001) %MON ke_mean                      =   1.6467976945291E-04
(PID.TID 0000.0001) %MON ke_vol                       =   1.3398062059332E+18
(PID.TID 0000.0001) %MON vort_r_min                   =  -3.2011308206048E-06
(PID.TID 0000.0001) %MON vort_r_max                   =   3.1836284096359E-06
(PID.TID 0000.0001) %MON vort_a_mean                  =  -2.0549865324846E-05
(PID.TID 0000.0001) %MON vort_a_sd                    =   7.5259527405622E-05
(PID.TID 0000.0001) %MON vort_p_mean                  =  -2.4783416699428E-05
(PID.TID 0000.0001) %MON vort_p_sd                    =   1.2811955097744E-04
(PID.TID 0000.0001) %MON surfExpan_theta_mean         =  -6.8927251075905E-06
(PID.TID 0000.0001) %MON surfExpan_salt_mean          =   8.4180444364016E-07
(PID.TID 0000.0001) // =======================================================
(PID.TID 0000.0001) // End MONITOR dynamic field statistics
(PID.TID 0000.0001) // =======================================================
 cg2d: Sum(rhs),rhsMax =  -5.40848504102638E+00  2.13757607085446E+05
(PID.TID 0000.0001)      cg2d_init_res =   6.60460368796420E-03
(PID.TID 0000.0001)      cg2d_iters(min,last) =      -1       1
(PID.TID 0000.0001)      cg2d_last_res =   6.19869400870476E-08
(PID.TID 0000.0001) // =======================================================
(PID.TID 0000.0001) // Begin MONITOR dynamic field statistics
(PID.TID 0000.0001) // =======================================================
(PID.TID 0000.0001) %MON time_tsnumber                =                 72137
(PID.TID 0000.0001) %MON time_secondsf                =   1.8034250000000E+06
(PID.TID 0000.0001) %MON dynstat_eta_max              =   7.9432126435648E+00
(PID.TID 0000.0001) %MON dynstat_eta_min              =  -1.6195834511472E+00
(PID.TID 0000.0001) %MON dynstat_eta_mean             =   1.0365574650156E-02
(PID.TID 0000.0001) %MON dynstat_eta_sd               =   6.3958061818030E-01
(PID.TID 0000.0001) %MON dynstat_eta_del2             =   6.8645014667181E-03
(PID.TID 0000.0001) %MON dynstat_uvel_max             =   1.1156834454262E+00
(PID.TID 0000.0001) %MON dynstat_uvel_min             =  -5.5638795632355E-01
(PID.TID 0000.0001) %MON dynstat_uvel_mean            =  -4.1003605996643E-04
(PID.TID 0000.0001) %MON dynstat_uvel_sd              =   1.3075455818854E-02
(PID.TID 0000.0001) %MON dynstat_uvel_del2            =   1.0688815716033E-04
(PID.TID 0000.0001) %MON dynstat_vvel_max             =   9.3855479957839E-01
(PID.TID 0000.0001) %MON dynstat_vvel_min             =  -9.2034822737968E-01
(PID.TID 0000.0001) %MON dynstat_vvel_mean            =  -3.6641066226342E-04
(PID.TID 0000.0001) %MON dynstat_vvel_sd              =   1.3633818599609E-02
(PID.TID 0000.0001) %MON dynstat_vvel_del2            =   1.4803752817440E-04
(PID.TID 0000.0001) %MON dynstat_wvel_max             =   1.0380343993431E-04
(PID.TID 0000.0001) %MON dynstat_wvel_min             =  -1.0808618509401E-03
(PID.TID 0000.0001) %MON dynstat_wvel_mean            =  -2.8123367915152E-07
(PID.TID 0000.0001) %MON dynstat_wvel_sd              =   1.1731945215900E-05
(PID.TID 0000.0001) %MON dynstat_wvel_del2            =   1.0316316074817E-07
(PID.TID 0000.0001) %MON dynstat_theta_max            =   3.0925132176917E+01
(PID.TID 0000.0001) %MON dynstat_theta_min            =  -3.0166368560835E+00
(PID.TID 0000.0001) %MON dynstat_theta_mean           =   3.9089600182084E+00
(PID.TID 0000.0001) %MON dynstat_theta_sd             =   4.5706583390833E+00
(PID.TID 0000.0001) %MON dynstat_theta_del2           =   2.6541293366219E-03
(PID.TID 0000.0001) %MON dynstat_salt_max             =   4.1376573126403E+01
(PID.TID 0000.0001) %MON dynstat_salt_min             =   1.8518417982194E+01
(PID.TID 0000.0001) %MON dynstat_salt_mean            =   3.4772181346280E+01
(PID.TID 0000.0001) %MON dynstat_salt_sd              =   5.3095817062050E-01
(PID.TID 0000.0001) %MON dynstat_salt_del2            =   8.0524500777122E-04
(PID.TID 0000.0001) %MON dynstat_sst_max              =   3.0925132176917E+01
(PID.TID 0000.0001) %MON dynstat_sst_min              =  -1.8998536516859E+00
(PID.TID 0000.0001) %MON dynstat_sst_mean             =   1.8100708592034E+01
(PID.TID 0000.0001) %MON dynstat_sst_sd               =   9.7999717269404E+00
(PID.TID 0000.0001) %MON dynstat_sst_del2             =   1.5315978148476E-02
(PID.TID 0000.0001) %MON dynstat_sss_max              =   4.1376573126403E+01
(PID.TID 0000.0001) %MON dynstat_sss_min              =   1.8751370290174E+01
(PID.TID 0000.0001) %MON dynstat_sss_mean             =   3.4640785971001E+01
(PID.TID 0000.0001) %MON dynstat_sss_sd               =   1.4576570328929E+00
(PID.TID 0000.0001) %MON dynstat_sss_del2             =   8.0518015552352E-03
(PID.TID 0000.0001) %MON forcing_qnet_max             =   2.1891822265625E+04
(PID.TID 0000.0001) %MON forcing_qnet_min             =  -9.0153427734375E+03
(PID.TID 0000.0001) %MON forcing_qnet_mean            =  -1.4924697001837E+02
(PID.TID 0000.0001) %MON forcing_qnet_sd              =   7.4725712093187E+02
(PID.TID 0000.0001) %MON forcing_qnet_del2            =   2.7104406057300E+01
(PID.TID 0000.0001) %MON forcing_qsw_max              =   0.0000000000000E+00
(PID.TID 0000.0001) %MON forcing_qsw_min              =   0.0000000000000E+00
(PID.TID 0000.0001) %MON forcing_qsw_mean             =   0.0000000000000E+00
(PID.TID 0000.0001) %MON forcing_qsw_sd               =   0.0000000000000E+00
(PID.TID 0000.0001) %MON forcing_qsw_del2             =   0.0000000000000E+00
(PID.TID 0000.0001) %MON forcing_empmr_max            =   2.4786118417978E-02
(PID.TID 0000.0001) %MON forcing_empmr_min            =  -5.9093225002289E-01
(PID.TID 0000.0001) %MON forcing_empmr_mean           =  -6.4400444904438E-04
(PID.TID 0000.0001) %MON forcing_empmr_sd             =   1.1808971667788E-02
(PID.TID 0000.0001) %MON forcing_empmr_del2           =   4.6823897044072E-04
(PID.TID 0000.0001) %MON forcing_fu_max               =   5.6346533419467E-01
(PID.TID 0000.0001) %MON forcing_fu_min               =  -4.3181161802186E-01
(PID.TID 0000.0001) %MON forcing_fu_mean              =  -4.0123567798204E-03
(PID.TID 0000.0001) %MON forcing_fu_sd                =   6.7976379318755E-02
(PID.TID 0000.0001) %MON forcing_fu_del2              =   6.7433384596802E-04
(PID.TID 0000.0001) %MON forcing_fv_max               =   3.1438595575216E-01
(PID.TID 0000.0001) %MON forcing_fv_min               =  -3.1472663669592E-01
(PID.TID 0000.0001) %MON forcing_fv_mean              =  -1.3044037006942E-02
(PID.TID 0000.0001) %MON forcing_fv_sd                =   6.5077964518834E-02
(PID.TID 0000.0001) %MON forcing_fv_del2              =   5.4246701088047E-04
(PID.TID 0000.0001) %MON trAdv_CFL_u_max              =   9.7212029600430E-05
(PID.TID 0000.0001) %MON trAdv_CFL_v_max              =   1.4664480542204E-04
(PID.TID 0000.0001) %MON trAdv_CFL_w_max              =   2.5158536940907E-04
(PID.TID 0000.0001) %MON advcfl_uvel_max              =   1.0334844241015E-04
(PID.TID 0000.0001) %MON advcfl_vvel_max              =   8.5079074108005E-05
(PID.TID 0000.0001) %MON advcfl_wvel_max              =   5.7094903383854E-04
(PID.TID 0000.0001) %MON advcfl_W_hf_max              =   2.5158536940907E-04
(PID.TID 0000.0001) %MON pe_b_mean                    =   5.4508960286929E-04
(PID.TID 0000.0001) %MON ke_max                       =   5.3577159885151E-01
(PID.TID 0000.0001) %MON ke_mean                      =   1.6491569467360E-04
(PID.TID 0000.0001) %MON ke_vol                       =   1.3398062115974E+18
(PID.TID 0000.0001) %MON vort_r_min                   =  -3.2216289981138E-06
(PID.TID 0000.0001) %MON vort_r_max                   =   3.2027845926248E-06
(PID.TID 0000.0001) %MON vort_a_mean                  =  -2.0549865324846E-05
(PID.TID 0000.0001) %MON vort_a_sd                    =   7.5259527490243E-05
(PID.TID 0000.0001) %MON vort_p_mean                  =  -2.4783416557875E-05
(PID.TID 0000.0001) %MON vort_p_sd                    =   1.2811954921810E-04
(PID.TID 0000.0001) %MON surfExpan_theta_mean         =  -6.9087161982335E-06
(PID.TID 0000.0001) %MON surfExpan_salt_mean          =   8.4538735009855E-07
(PID.TID 0000.0001) // =======================================================
(PID.TID 0000.0001) // End MONITOR dynamic field statistics
(PID.TID 0000.0001) // =======================================================
 cg2d: Sum(rhs),rhsMax =  -5.42486790987779E+00  2.13431692849330E+05
(PID.TID 0000.0001)      cg2d_init_res =   6.62551712154544E-03
(PID.TID 0000.0001)      cg2d_iters(min,last) =      -1       1
(PID.TID 0000.0001)      cg2d_last_res =   6.21924673652148E-08
(PID.TID 0000.0001) // =======================================================
(PID.TID 0000.0001) // Begin MONITOR dynamic field statistics
(PID.TID 0000.0001) // =======================================================
(PID.TID 0000.0001) %MON time_tsnumber                =                 72138
(PID.TID 0000.0001) %MON time_secondsf                =   1.8034500000000E+06
(PID.TID 0000.0001) %MON dynstat_eta_max              =   7.9284359308650E+00
(PID.TID 0000.0001) %MON dynstat_eta_min              =  -1.6196215587238E+00
(PID.TID 0000.0001) %MON dynstat_eta_mean             =   1.0381120895554E-02
(PID.TID 0000.0001) %MON dynstat_eta_sd               =   6.3944820705909E-01
(PID.TID 0000.0001) %MON dynstat_eta_del2             =   6.8431300696894E-03
(PID.TID 0000.0001) %MON dynstat_uvel_max             =   1.1229656282863E+00
(PID.TID 0000.0001) %MON dynstat_uvel_min             =  -5.5901621803276E-01
(PID.TID 0000.0001) %MON dynstat_uvel_mean            =  -4.0918310326332E-04
(PID.TID 0000.0001) %MON dynstat_uvel_sd              =   1.3085773330146E-02
(PID.TID 0000.0001) %MON dynstat_uvel_del2            =   1.0735717049543E-04
(PID.TID 0000.0001) %MON dynstat_vvel_max             =   9.4425448432365E-01
(PID.TID 0000.0001) %MON dynstat_vvel_min             =  -9.2630258129283E-01
(PID.TID 0000.0001) %MON dynstat_vvel_mean            =  -3.6617474162581E-04
(PID.TID 0000.0001) %MON dynstat_vvel_sd              =   1.3642639601008E-02
(PID.TID 0000.0001) %MON dynstat_vvel_del2            =   1.4874069208481E-04
(PID.TID 0000.0001) %MON dynstat_wvel_max             =   1.0380943827605E-04
(PID.TID 0000.0001) %MON dynstat_wvel_min             =  -1.0815550220059E-03
(PID.TID 0000.0001) %MON dynstat_wvel_mean            =  -2.8330453142046E-07
(PID.TID 0000.0001) %MON dynstat_wvel_sd              =   1.1752051298530E-05
(PID.TID 0000.0001) %MON dynstat_wvel_del2            =   1.0323251542508E-07
(PID.TID 0000.0001) %MON dynstat_theta_max            =   3.0925126192669E+01
(PID.TID 0000.0001) %MON dynstat_theta_min            =  -3.0166137416937E+00
(PID.TID 0000.0001) %MON dynstat_theta_mean           =   3.9089603397466E+00
(PID.TID 0000.0001) %MON dynstat_theta_sd             =   4.5706593989806E+00
(PID.TID 0000.0001) %MON dynstat_theta_del2           =   2.6541167580822E-03
(PID.TID 0000.0001) %MON dynstat_salt_max             =   4.1376558889344E+01
(PID.TID 0000.0001) %MON dynstat_salt_min             =   1.8518418249466E+01
(PID.TID 0000.0001) %MON dynstat_salt_mean            =   3.4772181143849E+01
(PID.TID 0000.0001) %MON dynstat_salt_sd              =   5.3095856570302E-01
(PID.TID 0000.0001) %MON dynstat_salt_del2            =   8.0529410014218E-04
(PID.TID 0000.0001) %MON dynstat_sst_max              =   3.0925126192669E+01
(PID.TID 0000.0001) %MON dynstat_sst_min              =  -1.8998525159595E+00
(PID.TID 0000.0001) %MON dynstat_sst_mean             =   1.8100726895445E+01
(PID.TID 0000.0001) %MON dynstat_sst_sd               =   9.7999764879436E+00
(PID.TID 0000.0001) %MON dynstat_sst_del2             =   1.5315678820568E-02
(PID.TID 0000.0001) %MON dynstat_sss_max              =   4.1376558889344E+01
(PID.TID 0000.0001) %MON dynstat_sss_min              =   1.8751370331532E+01
(PID.TID 0000.0001) %MON dynstat_sss_mean             =   3.4640771504463E+01
(PID.TID 0000.0001) %MON dynstat_sss_sd               =   1.4576661521072E+00
(PID.TID 0000.0001) %MON dynstat_sss_del2             =   8.0525741031570E-03
(PID.TID 0000.0001) %MON forcing_qnet_max             =   2.1579896484375E+04
(PID.TID 0000.0001) %MON forcing_qnet_min             =  -8.9763574218750E+03
(PID.TID 0000.0001) %MON forcing_qnet_mean            =  -1.4817591145486E+02
(PID.TID 0000.0001) %MON forcing_qnet_sd              =   7.3831257075916E+02
(PID.TID 0000.0001) %MON forcing_qnet_del2            =   2.6741670975156E+01
(PID.TID 0000.0001) %MON forcing_qsw_max              =   0.0000000000000E+00
(PID.TID 0000.0001) %MON forcing_qsw_min              =   0.0000000000000E+00
(PID.TID 0000.0001) %MON forcing_qsw_mean             =   0.0000000000000E+00
(PID.TID 0000.0001) %MON forcing_qsw_sd               =   0.0000000000000E+00
(PID.TID 0000.0001) %MON forcing_qsw_del2             =   0.0000000000000E+00
(PID.TID 0000.0001) %MON forcing_empmr_max            =   2.4616956710815E-02
(PID.TID 0000.0001) %MON forcing_empmr_min            =  -5.8949714899063E-01
(PID.TID 0000.0001) %MON forcing_empmr_mean           =  -6.4361455945434E-04
(PID.TID 0000.0001) %MON forcing_empmr_sd             =   1.1789349075422E-02
(PID.TID 0000.0001) %MON forcing_empmr_del2           =   4.6747606025462E-04
(PID.TID 0000.0001) %MON forcing_fu_max               =   5.6346533419467E-01
(PID.TID 0000.0001) %MON forcing_fu_min               =  -4.3181161802186E-01
(PID.TID 0000.0001) %MON forcing_fu_mean              =  -4.0123567798204E-03
(PID.TID 0000.0001) %MON forcing_fu_sd                =   6.7976379318755E-02
(PID.TID 0000.0001) %MON forcing_fu_del2              =   6.7433384596802E-04
(PID.TID 0000.0001) %MON forcing_fv_max               =   3.1438595575216E-01
(PID.TID 0000.0001) %MON forcing_fv_min               =  -3.1472663669592E-01
(PID.TID 0000.0001) %MON forcing_fv_mean              =  -1.3044037006942E-02
(PID.TID 0000.0001) %MON forcing_fv_sd                =   6.5077964518834E-02
(PID.TID 0000.0001) %MON forcing_fv_del2              =   5.4246701088047E-04
(PID.TID 0000.0001) %MON trAdv_CFL_u_max              =   9.7860928167859E-05
(PID.TID 0000.0001) %MON trAdv_CFL_v_max              =   1.4744602520507E-04
(PID.TID 0000.0001) %MON trAdv_CFL_w_max              =   2.5080397896428E-04
(PID.TID 0000.0001) %MON advcfl_uvel_max              =   1.0402300853285E-04
(PID.TID 0000.0001) %MON advcfl_vvel_max              =   8.5595744952427E-05
(PID.TID 0000.0001) %MON advcfl_wvel_max              =   5.6956246279288E-04
(PID.TID 0000.0001) %MON advcfl_W_hf_max              =   2.5080397896428E-04
(PID.TID 0000.0001) %MON pe_b_mean                    =   5.4486441519997E-04
(PID.TID 0000.0001) %MON ke_max                       =   5.4279871592340E-01
(PID.TID 0000.0001) %MON ke_mean                      =   1.6515091401370E-04
(PID.TID 0000.0001) %MON ke_vol                       =   1.3398062172579E+18
(PID.TID 0000.0001) %MON vort_r_min                   =  -3.2420295186579E-06
(PID.TID 0000.0001) %MON vort_r_max                   =   3.2218527212650E-06
(PID.TID 0000.0001) %MON vort_a_mean                  =  -2.0549865324846E-05
(PID.TID 0000.0001) %MON vort_a_sd                    =   7.5259527574319E-05
(PID.TID 0000.0001) %MON vort_p_mean                  =  -2.4783416416202E-05
(PID.TID 0000.0001) %MON vort_p_sd                    =   1.2811954745306E-04
(PID.TID 0000.0001) %MON surfExpan_theta_mean         =  -6.9250460064320E-06
(PID.TID 0000.0001) %MON surfExpan_salt_mean          =   8.4898953417050E-07
(PID.TID 0000.0001) // =======================================================
(PID.TID 0000.0001) // End MONITOR dynamic field statistics
(PID.TID 0000.0001) // =======================================================
 cg2d: Sum(rhs),rhsMax =  -5.44134853576602E+00  2.13103715346150E+05
(PID.TID 0000.0001)      cg2d_init_res =   6.64625004903199E-03
(PID.TID 0000.0001)      cg2d_iters(min,last) =      -1       1
(PID.TID 0000.0001)      cg2d_last_res =   6.23995381769907E-08
(PID.TID 0000.0001) // =======================================================
(PID.TID 0000.0001) // Begin MONITOR dynamic field statistics
(PID.TID 0000.0001) // =======================================================
(PID.TID 0000.0001) %MON time_tsnumber                =                 72139
(PID.TID 0000.0001) %MON time_secondsf                =   1.8034750000000E+06
(PID.TID 0000.0001) %MON dynstat_eta_max              =   7.9135674291113E+00
(PID.TID 0000.0001) %MON dynstat_eta_min              =  -1.6196599660688E+00
(PID.TID 0000.0001) %MON dynstat_eta_mean             =   1.0396657518821E-02
(PID.TID 0000.0001) %MON dynstat_eta_sd               =   6.3931606713789E-01
(PID.TID 0000.0001) %MON dynstat_eta_del2             =   6.8216994130373E-03
(PID.TID 0000.0001) %MON dynstat_uvel_max             =   1.1302293207261E+00
(PID.TID 0000.0001) %MON dynstat_uvel_min             =  -5.6163900032910E-01
(PID.TID 0000.0001) %MON dynstat_uvel_mean            =  -4.0832708318730E-04
(PID.TID 0000.0001) %MON dynstat_uvel_sd              =   1.3096060411308E-02
(PID.TID 0000.0001) %MON dynstat_uvel_del2            =   1.0782442136079E-04
(PID.TID 0000.0001) %MON dynstat_vvel_max             =   9.4993096655819E-01
(PID.TID 0000.0001) %MON dynstat_vvel_min             =  -9.3224276129142E-01
(PID.TID 0000.0001) %MON dynstat_vvel_mean            =  -3.6594141667416E-04
(PID.TID 0000.0001) %MON dynstat_vvel_sd              =   1.3651418990449E-02
(PID.TID 0000.0001) %MON dynstat_vvel_del2            =   1.4943966594586E-04
(PID.TID 0000.0001) %MON dynstat_wvel_max             =   1.0381545505246E-04
(PID.TID 0000.0001) %MON dynstat_wvel_min             =  -1.0821448895925E-03
(PID.TID 0000.0001) %MON dynstat_wvel_mean            =  -2.8538696357115E-07
(PID.TID 0000.0001) %MON dynstat_wvel_sd              =   1.1771561682866E-05
(PID.TID 0000.0001) %MON dynstat_wvel_del2            =   1.0329986640967E-07
(PID.TID 0000.0001) %MON dynstat_theta_max            =   3.0925120209153E+01
(PID.TID 0000.0001) %MON dynstat_theta_min            =  -3.0165903897678E+00
(PID.TID 0000.0001) %MON dynstat_theta_mean           =   3.9089606596093E+00
(PID.TID 0000.0001) %MON dynstat_theta_sd             =   4.5706604531455E+00
(PID.TID 0000.0001) %MON dynstat_theta_del2           =   2.6541042388245E-03
(PID.TID 0000.0001) %MON dynstat_salt_max             =   4.1376544457963E+01
(PID.TID 0000.0001) %MON dynstat_salt_min             =   1.8518418516709E+01
(PID.TID 0000.0001) %MON dynstat_salt_mean            =   3.4772180941632E+01
(PID.TID 0000.0001) %MON dynstat_salt_sd              =   5.3095896147505E-01
(PID.TID 0000.0001) %MON dynstat_salt_del2            =   8.0534357099336E-04
(PID.TID 0000.0001) %MON dynstat_sst_max              =   3.0925120209153E+01
(PID.TID 0000.0001) %MON dynstat_sst_min              =  -1.8998513785527E+00
(PID.TID 0000.0001) %MON dynstat_sst_mean             =   1.8100745053822E+01
(PID.TID 0000.0001) %MON dynstat_sst_sd               =   9.7999812526788E+00
(PID.TID 0000.0001) %MON dynstat_sst_del2             =   1.5315381153775E-02
(PID.TID 0000.0001) %MON dynstat_sss_max              =   4.1376544457963E+01
(PID.TID 0000.0001) %MON dynstat_sss_min              =   1.8751370372883E+01
(PID.TID 0000.0001) %MON dynstat_sss_mean             =   3.4640757051016E+01
(PID.TID 0000.0001) %MON dynstat_sss_sd               =   1.4576752893531E+00
(PID.TID 0000.0001) %MON dynstat_sss_del2             =   8.0533525858606E-03
(PID.TID 0000.0001) %MON forcing_qnet_max             =   2.1258222656250E+04
(PID.TID 0000.0001) %MON forcing_qnet_min             =  -8.9276259765625E+03
(PID.TID 0000.0001) %MON forcing_qnet_mean            =  -1.4716716915477E+02
(PID.TID 0000.0001) %MON forcing_qnet_sd              =   7.2961130915617E+02
(PID.TID 0000.0001) %MON forcing_qnet_del2            =   2.6391315502559E+01
(PID.TID 0000.0001) %MON forcing_qsw_max              =   0.0000000000000E+00
(PID.TID 0000.0001) %MON forcing_qsw_min              =   0.0000000000000E+00
(PID.TID 0000.0001) %MON forcing_qsw_mean             =   0.0000000000000E+00
(PID.TID 0000.0001) %MON forcing_qsw_sd               =   0.0000000000000E+00
(PID.TID 0000.0001) %MON forcing_qsw_del2             =   0.0000000000000E+00
(PID.TID 0000.0001) %MON forcing_empmr_max            =   2.4451822042465E-02
(PID.TID 0000.0001) %MON forcing_empmr_min            =  -5.8808165788651E-01
(PID.TID 0000.0001) %MON forcing_empmr_mean           =  -6.4321620328176E-04
(PID.TID 0000.0001) %MON forcing_empmr_sd             =   1.1769894044589E-02
(PID.TID 0000.0001) %MON forcing_empmr_del2           =   4.6672488975701E-04
(PID.TID 0000.0001) %MON forcing_fu_max               =   5.6346533419467E-01
(PID.TID 0000.0001) %MON forcing_fu_min               =  -4.3181161802186E-01
(PID.TID 0000.0001) %MON forcing_fu_mean              =  -4.0123567798204E-03
(PID.TID 0000.0001) %MON forcing_fu_sd                =   6.7976379318755E-02
(PID.TID 0000.0001) %MON forcing_fu_del2              =   6.7433384596802E-04
(PID.TID 0000.0001) %MON forcing_fv_max               =   3.1438595575216E-01
(PID.TID 0000.0001) %MON forcing_fv_min               =  -3.1472663669592E-01
(PID.TID 0000.0001) %MON forcing_fv_mean              =  -1.3044037006942E-02
(PID.TID 0000.0001) %MON forcing_fv_sd                =   6.5077964518834E-02
(PID.TID 0000.0001) %MON forcing_fv_del2              =   5.4246701088047E-04
(PID.TID 0000.0001) %MON trAdv_CFL_u_max              =   9.8508465461600E-05
(PID.TID 0000.0001) %MON trAdv_CFL_v_max              =   1.4824147301898E-04
(PID.TID 0000.0001) %MON trAdv_CFL_w_max              =   2.5003176241599E-04
(PID.TID 0000.0001) %MON advcfl_uvel_max              =   1.0469586184342E-04
(PID.TID 0000.0001) %MON advcfl_vvel_max              =   8.6110312511958E-05
(PID.TID 0000.0001) %MON advcfl_wvel_max              =   5.6819483853769E-04
(PID.TID 0000.0001) %MON advcfl_W_hf_max              =   2.5003176241599E-04
(PID.TID 0000.0001) %MON pe_b_mean                    =   5.4463973657856E-04
(PID.TID 0000.0001) %MON ke_max                       =   5.4985304416835E-01
(PID.TID 0000.0001) %MON ke_mean                      =   1.6538541115417E-04
(PID.TID 0000.0001) %MON ke_vol                       =   1.3398062229150E+18
(PID.TID 0000.0001) %MON vort_r_min                   =  -3.2623319845726E-06
(PID.TID 0000.0001) %MON vort_r_max                   =   3.2408326126608E-06
(PID.TID 0000.0001) %MON vort_a_mean                  =  -2.0549865324846E-05
(PID.TID 0000.0001) %MON vort_a_sd                    =   7.5259527657843E-05
(PID.TID 0000.0001) %MON vort_p_mean                  =  -2.4783416274405E-05
(PID.TID 0000.0001) %MON vort_p_sd                    =   1.2811954568249E-04
(PID.TID 0000.0001) %MON surfExpan_theta_mean         =  -6.9417889429432E-06
(PID.TID 0000.0001) %MON surfExpan_salt_mean          =   8.5264563379119E-07
(PID.TID 0000.0001) // =======================================================
(PID.TID 0000.0001) // End MONITOR dynamic field statistics
(PID.TID 0000.0001) // =======================================================
 cg2d: Sum(rhs),rhsMax =  -5.45792740963731E+00  2.12773681105135E+05
(PID.TID 0000.0001)      cg2d_init_res =   6.66682723819304E-03
(PID.TID 0000.0001)      cg2d_iters(min,last) =      -1       1
(PID.TID 0000.0001)      cg2d_last_res =   6.26090078528542E-08
(PID.TID 0000.0001) // =======================================================
(PID.TID 0000.0001) // Begin MONITOR dynamic field statistics
(PID.TID 0000.0001) // =======================================================
(PID.TID 0000.0001) %MON time_tsnumber                =                 72140
(PID.TID 0000.0001) %MON time_secondsf                =   1.8035000000000E+06
(PID.TID 0000.0001) %MON dynstat_eta_max              =   7.8986074730396E+00
(PID.TID 0000.0001) %MON dynstat_eta_min              =  -1.6196986557479E+00
(PID.TID 0000.0001) %MON dynstat_eta_mean             =   1.0412183999022E-02
(PID.TID 0000.0001) %MON dynstat_eta_sd               =   6.3918420593956E-01
(PID.TID 0000.0001) %MON dynstat_eta_del2             =   6.8002103026178E-03
(PID.TID 0000.0001) %MON dynstat_uvel_max             =   1.1374744039586E+00
(PID.TID 0000.0001) %MON dynstat_uvel_min             =  -5.6425628059005E-01
(PID.TID 0000.0001) %MON dynstat_uvel_mean            =  -4.0746803853068E-04
(PID.TID 0000.0001) %MON dynstat_uvel_sd              =   1.3106316205916E-02
(PID.TID 0000.0001) %MON dynstat_uvel_del2            =   1.0828988783146E-04
(PID.TID 0000.0001) %MON dynstat_vvel_max             =   9.5558420611927E-01
(PID.TID 0000.0001) %MON dynstat_vvel_min             =  -9.3816867866053E-01
(PID.TID 0000.0001) %MON dynstat_vvel_mean            =  -3.6571071015221E-04
(PID.TID 0000.0001) %MON dynstat_vvel_sd              =   1.3660156481159E-02
(PID.TID 0000.0001) %MON dynstat_vvel_del2            =   1.5013443514918E-04
(PID.TID 0000.0001) %MON dynstat_wvel_max             =   1.0382149031217E-04
(PID.TID 0000.0001) %MON dynstat_wvel_min             =  -1.0826317474266E-03
(PID.TID 0000.0001) %MON dynstat_wvel_mean            =  -2.8746828769155E-07
(PID.TID 0000.0001) %MON dynstat_wvel_sd              =   1.1790471878569E-05
(PID.TID 0000.0001) %MON dynstat_wvel_del2            =   1.0336278638756E-07
(PID.TID 0000.0001) %MON dynstat_theta_max            =   3.0925114226371E+01
(PID.TID 0000.0001) %MON dynstat_theta_min            =  -3.0165668022036E+00
(PID.TID 0000.0001) %MON dynstat_theta_mean           =   3.9089609778529E+00
(PID.TID 0000.0001) %MON dynstat_theta_sd             =   4.5706615021958E+00
(PID.TID 0000.0001) %MON dynstat_theta_del2           =   2.6540917808798E-03
(PID.TID 0000.0001) %MON dynstat_salt_max             =   4.1376530033370E+01
(PID.TID 0000.0001) %MON dynstat_salt_min             =   1.8518418783923E+01
(PID.TID 0000.0001) %MON dynstat_salt_mean            =   3.4772180739615E+01
(PID.TID 0000.0001) %MON dynstat_salt_sd              =   5.3095935793704E-01
(PID.TID 0000.0001) %MON dynstat_salt_del2            =   8.0539340981690E-04
(PID.TID 0000.0001) %MON dynstat_sst_max              =   3.0925114226371E+01
(PID.TID 0000.0001) %MON dynstat_sst_min              =  -1.8998502394496E+00
(PID.TID 0000.0001) %MON dynstat_sst_mean             =   1.8100763073208E+01
(PID.TID 0000.0001) %MON dynstat_sst_sd               =   9.7999860352933E+00
(PID.TID 0000.0001) %MON dynstat_sst_del2             =   1.5315085196029E-02
(PID.TID 0000.0001) %MON dynstat_sss_max              =   4.1376530033370E+01
(PID.TID 0000.0001) %MON dynstat_sss_min              =   1.8751370414226E+01
(PID.TID 0000.0001) %MON dynstat_sss_mean             =   3.4640742609651E+01
(PID.TID 0000.0001) %MON dynstat_sss_sd               =   1.4576844445840E+00
(PID.TID 0000.0001) %MON dynstat_sss_del2             =   8.0541368350271E-03
(PID.TID 0000.0001) %MON forcing_qnet_max             =   2.0946298828125E+04
(PID.TID 0000.0001) %MON forcing_qnet_min             =  -8.8886416015625E+03
(PID.TID 0000.0001) %MON forcing_qnet_mean            =  -1.4619926835717E+02
(PID.TID 0000.0001) %MON forcing_qnet_sd              =   7.2131863609988E+02
(PID.TID 0000.0001) %MON forcing_qnet_del2            =   2.6057116006876E+01
(PID.TID 0000.0001) %MON forcing_qsw_max              =   0.0000000000000E+00
(PID.TID 0000.0001) %MON forcing_qsw_min              =   0.0000000000000E+00
(PID.TID 0000.0001) %MON forcing_qsw_mean             =   0.0000000000000E+00
(PID.TID 0000.0001) %MON forcing_qsw_sd               =   0.0000000000000E+00
(PID.TID 0000.0001) %MON forcing_qsw_del2             =   0.0000000000000E+00
(PID.TID 0000.0001) %MON forcing_empmr_max            =   2.4286689236760E-02
(PID.TID 0000.0001) %MON forcing_empmr_min            =  -5.8666622638702E-01
(PID.TID 0000.0001) %MON forcing_empmr_mean           =  -6.4279628030466E-04
(PID.TID 0000.0001) %MON forcing_empmr_sd             =   1.1750361221248E-02
(PID.TID 0000.0001) %MON forcing_empmr_del2           =   4.6596487481942E-04
(PID.TID 0000.0001) %MON forcing_fu_max               =   5.6346533419467E-01
(PID.TID 0000.0001) %MON forcing_fu_min               =  -4.3181161802186E-01
(PID.TID 0000.0001) %MON forcing_fu_mean              =  -4.0123567798204E-03
(PID.TID 0000.0001) %MON forcing_fu_sd                =   6.7976379318755E-02
(PID.TID 0000.0001) %MON forcing_fu_del2              =   6.7433384596802E-04
(PID.TID 0000.0001) %MON forcing_fv_max               =   3.1438595575216E-01
(PID.TID 0000.0001) %MON forcing_fv_min               =  -3.1472663669592E-01
(PID.TID 0000.0001) %MON forcing_fv_mean              =  -1.3044037006942E-02
(PID.TID 0000.0001) %MON forcing_fv_sd                =   6.5077964518834E-02
(PID.TID 0000.0001) %MON forcing_fv_del2              =   5.4246701088047E-04
(PID.TID 0000.0001) %MON trAdv_CFL_u_max              =   9.9154630868404E-05
(PID.TID 0000.0001) %MON trAdv_CFL_v_max              =   1.4903113108374E-04
(PID.TID 0000.0001) %MON trAdv_CFL_w_max              =   2.4926001020137E-04
(PID.TID 0000.0001) %MON advcfl_uvel_max              =   1.0536699133833E-04
(PID.TID 0000.0001) %MON advcfl_vvel_max              =   8.6622773145885E-05
(PID.TID 0000.0001) %MON advcfl_wvel_max              =   5.6682727187152E-04
(PID.TID 0000.0001) %MON advcfl_W_hf_max              =   2.4926001020137E-04
(PID.TID 0000.0001) %MON pe_b_mean                    =   5.4441557951454E-04
(PID.TID 0000.0001) %MON ke_max                       =   5.5693413887177E-01
(PID.TID 0000.0001) %MON ke_mean                      =   1.6561917029581E-04
(PID.TID 0000.0001) %MON ke_vol                       =   1.3398062285685E+18
(PID.TID 0000.0001) %MON vort_r_min                   =  -3.2825360032301E-06
(PID.TID 0000.0001) %MON vort_r_max                   =   3.2597240851969E-06
(PID.TID 0000.0001) %MON vort_a_mean                  =  -2.0549865324846E-05
(PID.TID 0000.0001) %MON vort_a_sd                    =   7.5259527740807E-05
(PID.TID 0000.0001) %MON vort_p_mean                  =  -2.4783416132488E-05
(PID.TID 0000.0001) %MON vort_p_sd                    =   1.2811954390658E-04
(PID.TID 0000.0001) %MON surfExpan_theta_mean         =  -6.9579325645566E-06
(PID.TID 0000.0001) %MON surfExpan_salt_mean          =   8.5628414475548E-07
(PID.TID 0000.0001) // =======================================================
(PID.TID 0000.0001) // End MONITOR dynamic field statistics
(PID.TID 0000.0001) // =======================================================
 cg2d: Sum(rhs),rhsMax =  -5.47460502489271E+00  2.12441596683494E+05
(PID.TID 0000.0001)      cg2d_init_res =   6.68724602558962E-03
(PID.TID 0000.0001)      cg2d_iters(min,last) =      -1       1
(PID.TID 0000.0001)      cg2d_last_res =   6.28206785850321E-08
(PID.TID 0000.0001) // =======================================================
(PID.TID 0000.0001) // Begin MONITOR dynamic field statistics
(PID.TID 0000.0001) // =======================================================
(PID.TID 0000.0001) %MON time_tsnumber                =                 72141
(PID.TID 0000.0001) %MON time_secondsf                =   1.8035250000000E+06
(PID.TID 0000.0001) %MON dynstat_eta_max              =   7.8835563986714E+00
(PID.TID 0000.0001) %MON dynstat_eta_min              =  -1.6197376099286E+00
(PID.TID 0000.0001) %MON dynstat_eta_mean             =   1.0427699808477E-02
(PID.TID 0000.0001) %MON dynstat_eta_sd               =   6.3905263206907E-01
(PID.TID 0000.0001) %MON dynstat_eta_del2             =   6.7786635217563E-03
(PID.TID 0000.0001) %MON dynstat_uvel_max             =   1.1447007603069E+00
(PID.TID 0000.0001) %MON dynstat_uvel_min             =  -5.6686803627166E-01
(PID.TID 0000.0001) %MON dynstat_uvel_mean            =  -4.0660600823619E-04
(PID.TID 0000.0001) %MON dynstat_uvel_sd              =   1.3116539876571E-02
(PID.TID 0000.0001) %MON dynstat_uvel_del2            =   1.0875354835979E-04
(PID.TID 0000.0001) %MON dynstat_vvel_max             =   9.6121416359742E-01
(PID.TID 0000.0001) %MON dynstat_vvel_min             =  -9.4408024495370E-01
(PID.TID 0000.0001) %MON dynstat_vvel_mean            =  -3.6548264363058E-04
(PID.TID 0000.0001) %MON dynstat_vvel_sd              =   1.3668851811905E-02
(PID.TID 0000.0001) %MON dynstat_vvel_del2            =   1.5082498563387E-04
(PID.TID 0000.0001) %MON dynstat_wvel_max             =   1.0382754410630E-04
(PID.TID 0000.0001) %MON dynstat_wvel_min             =  -1.0830158911100E-03
(PID.TID 0000.0001) %MON dynstat_wvel_mean            =  -2.8955718370244E-07
(PID.TID 0000.0001) %MON dynstat_wvel_sd              =   1.1808798378114E-05
(PID.TID 0000.0001) %MON dynstat_wvel_del2            =   1.0342235587513E-07
(PID.TID 0000.0001) %MON dynstat_theta_max            =   3.0925108244319E+01
(PID.TID 0000.0001) %MON dynstat_theta_min            =  -3.0165429809434E+00
(PID.TID 0000.0001) %MON dynstat_theta_mean           =   3.9089612944578E+00
(PID.TID 0000.0001) %MON dynstat_theta_sd             =   4.5706625459417E+00
(PID.TID 0000.0001) %MON dynstat_theta_del2           =   2.6540793802465E-03
(PID.TID 0000.0001) %MON dynstat_salt_max             =   4.1376515414951E+01
(PID.TID 0000.0001) %MON dynstat_salt_min             =   1.8518419051106E+01
(PID.TID 0000.0001) %MON dynstat_salt_mean            =   3.4772180537835E+01
(PID.TID 0000.0001) %MON dynstat_salt_sd              =   5.3095975502473E-01
(PID.TID 0000.0001) %MON dynstat_salt_del2            =   8.0544362079010E-04
(PID.TID 0000.0001) %MON dynstat_sst_max              =   3.0925108244319E+01
(PID.TID 0000.0001) %MON dynstat_sst_min              =  -1.8998490986436E+00
(PID.TID 0000.0001) %MON dynstat_sst_mean             =   1.8100780953156E+01
(PID.TID 0000.0001) %MON dynstat_sst_sd               =   9.7999908304931E+00
(PID.TID 0000.0001) %MON dynstat_sst_del2             =   1.5314790838874E-02
(PID.TID 0000.0001) %MON dynstat_sss_max              =   4.1376515414951E+01
(PID.TID 0000.0001) %MON dynstat_sss_min              =   1.8751370455558E+01
(PID.TID 0000.0001) %MON dynstat_sss_mean             =   3.4640728183185E+01
(PID.TID 0000.0001) %MON dynstat_sss_sd               =   1.4576936164087E+00
(PID.TID 0000.0001) %MON dynstat_sss_del2             =   8.0549269160400E-03
(PID.TID 0000.0001) %MON forcing_qnet_max             =   2.0634373046875E+04
(PID.TID 0000.0001) %MON forcing_qnet_min             =  -8.8399101562500E+03
(PID.TID 0000.0001) %MON forcing_qnet_mean            =  -1.4521926200121E+02
(PID.TID 0000.0001) %MON forcing_qnet_sd              =   7.1318180139560E+02
(PID.TID 0000.0001) %MON forcing_qnet_del2            =   2.5733058949656E+01
(PID.TID 0000.0001) %MON forcing_qsw_max              =   0.0000000000000E+00
(PID.TID 0000.0001) %MON forcing_qsw_min              =   0.0000000000000E+00
(PID.TID 0000.0001) %MON forcing_qsw_mean             =   0.0000000000000E+00
(PID.TID 0000.0001) %MON forcing_qsw_sd               =   0.0000000000000E+00
(PID.TID 0000.0001) %MON forcing_qsw_del2             =   0.0000000000000E+00
(PID.TID 0000.0001) %MON forcing_empmr_max            =   2.4121556431055E-02
(PID.TID 0000.0001) %MON forcing_empmr_min            =  -5.8525079488754E-01
(PID.TID 0000.0001) %MON forcing_empmr_mean           =  -6.4235451144570E-04
(PID.TID 0000.0001) %MON forcing_empmr_sd             =   1.1730733836202E-02
(PID.TID 0000.0001) %MON forcing_empmr_del2           =   4.6519813509797E-04
(PID.TID 0000.0001) %MON forcing_fu_max               =   5.6346533419467E-01
(PID.TID 0000.0001) %MON forcing_fu_min               =  -4.3181161802186E-01
(PID.TID 0000.0001) %MON forcing_fu_mean              =  -4.0123567798204E-03
(PID.TID 0000.0001) %MON forcing_fu_sd                =   6.7976379318755E-02
(PID.TID 0000.0001) %MON forcing_fu_del2              =   6.7433384596802E-04
(PID.TID 0000.0001) %MON forcing_fv_max               =   3.1438595575216E-01
(PID.TID 0000.0001) %MON forcing_fv_min               =  -3.1472663669592E-01
(PID.TID 0000.0001) %MON forcing_fv_mean              =  -1.3044037006942E-02
(PID.TID 0000.0001) %MON forcing_fv_sd                =   6.5077964518834E-02
(PID.TID 0000.0001) %MON forcing_fv_del2              =   5.4246701088047E-04
(PID.TID 0000.0001) %MON trAdv_CFL_u_max              =   9.9799413839749E-05
(PID.TID 0000.0001) %MON trAdv_CFL_v_max              =   1.4981498186268E-04
(PID.TID 0000.0001) %MON trAdv_CFL_w_max              =   2.4848871058721E-04
(PID.TID 0000.0001) %MON advcfl_uvel_max              =   1.0603638611690E-04
(PID.TID 0000.0001) %MON advcfl_vvel_max              =   8.7133123281778E-05
(PID.TID 0000.0001) %MON advcfl_wvel_max              =   5.6545970520536E-04
(PID.TID 0000.0001) %MON advcfl_W_hf_max              =   2.4848871058721E-04
(PID.TID 0000.0001) %MON pe_b_mean                    =   5.4419195834969E-04
(PID.TID 0000.0001) %MON ke_max                       =   5.6404155445727E-01
(PID.TID 0000.0001) %MON ke_mean                      =   1.6585217615791E-04
(PID.TID 0000.0001) %MON ke_vol                       =   1.3398062342184E+18
(PID.TID 0000.0001) %MON vort_r_min                   =  -3.3026411870452E-06
(PID.TID 0000.0001) %MON vort_r_max                   =   3.2785269585722E-06
(PID.TID 0000.0001) %MON vort_a_mean                  =  -2.0549865324846E-05
(PID.TID 0000.0001) %MON vort_a_sd                    =   7.5259527823205E-05
(PID.TID 0000.0001) %MON vort_p_mean                  =  -2.4783415990459E-05
(PID.TID 0000.0001) %MON vort_p_sd                    =   1.2811954212548E-04
(PID.TID 0000.0001) %MON surfExpan_theta_mean         =  -6.9740330840620E-06
(PID.TID 0000.0001) %MON surfExpan_salt_mean          =   8.5993997627963E-07
(PID.TID 0000.0001) // =======================================================
(PID.TID 0000.0001) // End MONITOR dynamic field statistics
(PID.TID 0000.0001) // =======================================================
