(PID.TID 0000.0001) 
(PID.TID 0000.0001) // ======================================================
(PID.TID 0000.0001) //                      MITgcm UV
(PID.TID 0000.0001) //                      =========
(PID.TID 0000.0001) // ======================================================
(PID.TID 0000.0001) // execution environment starting up...
(PID.TID 0000.0001) 
(PID.TID 0000.0001) // MITgcmUV version:  checkpoint67e
(PID.TID 0000.0001) // Build user:        heracles
(PID.TID 0000.0001) // Build host:        heracles
(PID.TID 0000.0001) // Build date:        Thu Nov 29 18:13:24 EST 2018
(PID.TID 0000.0001) 
(PID.TID 0000.0001) // =======================================================
(PID.TID 0000.0001) // Execution Environment parameter file "eedata"
(PID.TID 0000.0001) // =======================================================
(PID.TID 0000.0001) ># Example "eedata" file
(PID.TID 0000.0001) ># Lines beginning "#" are comments
(PID.TID 0000.0001) ># nTx - No. threads per process in X
(PID.TID 0000.0001) ># nTy - No. threads per process in Y
(PID.TID 0000.0001) > &EEPARMS
(PID.TID 0000.0001) > useCubedSphereExchange=.TRUE.,
(PID.TID 0000.0001) > nTx=1,
(PID.TID 0000.0001) > nTy=1,
(PID.TID 0000.0001) > debugMode=.TRUE.,
(PID.TID 0000.0001) > /
(PID.TID 0000.0001) ># Note: Some systems use & as the namelist terminator (as shown here).
(PID.TID 0000.0001) >#       Other systems use a / character.
(PID.TID 0000.0001) 
(PID.TID 0000.0001) // =======================================================
(PID.TID 0000.0001) // Computational Grid Specification ( see files "SIZE.h" )
(PID.TID 0000.0001) //                                  ( and "eedata"       )
(PID.TID 0000.0001) // =======================================================
(PID.TID 0000.0001)      nPx =    6 ; /* No. processes in X */
(PID.TID 0000.0001)      nPy =    1 ; /* No. processes in Y */
(PID.TID 0000.0001)      nSx =    1 ; /* No. tiles in X per process */
(PID.TID 0000.0001)      nSy =    1 ; /* No. tiles in Y per process */
(PID.TID 0000.0001)      sNx =   32 ; /* Tile size in X */
(PID.TID 0000.0001)      sNy =   32 ; /* Tile size in Y */
(PID.TID 0000.0001)      OLx =    4 ; /* Tile overlap distance in X */
(PID.TID 0000.0001)      OLy =    4 ; /* Tile overlap distance in Y */
(PID.TID 0000.0001)      nTx =    1 ; /* No. threads in X per process */
(PID.TID 0000.0001)      nTy =    1 ; /* No. threads in Y per process */
(PID.TID 0000.0001)       Nr =   16 ; /* No. levels in the vertical   */
(PID.TID 0000.0001)       Nx =  192 ; /* Total domain size in X ( = nPx*nSx*sNx ) */
(PID.TID 0000.0001)       Ny =   32 ; /* Total domain size in Y ( = nPy*nSy*sNy ) */
(PID.TID 0000.0001)   nTiles =    1 ; /* Total no. tiles per process ( = nSx*nSy ) */
(PID.TID 0000.0001)   nProcs =    6 ; /* Total no. processes ( = nPx*nPy ) */
(PID.TID 0000.0001) nThreads =    1 ; /* Total no. threads per process ( = nTx*nTy ) */
(PID.TID 0000.0001) usingMPI =    T ; /* Flag used to control whether MPI is in use */
(PID.TID 0000.0001)                   /*  note: To execute a program with MPI calls */
(PID.TID 0000.0001)                   /*  it must be launched appropriately e.g     */
(PID.TID 0000.0001)                   /*  "mpirun -np 64 ......"                    */
(PID.TID 0000.0001) useCoupler=    F ;/* Flag used to control communications with   */
(PID.TID 0000.0001)                   /*  other model components, through a coupler */
(PID.TID 0000.0001) debugMode =    T ; /* print debug msg. (sequence of S/R calls)  */
(PID.TID 0000.0001) printMapIncludesZeros=    F ; /* print zeros in Std.Output maps */
(PID.TID 0000.0001) maxLengthPrt1D=   65 /* maxLength of 1D array printed to StdOut */
(PID.TID 0000.0001) 
(PID.TID 0000.0001) ======= Starting MPI parallel Run =========
(PID.TID 0000.0001)  My Processor Name (len:  8 ) = heracles
(PID.TID 0000.0001)  Located at (  0,  0) on processor grid (0:  5,0:  0)
(PID.TID 0000.0001)  Origin at  (     1,     1) on global grid (1:   192,1:    32)
(PID.TID 0000.0001)  North neighbor = processor 0000
(PID.TID 0000.0001)  South neighbor = processor 0000
(PID.TID 0000.0001)   East neighbor = processor 0001
(PID.TID 0000.0001)   West neighbor = processor 0005
(PID.TID 0000.0001) // ======================================================
(PID.TID 0000.0001) // Mapping of tiles to threads
(PID.TID 0000.0001) // ======================================================
(PID.TID 0000.0001) // -o- Thread   1, tiles (   1:   1,   1:   1)
(PID.TID 0000.0001) 
(PID.TID 0000.0001) W2_READPARMS: file data.exch2 not found
(PID.TID 0000.0001) => use W2_EXCH2 default: regular 6-facets Cube
(PID.TID 0000.0001) W2_useE2ioLayOut=    T ;/* T: use Exch2 glob IO map; F: use model default */
(PID.TID 0000.0001) W2_mapIO        =  -1 ; /* select option for Exch2 global-IO map */
(PID.TID 0000.0001) W2_printMsg     =  -1 ; /* select option for printing information */
(PID.TID 0000.0001) ===== Start setting W2 TOPOLOGY:
(PID.TID 0000.0001)  write to log-file: w2_tile_topology.0000.log
(PID.TID 0000.0001) =====       setting W2 TOPOLOGY: Done
(PID.TID 0000.0001) 
(PID.TID 0000.0001) DEBUG_MSG: ENTERED S/R INITIALISE_FIXED
(PID.TID 0000.0001) DEBUG_MSG: CALLING S/R INI_PARMS
(PID.TID 0000.0001)  INI_PARMS: opening model parameter file "data"
(PID.TID 0000.0001)  OPEN_COPY_DATA_FILE: opening file data
(PID.TID 0000.0001) // =======================================================
(PID.TID 0000.0001) // Parameter file "data"
(PID.TID 0000.0001) // =======================================================
(PID.TID 0000.0001) ># ====================
(PID.TID 0000.0001) ># | Model parameters |
(PID.TID 0000.0001) ># ====================
(PID.TID 0000.0001) >#
(PID.TID 0000.0001) ># Continuous equation parameters
(PID.TID 0000.0001) > &PARM01
(PID.TID 0000.0001) > tRef=16*20.,
(PID.TID 0000.0001) > sRef=16*35.,
(PID.TID 0000.0001) > viscAh =3.E5,
(PID.TID 0000.0001) > viscAr =1.E-3,
(PID.TID 0000.0001) > diffKrT=3.E-5,
(PID.TID 0000.0001) > diffKrS=3.E-5,
(PID.TID 0000.0001) > ivdc_kappa=10.,
(PID.TID 0000.0001) > implicitDiffusion=.TRUE.,
(PID.TID 0000.0001) > rhonil=1035.,
(PID.TID 0000.0001) > rhoConstFresh=1000.,
(PID.TID 0000.0001) > eosType='JMD95Z',
(PID.TID 0000.0001) > staggerTimeStep=.TRUE.,
(PID.TID 0000.0001) > vectorInvariantMomentum=.TRUE.,
(PID.TID 0000.0001) > implicitFreeSurface=.TRUE.,
(PID.TID 0000.0001) > exactConserv=.TRUE.,
(PID.TID 0000.0001) > select_rStar=2,
(PID.TID 0000.0001) > nonlinFreeSurf=4,
(PID.TID 0000.0001) > useRealFreshWaterFlux=.TRUE.,
(PID.TID 0000.0001) > allowFreezing=.TRUE.,
(PID.TID 0000.0001) > hFacMin=.1,
(PID.TID 0000.0001) > hFacMinDr=20.,
(PID.TID 0000.0001) > readBinaryPrec=64,
(PID.TID 0000.0001) > useSingleCpuIo=.TRUE.,
(PID.TID 0000.0001) > debugLevel=5,
(PID.TID 0000.0001) > /
(PID.TID 0000.0001) >
(PID.TID 0000.0001) ># Elliptic solver parameters
(PID.TID 0000.0001) > &PARM02
(PID.TID 0000.0001) > /
(PID.TID 0000.0001) >
(PID.TID 0000.0001) ># Time stepping parameters
(PID.TID 0000.0001) > &PARM03
(PID.TID 0000.0001) > nIter0           = 0,
(PID.TID 0000.0001) > nTimeSteps       = 96,
(PID.TID 0000.0001) > deltaT           = 900.,
(PID.TID 0000.0001) > monitorFreq      = 1.,
(PID.TID 0000.0001) > abEps            = 0.1,
(PID.TID 0000.0001) > tracForcingOutAB = 1,
(PID.TID 0000.0001) > /
(PID.TID 0000.0001) >
(PID.TID 0000.0001) ># Gridding parameters
(PID.TID 0000.0001) > &PARM04
(PID.TID 0000.0001) > usingCurvilinearGrid=.TRUE.,
(PID.TID 0000.0001) > horizGridFile='grid_cs32',
(PID.TID 0000.0001) > delR= 25., 25., 70., 100., 140., 190.,
(PID.TID 0000.0001) >       240., 290., 340., 390., 440.,
(PID.TID 0000.0001) >       490., 540., 590., 640., 690.,
(PID.TID 0000.0001) > /
(PID.TID 0000.0001) >
(PID.TID 0000.0001) ># Input datasets
(PID.TID 0000.0001) > &PARM05
(PID.TID 0000.0001) > bathyFile      ='bathy_Hmin50.bin',
(PID.TID 0000.0001) > /
(PID.TID 0000.0001) 
(PID.TID 0000.0001)  INI_PARMS ; starts to read PARM01
(PID.TID 0000.0001)  INI_PARMS ; read PARM01 : OK
(PID.TID 0000.0001)  INI_PARMS ; starts to read PARM02
(PID.TID 0000.0001)  INI_PARMS ; read PARM02 : OK
(PID.TID 0000.0001)  INI_PARMS ; starts to read PARM03
(PID.TID 0000.0001)  INI_PARMS ; read PARM03 : OK
(PID.TID 0000.0001)  INI_PARMS ; starts to read PARM04
(PID.TID 0000.0001)  INI_PARMS ; read PARM04 : OK
(PID.TID 0000.0001)  INI_PARMS ; starts to read PARM05
(PID.TID 0000.0001)  INI_PARMS ; read PARM05 : OK
(PID.TID 0000.0001)  INI_PARMS: finished reading file "data"
(PID.TID 0000.0001) DEBUG_MSG: CALLING S/R PACKAGES_BOOT
(PID.TID 0000.0001)  PACKAGES_BOOT: opening data.pkg
(PID.TID 0000.0001)  OPEN_COPY_DATA_FILE: opening file data.pkg
(PID.TID 0000.0001) // =======================================================
(PID.TID 0000.0001) // Parameter file "data.pkg"
(PID.TID 0000.0001) // =======================================================
(PID.TID 0000.0001) ># Packages
(PID.TID 0000.0001) > &PACKAGES
(PID.TID 0000.0001) > useGMRedi=.TRUE.,
(PID.TID 0000.0001) > useDiagnostics=.TRUE.,
(PID.TID 0000.0001) > /
(PID.TID 0000.0001) 
(PID.TID 0000.0001)  PACKAGES_BOOT: finished reading data.pkg
(PID.TID 0000.0001)  PACKAGES_BOOT: On/Off package Summary
 --------  pkgs with a standard "usePKG" On/Off switch in "data.pkg":  --------
 pkg/gmredi               compiled   and   used ( useGMRedi                = T )
 pkg/bulk_force           compiled but not used ( useBulkForce             = F )
 pkg/diagnostics          compiled   and   used ( useDiagnostics           = T )
 -------- pkgs without standard "usePKG" On/Off switch in "data.pkg":  --------
 pkg/generic_advdiff      compiled   and   used ( useGAD                   = T )
 pkg/mom_common           compiled   and   used ( momStepping              = T )
 pkg/mom_vecinv           compiled   and   used ( +vectorInvariantMomentum = T )
 pkg/mom_fluxform         compiled but not used ( & not vectorInvariantMom = F )
 pkg/monitor              compiled   and   used ( monitorFreq > 0.         = T )
 pkg/timeave              compiled but not used ( taveFreq > 0.            = F )
 pkg/debug                compiled   and   used ( debugMode                = T )
 pkg/exch2                compiled   and   used
 pkg/rw                   compiled   and   used
 pkg/mdsio                compiled   and   used
(PID.TID 0000.0001)  PACKAGES_BOOT: End of package Summary
(PID.TID 0000.0001) 
(PID.TID 0000.0001) DEBUG_MSG: CALLING S/R PACKAGES_READPARMS
(PID.TID 0000.0001)  GM_READPARMS: opening data.gmredi
(PID.TID 0000.0001)  OPEN_COPY_DATA_FILE: opening file data.gmredi
(PID.TID 0000.0001) // =======================================================
(PID.TID 0000.0001) // Parameter file "data.gmredi"
(PID.TID 0000.0001) // =======================================================
(PID.TID 0000.0001) ># GM+Redi package parameters:
(PID.TID 0000.0001) >
(PID.TID 0000.0001) >#-from MOM :
(PID.TID 0000.0001) ># GM_background_K: 	G & Mc.W  diffusion coefficient
(PID.TID 0000.0001) ># GM_maxSlope    :	max slope of isopycnals
(PID.TID 0000.0001) ># GM_Scrit       :	transition for scaling diffusion coefficient
(PID.TID 0000.0001) ># GM_Sd          :	half width scaling for diffusion coefficient
(PID.TID 0000.0001) ># GM_taper_scheme:	slope clipping or one of the tapering schemes
(PID.TID 0000.0001) ># GM_Kmin_horiz  :	horizontal diffusion minimum value
(PID.TID 0000.0001) >
(PID.TID 0000.0001) >#-Option parameters (needs to "define" options in GMREDI_OPTIONS.h")
(PID.TID 0000.0001) ># GM_isopycK     :	isopycnal diffusion coefficient (default=GM_background_K)
(PID.TID 0000.0001) ># GM_AdvForm     :	turn on GM Advective form       (default=Skew flux form)
(PID.TID 0000.0001) >
(PID.TID 0000.0001) > &GM_PARM01
(PID.TID 0000.0001) >  GM_background_K    = 800.,
(PID.TID 0000.0001) >  GM_taper_scheme    = 'gkw91',
(PID.TID 0000.0001) >  GM_maxSlope        = 1.e-2,
(PID.TID 0000.0001) >  GM_Kmin_horiz      = 50.,
(PID.TID 0000.0001) >  GM_Scrit           = 4.e-3,
(PID.TID 0000.0001) >  GM_Sd              = 1.e-3,
(PID.TID 0000.0001) ># GM_Visbeck_alpha   = 0.,
(PID.TID 0000.0001) ># GM_Visbeck_length  = 2.e+5,
(PID.TID 0000.0001) ># GM_Visbeck_depth   = 1.e+3,
(PID.TID 0000.0001) ># GM_Visbeck_maxval_K= 2.5e+3,
(PID.TID 0000.0001) > /
(PID.TID 0000.0001) >
(PID.TID 0000.0001) >
(PID.TID 0000.0001) 
(PID.TID 0000.0001)  GM_READPARMS: finished reading data.gmredi
(PID.TID 0000.0001)  DIAGNOSTICS_READPARMS: opening data.diagnostics
(PID.TID 0000.0001)  OPEN_COPY_DATA_FILE: opening file data.diagnostics
(PID.TID 0000.0001) // =======================================================
(PID.TID 0000.0001) // Parameter file "data.diagnostics"
(PID.TID 0000.0001) // =======================================================
(PID.TID 0000.0001) ># Diagnostic Package Choices
(PID.TID 0000.0001) >#--------------------
(PID.TID 0000.0001) >#  dumpAtLast (logical): always write output at the end of simulation (default=F)
(PID.TID 0000.0001) >#  diag_mnc   (logical): write to NetCDF files (default=useMNC)
(PID.TID 0000.0001) >#--for each output-stream:
(PID.TID 0000.0001) >#  fileName(n) : prefix of the output file name (max 80c long) for outp.stream n
(PID.TID 0000.0001) >#  frequency(n):< 0 : write snap-shot output every |frequency| seconds
(PID.TID 0000.0001) >#               > 0 : write time-average output every frequency seconds
(PID.TID 0000.0001) >#  timePhase(n)     : write at time = timePhase + multiple of |frequency|
(PID.TID 0000.0001) >#    averagingFreq  : frequency (in s) for periodic averaging interval
(PID.TID 0000.0001) >#    averagingPhase : phase     (in s) for periodic averaging interval
(PID.TID 0000.0001) >#    repeatCycle    : number of averaging intervals in 1 cycle
(PID.TID 0000.0001) >#  levels(:,n) : list of levels to write to file (Notes: declared as REAL)
(PID.TID 0000.0001) >#                when this entry is missing, select all common levels of this list
(PID.TID 0000.0001) >#  fields(:,n) : list of selected diagnostics fields (8.c) in outp.stream n
(PID.TID 0000.0001) >#                (see "available_diagnostics.log" file for the full list of diags)
(PID.TID 0000.0001) >#  missing_value(n) : missing value for real-type fields in output file "n"
(PID.TID 0000.0001) >#  fileFlags(n)     : specific code (8c string) for output file "n"
(PID.TID 0000.0001) >#--------------------
(PID.TID 0000.0001) ># oceTAUX  zonal surface wind stress, >0 increases uVel (N/m^2)
(PID.TID 0000.0001) ># oceTAUY  meridional surf. wind stress, >0 increases vVel (N/m^2)
(PID.TID 0000.0001) ># oceFWflx net surface Fresh-Water flux into ocean, >0 decreases salinity (kg/m^2/s)
(PID.TID 0000.0001) ># oceSflux net surface Salt flux into the ocean, >0 increases salinity (g/m^2/s)
(PID.TID 0000.0001) ># oceQnet  net surface heat flux into the ocean, >0 increases theta (W/m^2)
(PID.TID 0000.0001) ># oceQsw   net Short-Wave radiation (+=down), >0 increases theta (W/m^2)
(PID.TID 0000.0001) ># SSS      Sea Surface Salinity (g/kg)
(PID.TID 0000.0001) ># SST      Sea Surface Temperature (degC)
(PID.TID 0000.0001) ># UVEL1    Zonal Surface Velocity (m/s)
(PID.TID 0000.0001) ># VVEL1    Meridional Surface Velocity (m/s)
(PID.TID 0000.0001) >
(PID.TID 0000.0001) > &DIAGNOSTICS_LIST
(PID.TID 0000.0001) >   frequency(1)  = -3600.,
(PID.TID 0000.0001) >    fields(1,1)  = 'oceTAUX ',
(PID.TID 0000.0001) >    filename(1)  = 'oceTAUX',
(PID.TID 0000.0001) >   frequency(2)  = -3600.,
(PID.TID 0000.0001) >    fields(1,2)  = 'oceTAUY ',
(PID.TID 0000.0001) >    filename(2)  = 'oceTAUY',
(PID.TID 0000.0001) >   frequency(3)  = -3600.,
(PID.TID 0000.0001) >    fields(1,3)  = 'oceFWflx',
(PID.TID 0000.0001) >    filename(3)  = 'oceFWflx',
(PID.TID 0000.0001) >   frequency(4)  = -3600.,
(PID.TID 0000.0001) >    fields(1,4)  = 'oceSflux',
(PID.TID 0000.0001) >    filename(4)  = 'oceSflux',
(PID.TID 0000.0001) >   frequency(5)  = -3600.,
(PID.TID 0000.0001) >    fields(1,5)  = 'oceQnet ',
(PID.TID 0000.0001) >    filename(5)  = 'oceQnet',
(PID.TID 0000.0001) >   frequency(6)  = -3600.,
(PID.TID 0000.0001) >    fields(1,6)  = 'oceQsw  ',
(PID.TID 0000.0001) >    filename(6)  = 'oceQsw',
(PID.TID 0000.0001) >   frequency(7)  = -3600.,
(PID.TID 0000.0001) >    fields(1,7)  = 'SALT    ',
(PID.TID 0000.0001) >    levels(1,7)  = 1.,
(PID.TID 0000.0001) >    filename(7)  = 'SSS',
(PID.TID 0000.0001) >   frequency(8)  = -3600.,
(PID.TID 0000.0001) >    fields(1,8)  = 'THETA   ',
(PID.TID 0000.0001) >    levels(1,8)  = 1.,
(PID.TID 0000.0001) >    filename(8)  = 'SST',
(PID.TID 0000.0001) >   frequency(9)  = -3600.,
(PID.TID 0000.0001) >    fields(1,9)  = 'UVELMASS',
(PID.TID 0000.0001) >    levels(1,9)  = 1.,
(PID.TID 0000.0001) >    filename(9)  = 'UVEL1',
(PID.TID 0000.0001) >   frequency(10) = -3600.,
(PID.TID 0000.0001) >    fields(1,10) = 'VVELMASS',
(PID.TID 0000.0001) >    levels(1,10) = 1.,
(PID.TID 0000.0001) >    filename(10) = 'VVEL1',
(PID.TID 0000.0001) >   frequency(11) = -3600.,
(PID.TID 0000.0001) >    fields(1,11) = 'atmPload',
(PID.TID 0000.0001) >    filename(11) = 'atmPload',
(PID.TID 0000.0001) > /
(PID.TID 0000.0001) >
(PID.TID 0000.0001) > &DIAG_STATIS_PARMS
(PID.TID 0000.0001) > /
(PID.TID 0000.0001) 
(PID.TID 0000.0001) S/R DIAGNOSTICS_READPARMS, read namelist "diagnostics_list": start
(PID.TID 0000.0001) S/R DIAGNOSTICS_READPARMS, read namelist "diagnostics_list": OK
(PID.TID 0000.0001) S/R DIAGNOSTICS_READPARMS, read namelist "DIAG_STATIS_PARMS": start
(PID.TID 0000.0001) S/R DIAGNOSTICS_READPARMS, read namelist "DIAG_STATIS_PARMS": OK
(PID.TID 0000.0001)  DIAGNOSTICS_READPARMS: global parameter summary:
(PID.TID 0000.0001)  dumpAtLast = /* always write time-ave diags at the end */
(PID.TID 0000.0001)                   F
(PID.TID 0000.0001)     ;
(PID.TID 0000.0001)  diag_mnc =   /* write NetCDF output files */
(PID.TID 0000.0001)                   F
(PID.TID 0000.0001)     ;
(PID.TID 0000.0001)  useMissingValue = /* put MissingValue where mask = 0 */
(PID.TID 0000.0001)                   F
(PID.TID 0000.0001)     ;
(PID.TID 0000.0001)  diagCG_maxIters = /* max number of iters in diag_cg2d */
(PID.TID 0000.0001)                     150
(PID.TID 0000.0001)     ;
(PID.TID 0000.0001)  diagCG_resTarget = /* residual target for diag_cg2d */
(PID.TID 0000.0001)                 1.000000000000000E-07
(PID.TID 0000.0001)     ;
(PID.TID 0000.0001)  diagCG_pcOffDFac = /* preconditioner off-diagonal factor */
(PID.TID 0000.0001)                 9.611687812379854E-01
(PID.TID 0000.0001)     ;
(PID.TID 0000.0001) -----------------------------------------------------
(PID.TID 0000.0001)  DIAGNOSTICS_READPARMS: active diagnostics summary:
(PID.TID 0000.0001) -----------------------------------------------------
(PID.TID 0000.0001) Creating Output Stream: oceTAUX
(PID.TID 0000.0001) Output Frequency:      -3600.000000 ; Phase:        1800.000000
(PID.TID 0000.0001)  Averaging Freq.:          0.000000 , Phase:           0.000000 , Cycle:   1
(PID.TID 0000.0001)  missing value: -9.990000000000E+02
(PID.TID 0000.0001)  Levels:    will be set later
(PID.TID 0000.0001)  Fields:    oceTAUX
(PID.TID 0000.0001) Creating Output Stream: oceTAUY
(PID.TID 0000.0001) Output Frequency:      -3600.000000 ; Phase:        1800.000000
(PID.TID 0000.0001)  Averaging Freq.:          0.000000 , Phase:           0.000000 , Cycle:   1
(PID.TID 0000.0001)  missing value: -9.990000000000E+02
(PID.TID 0000.0001)  Levels:    will be set later
(PID.TID 0000.0001)  Fields:    oceTAUY
(PID.TID 0000.0001) Creating Output Stream: oceFWflx
(PID.TID 0000.0001) Output Frequency:      -3600.000000 ; Phase:        1800.000000
(PID.TID 0000.0001)  Averaging Freq.:          0.000000 , Phase:           0.000000 , Cycle:   1
(PID.TID 0000.0001)  missing value: -9.990000000000E+02
(PID.TID 0000.0001)  Levels:    will be set later
(PID.TID 0000.0001)  Fields:    oceFWflx
(PID.TID 0000.0001) Creating Output Stream: oceSflux
(PID.TID 0000.0001) Output Frequency:      -3600.000000 ; Phase:        1800.000000
(PID.TID 0000.0001)  Averaging Freq.:          0.000000 , Phase:           0.000000 , Cycle:   1
(PID.TID 0000.0001)  missing value: -9.990000000000E+02
(PID.TID 0000.0001)  Levels:    will be set later
(PID.TID 0000.0001)  Fields:    oceSflux
(PID.TID 0000.0001) Creating Output Stream: oceQnet
(PID.TID 0000.0001) Output Frequency:      -3600.000000 ; Phase:        1800.000000
(PID.TID 0000.0001)  Averaging Freq.:          0.000000 , Phase:           0.000000 , Cycle:   1
(PID.TID 0000.0001)  missing value: -9.990000000000E+02
(PID.TID 0000.0001)  Levels:    will be set later
(PID.TID 0000.0001)  Fields:    oceQnet
(PID.TID 0000.0001) Creating Output Stream: oceQsw
(PID.TID 0000.0001) Output Frequency:      -3600.000000 ; Phase:        1800.000000
(PID.TID 0000.0001)  Averaging Freq.:          0.000000 , Phase:           0.000000 , Cycle:   1
(PID.TID 0000.0001)  missing value: -9.990000000000E+02
(PID.TID 0000.0001)  Levels:    will be set later
(PID.TID 0000.0001)  Fields:    oceQsw
(PID.TID 0000.0001) Creating Output Stream: SSS
(PID.TID 0000.0001) Output Frequency:      -3600.000000 ; Phase:        1800.000000
(PID.TID 0000.0001)  Averaging Freq.:          0.000000 , Phase:           0.000000 , Cycle:   1
(PID.TID 0000.0001)  missing value: -9.990000000000E+02
(PID.TID 0000.0001)  Levels:       1.
(PID.TID 0000.0001)  Fields:    SALT
(PID.TID 0000.0001) Creating Output Stream: SST
(PID.TID 0000.0001) Output Frequency:      -3600.000000 ; Phase:        1800.000000
(PID.TID 0000.0001)  Averaging Freq.:          0.000000 , Phase:           0.000000 , Cycle:   1
(PID.TID 0000.0001)  missing value: -9.990000000000E+02
(PID.TID 0000.0001)  Levels:       1.
(PID.TID 0000.0001)  Fields:    THETA
(PID.TID 0000.0001) Creating Output Stream: UVEL1
(PID.TID 0000.0001) Output Frequency:      -3600.000000 ; Phase:        1800.000000
(PID.TID 0000.0001)  Averaging Freq.:          0.000000 , Phase:           0.000000 , Cycle:   1
(PID.TID 0000.0001)  missing value: -9.990000000000E+02
(PID.TID 0000.0001)  Levels:       1.
(PID.TID 0000.0001)  Fields:    UVELMASS
(PID.TID 0000.0001) Creating Output Stream: VVEL1
(PID.TID 0000.0001) Output Frequency:      -3600.000000 ; Phase:        1800.000000
(PID.TID 0000.0001)  Averaging Freq.:          0.000000 , Phase:           0.000000 , Cycle:   1
(PID.TID 0000.0001)  missing value: -9.990000000000E+02
(PID.TID 0000.0001)  Levels:       1.
(PID.TID 0000.0001)  Fields:    VVELMASS
(PID.TID 0000.0001) Creating Output Stream: atmPload
(PID.TID 0000.0001) Output Frequency:      -3600.000000 ; Phase:        1800.000000
(PID.TID 0000.0001)  Averaging Freq.:          0.000000 , Phase:           0.000000 , Cycle:   1
(PID.TID 0000.0001)  missing value: -9.990000000000E+02
(PID.TID 0000.0001)  Levels:    will be set later
(PID.TID 0000.0001)  Fields:    atmPload
(PID.TID 0000.0001) -----------------------------------------------------
(PID.TID 0000.0001)  DIAGNOSTICS_READPARMS: statistics diags. summary:
(PID.TID 0000.0001) -----------------------------------------------------
(PID.TID 0000.0001) 
(PID.TID 0000.0001) DEBUG_MSG: CALLING S/R SET_PARMS
(PID.TID 0000.0001) SET_PARMS: done
(PID.TID 0000.0001) DEBUG_MSG: CALLING S/R INI_MODEL_IO
(PID.TID 0000.0001) DEBUG_MSG: CALLING S/R INI_GRID
(PID.TID 0000.0001) Enter INI_VERTICAL_GRID: setInterFDr=    T ; setCenterDr=    F
(PID.TID 0000.0001) tile:   1 ; Read from file grid_cs32.face001.bin
(PID.TID 0000.0001)   => xC yC dxF dyF rA xG yG dxV dyU rAz dxC dyC rAw rAs dxG dyG AngleCS AngleSN
(PID.TID 0000.0001) // =======================================================
(PID.TID 0000.0001) // Field Current xC       at iteration          0
(PID.TID 0000.0001) // CMIN =         -5.451338143305920E+01
(PID.TID 0000.0001) // CMAX =          5.451338143305920E+01
(PID.TID 0000.0001) // CINT =          4.038028254300682E+00
(PID.TID 0000.0001) // SYMBOLS (CMIN->CMAX): -abcdefghijklmnopqrstuvwxyz+
(PID.TID 0000.0001) //                  0.0: .
(PID.TID 0000.0001) // RANGE I (Lo:Hi:Step):(    -3:    36:     1)
(PID.TID 0000.0001) // RANGE J (Lo:Hi:Step):(    36:    -3:    -1)
(PID.TID 0000.0001) // RANGE K (Lo:Hi:Step):(   1:   1:   1)
(PID.TID 0000.0001) // =======================================================
(PID.TID 0000.0001) K =   1
(PID.TID 0000.0001) //                I=6       I=16      I=26      I=36
(PID.TID 0000.0001) // |--J--|321012345|789012345|789012345|789012345|
(PID.TID 0000.0001) //     36 bccdabbbccdefgghjklmnopqsttuvwxxyyyzwxxy
(PID.TID 0000.0001) //     35 bbccbbbccdeefghijklmnopqrstuvvwxxyyyxxyy
(PID.TID 0000.0001) //     34 bbbcbbccddeffghijklmnopqrstuuvwwxxyyxyyy
(PID.TID 0000.0001) //     33 abbbbccddeefghhijklmnopqrsstuvvwwxxyyyyz
(PID.TID 0000.0001) //     32 aabbcccddeffghiijklmnopqrrstuuvwwxxxyyzz
(PID.TID 0000.0001) //     31 aabbcccdeeffghijjklmnopqqrstuuvvwxxxyyzz
(PID.TID 0000.0001) //     30 aabbccddeefgghijkklmnoppqrsttuvvwwxxyyzz
(PID.TID 0000.0001) //     29 -abbccddeefghhijkklmnoppqrsstuvvwwxxyyz+
(PID.TID 0000.0001) //     28 -abbccddeffghhijkklmnoppqrsstuuvwwxxyyz+
(PID.TID 0000.0001) //     27 -aabccddeffghhijkllmnoopqrsstuuvwwxxyzz+
(PID.TID 0000.0001) //     26 -aabccdeeffghiijkllmnoopqrrstuuvvwxxyzz+
(PID.TID 0000.0001) //     25 -aabccdeefgghiijkllmnoopqrrsttuvvwxxyzz+
(PID.TID 0000.0001) //     24 -aabccdeefgghiijkllmnoopqrrsttuvvwxxyzz+
(PID.TID 0000.0001) //     23 -aabccdeefgghiijkllmnoopqrrsttuvvwxxyzz+
(PID.TID 0000.0001) //     22 -aabccdeefgghiijkllmnoopqrrsttuvvwxxyzz+
(PID.TID 0000.0001) //     21 -aabccdeefgghijjkllmnoopqqrsttuvvwxxyzz+
(PID.TID 0000.0001) //     20 -aabccdeefgghijjkllmnoopqqrsttuvvwxxyzz+
(PID.TID 0000.0001) //     19 -aabccdeefgghijjkllmnoopqqrsttuvvwxxyzz+
(PID.TID 0000.0001) //     18 -aabccdeefgghijjkllmnoopqqrsttuvvwxxyzz+
(PID.TID 0000.0001) //     17 -aabccdeefgghijjkllmnoopqqrsttuvvwxxyzz+
(PID.TID 0000.0001) //     16 -aabccdeefgghijjkllmnoopqqrsttuvvwxxyzz+
(PID.TID 0000.0001) //     15 -aabccdeefgghijjkllmnoopqqrsttuvvwxxyzz+
(PID.TID 0000.0001) //     14 -aabccdeefgghijjkllmnoopqqrsttuvvwxxyzz+
(PID.TID 0000.0001) //     13 -aabccdeefgghijjkllmnoopqqrsttuvvwxxyzz+
(PID.TID 0000.0001) //     12 -aabccdeefgghijjkllmnoopqqrsttuvvwxxyzz+
(PID.TID 0000.0001) //     11 -aabccdeefgghiijkllmnoopqrrsttuvvwxxyzz+
(PID.TID 0000.0001) //     10 -aabccdeefgghiijkllmnoopqrrsttuvvwxxyzz+
(PID.TID 0000.0001) //      9 -aabccdeefgghiijkllmnoopqrrsttuvvwxxyzz+
(PID.TID 0000.0001) //      8 -aabccdeefgghiijkllmnoopqrrsttuvvwxxyzz+
(PID.TID 0000.0001) //      7 -aabccdeeffghiijkllmnoopqrrstuuvvwxxyzz+
(PID.TID 0000.0001) //      6 -aabccddeffghhijkllmnoopqrsstuuvwwxxyzz+
(PID.TID 0000.0001) //      5 -abbccddeffghhijkklmnoppqrsstuuvwwxxyyz+
(PID.TID 0000.0001) //      4 -abbccddeefghhijkklmnoppqrsstuvvwwxxyyz+
(PID.TID 0000.0001) //      3 aabbccddeefgghijkklmnoppqrsttuvvwwxxyyzz
(PID.TID 0000.0001) //      2 aabbcccdeeffghijjklmnopqqrstuuvvwxxxyyzz
(PID.TID 0000.0001) //      1 aabbcccddeffghiijklmnopqrrstuuvwwxxxyyzz
(PID.TID 0000.0001) //      0 abbbbccddeefghhijklmnopqrsstuvvwwxxyyyyz
(PID.TID 0000.0001) //     -1 bbbcbbccddeffghijklmnopqrstuuvwwxxyyxyyy
(PID.TID 0000.0001) //     -2 bbccbbbccdeefghijklmnopqrstuvvwxxyyyxxyy
(PID.TID 0000.0001) //     -3 bccdabbbccdefgghjklmnopqsttuvwxxyyyzwxxy
(PID.TID 0000.0001) // =======================================================
(PID.TID 0000.0001) // END OF FIELD                                          =
(PID.TID 0000.0001) // =======================================================
(PID.TID 0000.0001) 
(PID.TID 0000.0001) // =======================================================
(PID.TID 0000.0001) // Field Current yC       at iteration          0
(PID.TID 0000.0001) // CMIN =         -5.449051806197881E+01
(PID.TID 0000.0001) // CMAX =          5.449051806197881E+01
(PID.TID 0000.0001) // CINT =          4.036334671257690E+00
(PID.TID 0000.0001) // SYMBOLS (CMIN->CMAX): -abcdefghijklmnopqrstuvwxyz+
(PID.TID 0000.0001) //                  0.0: .
(PID.TID 0000.0001) // RANGE I (Lo:Hi:Step):(    -3:    36:     1)
(PID.TID 0000.0001) // RANGE J (Lo:Hi:Step):(    36:    -3:    -1)
(PID.TID 0000.0001) // RANGE K (Lo:Hi:Step):(   1:   1:   1)
(PID.TID 0000.0001) // =======================================================
(PID.TID 0000.0001) K =   1
(PID.TID 0000.0001) //                I=6       I=16      I=26      I=36
(PID.TID 0000.0001) // |--J--|321012345|789012345|789012345|789012345|
(PID.TID 0000.0001) //     36 xxwwwwxxxyyyzzz++++++++++zzzyyyxxxwwwwxx
(PID.TID 0000.0001) //     35 xwwwwwwxxxyyyyzzzzzzzzzzzzyyyyxxxwwwwwwx
(PID.TID 0000.0001) //     34 wwwwwwwwxxxxyyyyyzzzzzzyyyyyxxxxwwwwwwww
(PID.TID 0000.0001) //     33 wwwvvwwwwwxxxxyyyyyyyyyyyyxxxxwwwwwvvwww
(PID.TID 0000.0001) //     32 wvvvvvvwwwwwxxxxxxxxxxxxxxxxwwwwwvvvvvvw
(PID.TID 0000.0001) //     31 vvvvvvvvvvwwwwwwwxxxxxxwwwwwwwvvvvvvvvvv
(PID.TID 0000.0001) //     30 vvvuuvvvvvvvvwwwwwwwwwwwwwwvvvvvvvvuuvvv
(PID.TID 0000.0001) //     29 uuuuuuuuuuvvvvvvvvvvvvvvvvvvvvuuuuuuuuuu
(PID.TID 0000.0001) //     28 uuuuuuuuuuuuuuuuvvvvvvvvuuuuuuuuuuuuuuuu
(PID.TID 0000.0001) //     27 ttttttttttttuuuuuuuuuuuuuuuutttttttttttt
(PID.TID 0000.0001) //     26 tttttttttttttttttttttttttttttttttttttttt
(PID.TID 0000.0001) //     25 sssssssssssssssssttttttsssssssssssssssss
(PID.TID 0000.0001) //     24 rrrrrrrrrrssssssssssssssssssssrrrrrrrrrr
(PID.TID 0000.0001) //     23 rrrrrrrrrrrrrrrrrrrrrrrrrrrrrrrrrrrrrrrr
(PID.TID 0000.0001) //     22 qqqqqqqqqqqqqqqqqqqqqqqqqqqqqqqqqqqqqqqq
(PID.TID 0000.0001) //     21 qppppppqqqqqqqqqqqqqqqqqqqqqqqqqqppppppq
(PID.TID 0000.0001) //     20 pppppppppppppppppppppppppppppppppppppppp
(PID.TID 0000.0001) //     19 oooooooooooooooooooooooooooooooooooooooo
(PID.TID 0000.0001) //     18 oooooooooooooooooooooooooooooooooooooooo
(PID.TID 0000.0001) //     17 nnnnnnnnnnnnnnnnnnnnnnnnnnnnnnnnnnnnnnnn
(PID.TID 0000.0001) //     16 mmmmmmmmmmmmmmmmmmmmmmmmmmmmmmmmmmmmmmmm
(PID.TID 0000.0001) //     15 llllllllllllllllllllllllllllllllllllllll
(PID.TID 0000.0001) //     14 llllllllllllllllllllllllllllllllllllllll
(PID.TID 0000.0001) //     13 kkkkkkkkkkkkkkkkkkkkkkkkkkkkkkkkkkkkkkkk
(PID.TID 0000.0001) //     12 jkkkkkkjjjjjjjjjjjjjjjjjjjjjjjjjjkkkkkkj
(PID.TID 0000.0001) //     11 jjjjjjjjjjjjjjjjjjjjjjjjjjjjjjjjjjjjjjjj
(PID.TID 0000.0001) //     10 iiiiiiiiiiiiiiiiiiiiiiiiiiiiiiiiiiiiiiii
(PID.TID 0000.0001) //      9 iiiiiiiiiihhhhhhhhhhhhhhhhhhhhiiiiiiiiii
(PID.TID 0000.0001) //      8 hhhhhhhhhhhhhhhhhgggggghhhhhhhhhhhhhhhhh
(PID.TID 0000.0001) //      7 gggggggggggggggggggggggggggggggggggggggg
(PID.TID 0000.0001) //      6 ggggggggggggffffffffffffffffgggggggggggg
(PID.TID 0000.0001) //      5 ffffffffffffffffeeeeeeeeffffffffffffffff
(PID.TID 0000.0001) //      4 ffffffffffeeeeeeeeeeeeeeeeeeeeffffffffff
(PID.TID 0000.0001) //      3 eeeffeeeeeeeeddddddddddddddeeeeeeeeffeee
(PID.TID 0000.0001) //      2 eeeeeeeeeedddddddccccccdddddddeeeeeeeeee
(PID.TID 0000.0001) //      1 deeeeeedddddccccccccccccccccdddddeeeeeed
(PID.TID 0000.0001) //      0 dddeedddddccccbbbbbbbbbbbbccccdddddeeddd
(PID.TID 0000.0001) //     -1 ddddddddccccbbbbbaaaaaabbbbbccccdddddddd
(PID.TID 0000.0001) //     -2 cddddddcccbbbbaaaaaaaaaaaabbbbcccddddddc
(PID.TID 0000.0001) //     -3 ccddddcccbbbaaa----------aaabbbcccddddcc
(PID.TID 0000.0001) // =======================================================
(PID.TID 0000.0001) // END OF FIELD                                          =
(PID.TID 0000.0001) // =======================================================
(PID.TID 0000.0001) 
(PID.TID 0000.0001) // =======================================================
(PID.TID 0000.0001) // Field Current dxF      at iteration          0
(PID.TID 0000.0001) // CMIN =          1.202082051331828E+05
(PID.TID 0000.0001) // CMAX =          3.236994750082736E+05
(PID.TID 0000.0001) // CINT =          7.536713699077437E+03
(PID.TID 0000.0001) // SYMBOLS (CMIN->CMAX): -abcdefghijklmnopqrstuvwxyz+
(PID.TID 0000.0001) //                  0.0: .
(PID.TID 0000.0001) // RANGE I (Lo:Hi:Step):(    -3:    36:     1)
(PID.TID 0000.0001) // RANGE J (Lo:Hi:Step):(    36:    -3:    -1)
(PID.TID 0000.0001) // RANGE K (Lo:Hi:Step):(   1:   1:   1)
(PID.TID 0000.0001) // =======================================================
(PID.TID 0000.0001) K =   1
(PID.TID 0000.0001) //                I=6       I=16      I=26      I=36
(PID.TID 0000.0001) // |--J--|321012345|789012345|789012345|789012345|
(PID.TID 0000.0001) //     36 nmlkklmnpqrtuvvwxxxxxxxxwvvutrqpnmlkklmn
(PID.TID 0000.0001) //     35 mkjhhjkmoprstuvwwxxxxxxwwvutsrpomkjhhjkm
(PID.TID 0000.0001) //     34 ljgeegjlnpqstuvwwxxxxxxwwvutsqpnljgeegjl
(PID.TID 0000.0001) //     33 khe--ehkmoqstuvwwxxxxxxwwvutsqomkhe--ehk
(PID.TID 0000.0001) //     32 khe--ehkmoqstuvwwxxxxxxwwvutsqomkhe--ehk
(PID.TID 0000.0001) //     31 ljgeegjlnpqstuvwwxxxxxxwwvutsqpnljgeegjl
(PID.TID 0000.0001) //     30 mkjhhjkmoprstuvwwxxxxxxwwvutsrpomkjhhjkm
(PID.TID 0000.0001) //     29 nmlkklmnpqrtuvvwxxxxxxxxwvvutrqpnmlkklmn
(PID.TID 0000.0001) //     28 ponnnnopqrstuvwwxxxyyxxxwwvutsrqponnnnop
(PID.TID 0000.0001) //     27 qppooppqrstuvvwxxxyyyyxxxwvvutsrqppooppq
(PID.TID 0000.0001) //     26 rrqqqqrrstuuvwxxxyyyyyyxxxwvuutsrrqqqqrr
(PID.TID 0000.0001) //     25 tssssssttuuvwwxxyyyyyyyyxxwwvuuttsssssst
(PID.TID 0000.0001) //     24 uttttttuuvvwwxxyyyzzzzyyyxxwwvvuuttttttu
(PID.TID 0000.0001) //     23 vuuuuuuvvvwwxxyyyzzzzzzyyyxxwwvvvuuuuuuv
(PID.TID 0000.0001) //     22 vvvvvvvvwwxxxyyzzzzzzzzzzyyxxxwwvvvvvvvv
(PID.TID 0000.0001) //     21 wwwwwwwwwxxxyyzzzzzzzzzzzzyyxxxwwwwwwwww
(PID.TID 0000.0001) //     20 xwwwwwwxxxxyyyzzzz++++zzzzyyyxxxxwwwwwwx
(PID.TID 0000.0001) //     19 xxxxxxxxxxyyyzzzz++++++zzzzyyyxxxxxxxxxx
(PID.TID 0000.0001) //     18 xxxxxxxxxyyyzzzz++++++++zzzzyyyxxxxxxxxx
(PID.TID 0000.0001) //     17 xxxxxxxxyyyyzzzz++++++++zzzzyyyyxxxxxxxx
(PID.TID 0000.0001) //     16 xxxxxxxxyyyyzzzz++++++++zzzzyyyyxxxxxxxx
(PID.TID 0000.0001) //     15 xxxxxxxxxyyyzzzz++++++++zzzzyyyxxxxxxxxx
(PID.TID 0000.0001) //     14 xxxxxxxxxxyyyzzzz++++++zzzzyyyxxxxxxxxxx
(PID.TID 0000.0001) //     13 xwwwwwwxxxxyyyzzzz++++zzzzyyyxxxxwwwwwwx
(PID.TID 0000.0001) //     12 wwwwwwwwwxxxyyzzzzzzzzzzzzyyxxxwwwwwwwww
(PID.TID 0000.0001) //     11 vvvvvvvvwwxxxyyzzzzzzzzzzyyxxxwwvvvvvvvv
(PID.TID 0000.0001) //     10 vuuuuuuvvvwwxxyyyzzzzzzyyyxxwwvvvuuuuuuv
(PID.TID 0000.0001) //      9 uttttttuuvvwwxxyyyzzzzyyyxxwwvvuuttttttu
(PID.TID 0000.0001) //      8 tssssssttuuvwwxxyyyyyyyyxxwwvuuttsssssst
(PID.TID 0000.0001) //      7 rrqqqqrrstuuvwxxxyyyyyyxxxwvuutsrrqqqqrr
(PID.TID 0000.0001) //      6 qppooppqrstuvvwxxxyyyyxxxwvvutsrqppooppq
(PID.TID 0000.0001) //      5 ponnnnopqrstuvwwxxxyyxxxwwvutsrqponnnnop
(PID.TID 0000.0001) //      4 nmlkklmnpqrtuvvwxxxxxxxxwvvutrqpnmlkklmn
(PID.TID 0000.0001) //      3 mkjhhjkmoprstuvwwxxxxxxwwvutsrpomkjhhjkm
(PID.TID 0000.0001) //      2 ljgeegjlnpqstuvwwxxxxxxwwvutsqpnljgeegjl
(PID.TID 0000.0001) //      1 khe--ehkmoqstuvwwxxxxxxwwvutsqomkhe--ehk
(PID.TID 0000.0001) //      0 khe--ehkmoqstuvwwxxxxxxwwvutsqomkhe--ehk
(PID.TID 0000.0001) //     -1 ljgeegjlnpqstuvwwxxxxxxwwvutsqpnljgeegjl
(PID.TID 0000.0001) //     -2 mkjhhjkmoprstuvwwxxxxxxwwvutsrpomkjhhjkm
(PID.TID 0000.0001) //     -3 nmlkklmnpqrtuvvwxxxxxxxxwvvutrqpnmlkklmn
(PID.TID 0000.0001) // =======================================================
(PID.TID 0000.0001) // END OF FIELD                                          =
(PID.TID 0000.0001) // =======================================================
(PID.TID 0000.0001) 
(PID.TID 0000.0001) // =======================================================
(PID.TID 0000.0001) // Field Current dyF      at iteration          0
(PID.TID 0000.0001) // CMIN =          1.202082051331828E+05
(PID.TID 0000.0001) // CMAX =          3.236994750082736E+05
(PID.TID 0000.0001) // CINT =          7.536713699077437E+03
(PID.TID 0000.0001) // SYMBOLS (CMIN->CMAX): -abcdefghijklmnopqrstuvwxyz+
(PID.TID 0000.0001) //                  0.0: .
(PID.TID 0000.0001) // RANGE I (Lo:Hi:Step):(    -3:    36:     1)
(PID.TID 0000.0001) // RANGE J (Lo:Hi:Step):(    36:    -3:    -1)
(PID.TID 0000.0001) // RANGE K (Lo:Hi:Step):(   1:   1:   1)
(PID.TID 0000.0001) // =======================================================
(PID.TID 0000.0001) K =   1
(PID.TID 0000.0001) //                I=6       I=16      I=26      I=36
(PID.TID 0000.0001) // |--J--|321012345|789012345|789012345|789012345|
(PID.TID 0000.0001) //     36 nmlkklmnpqrtuvvwxxxxxxxxwvvutrqpnmlkklmn
(PID.TID 0000.0001) //     35 mkjhhjkmoprstuvwwxxxxxxwwvutsrpomkjhhjkm
(PID.TID 0000.0001) //     34 ljgeegjlnpqstuvwwxxxxxxwwvutsqpnljgeegjl
(PID.TID 0000.0001) //     33 khe--ehknoqstuvwwxxxxxxwwvutsqonkhe--ehk
(PID.TID 0000.0001) //     32 khe--ehknoqstuvwwxxxxxxwwvutsqonkhe--ehk
(PID.TID 0000.0001) //     31 ljgeegjlnpqstuvwwxxxxxxwwvutsqpnljgeegjl
(PID.TID 0000.0001) //     30 mkjhhjkmoprstuvwwxxxxxxwwvutsrpomkjhhjkm
(PID.TID 0000.0001) //     29 nmlkklmnpqrtuvvwxxxxxxxxwvvutrqpnmlkklmn
(PID.TID 0000.0001) //     28 ponmmnopqrstuvwwxxxyyxxxwwvutsrqponmmnop
(PID.TID 0000.0001) //     27 qppooppqrstuvvwxxxyyyyxxxwvvutsrqppooppq
(PID.TID 0000.0001) //     26 rrqqqqrrstuuvwxxxyyyyyyxxxwvuutsrrqqqqrr
(PID.TID 0000.0001) //     25 tssssssttuuvwwxxyyyyyyyyxxwwvuuttsssssst
(PID.TID 0000.0001) //     24 uttttttuuvvwwxxyyyzzzzyyyxxwwvvuuttttttu
(PID.TID 0000.0001) //     23 vuuuuuuvvvwwxxyyyzzzzzzyyyxxwwvvvuuuuuuv
(PID.TID 0000.0001) //     22 vvvvvvvvwwxxxyyzzzzzzzzzzyyxxxwwvvvvvvvv
(PID.TID 0000.0001) //     21 wwwwwwwwwxxxyyzzzzzzzzzzzzyyxxxwwwwwwwww
(PID.TID 0000.0001) //     20 xwwwwwwxxxxyyyzzzz++++zzzzyyyxxxxwwwwwwx
(PID.TID 0000.0001) //     19 xxxxxxxxxxyyyzzzz++++++zzzzyyyxxxxxxxxxx
(PID.TID 0000.0001) //     18 xxxxxxxxxyyyzzzz++++++++zzzzyyyxxxxxxxxx
(PID.TID 0000.0001) //     17 xxxxxxxxyyyyzzzz++++++++zzzzyyyyxxxxxxxx
(PID.TID 0000.0001) //     16 xxxxxxxxyyyyzzzz++++++++zzzzyyyyxxxxxxxx
(PID.TID 0000.0001) //     15 xxxxxxxxxyyyzzzz++++++++zzzzyyyxxxxxxxxx
(PID.TID 0000.0001) //     14 xxxxxxxxxxyyyzzzz++++++zzzzyyyxxxxxxxxxx
(PID.TID 0000.0001) //     13 xwwwwwwxxxxyyyzzzz++++zzzzyyyxxxxwwwwwwx
(PID.TID 0000.0001) //     12 wwwwwwwwwxxxyyzzzzzzzzzzzzyyxxxwwwwwwwww
(PID.TID 0000.0001) //     11 vvvvvvvvwwxxxyyzzzzzzzzzzyyxxxwwvvvvvvvv
(PID.TID 0000.0001) //     10 vuuuuuuvvvwwxxyyyzzzzzzyyyxxwwvvvuuuuuuv
(PID.TID 0000.0001) //      9 uttttttuuvvwwxxyyyzzzzyyyxxwwvvuuttttttu
(PID.TID 0000.0001) //      8 tssssssttuuvwwxxyyyyyyyyxxwwvuuttsssssst
(PID.TID 0000.0001) //      7 rrqqqqrrstuuvwxxxyyyyyyxxxwvuutsrrqqqqrr
(PID.TID 0000.0001) //      6 qppooppqrstuvvwxxxyyyyxxxwvvutsrqppooppq
(PID.TID 0000.0001) //      5 ponmmnopqrstuvwwxxxyyxxxwwvutsrqponmmnop
(PID.TID 0000.0001) //      4 nmlkklmnpqrtuvvwxxxxxxxxwvvutrqpnmlkklmn
(PID.TID 0000.0001) //      3 mkjhhjkmoprstuvwwxxxxxxwwvutsrpomkjhhjkm
(PID.TID 0000.0001) //      2 ljgeegjlnpqstuvwwxxxxxxwwvutsqpnljgeegjl
(PID.TID 0000.0001) //      1 khe--ehknoqstuvwwxxxxxxwwvutsqonkhe--ehk
(PID.TID 0000.0001) //      0 khe--ehknoqstuvwwxxxxxxwwvutsqonkhe--ehk
(PID.TID 0000.0001) //     -1 ljgeegjlnpqstuvwwxxxxxxwwvutsqpnljgeegjl
(PID.TID 0000.0001) //     -2 mkjhhjkmoprstuvwwxxxxxxwwvutsrpomkjhhjkm
(PID.TID 0000.0001) //     -3 nmlkklmnpqrtuvvwxxxxxxxxwvvutrqpnmlkklmn
(PID.TID 0000.0001) // =======================================================
(PID.TID 0000.0001) // END OF FIELD                                          =
(PID.TID 0000.0001) // =======================================================
(PID.TID 0000.0001) 
(PID.TID 0000.0001) // =======================================================
(PID.TID 0000.0001) // Field Current rA       at iteration          0
(PID.TID 0000.0001) // CMIN =          1.401900702255611E+10
(PID.TID 0000.0001) // CMAX =          1.047926024841940E+11
(PID.TID 0000.0001) // CINT =          3.361985017097700E+09
(PID.TID 0000.0001) // SYMBOLS (CMIN->CMAX): -abcdefghijklmnopqrstuvwxyz+
(PID.TID 0000.0001) //                  0.0: .
(PID.TID 0000.0001) // RANGE I (Lo:Hi:Step):(    -3:    36:     1)
(PID.TID 0000.0001) // RANGE J (Lo:Hi:Step):(    36:    -3:    -1)
(PID.TID 0000.0001) // RANGE K (Lo:Hi:Step):(   1:   1:   1)
(PID.TID 0000.0001) // =======================================================
(PID.TID 0000.0001) K =   1
(PID.TID 0000.0001) //                I=6       I=16      I=26      I=36
(PID.TID 0000.0001) // |--J--|321012345|789012345|789012345|789012345|
(PID.TID 0000.0001) //     36 kjihhijkmnpqrtuuvwwwwwwvuutrqpnmkjihhijk
(PID.TID 0000.0001) //     35 jhgffghjlmoqrstuvvwwwwvvutsrqomljhgffghj
(PID.TID 0000.0001) //     34 igeccegikmoprstuvvwwwwvvutsrpomkigeccegi
(PID.TID 0000.0001) //     33 hfc--cfhjlnpqstuvvwwwwvvutsqpnljhfc--cfh
(PID.TID 0000.0001) //     32 hfc--cfhjlnpqstuvvwwwwvvutsqpnljhfc--cfh
(PID.TID 0000.0001) //     31 igeccegikmoprstuvvwwwwvvutsrpomkigeccegi
(PID.TID 0000.0001) //     30 jhgffghjlmoqrstuvvwwwwvvutsrqomljhgffghj
(PID.TID 0000.0001) //     29 kjihhijkmnpqrtuuvwwwwwwvuutrqpnmkjihhijk
(PID.TID 0000.0001) //     28 mlkjjklmnoqrstuvwwwxxwwwvutsrqonmlkjjklm
(PID.TID 0000.0001) //     27 nmmllmmnoprstuvvwwxxxxwwvvutsrponmmllmmn
(PID.TID 0000.0001) //     26 poonnoopqrsttuvwwxxxxxxwwvuttsrqpoonnoop
(PID.TID 0000.0001) //     25 qqppppqqrsttuvwwxxyyyyxxwwvuttsrqqppppqq
(PID.TID 0000.0001) //     24 rrrqqrrrsttuvwwxxyyyyyyxxwwvuttsrrrqqrrr
(PID.TID 0000.0001) //     23 tssssssttuuvwwxxyyyzzyyyxxwwvuuttsssssst
(PID.TID 0000.0001) //     22 uttttttuuvvwwxxyyzzzzzzyyxxwwvvuuttttttu
(PID.TID 0000.0001) //     21 uuuuuuuuvvwwxxyyzzzzzzzzyyxxwwvvuuuuuuuu
(PID.TID 0000.0001) //     20 vvvvvvvvwwwxxyyzzzz++zzzzyyxxwwwvvvvvvvv
(PID.TID 0000.0001) //     19 wvvvvvvwwwxxyyzzz++++++zzzyyxxwwwvvvvvvw
(PID.TID 0000.0001) //     18 wwwwwwwwwxxyyyzzz++++++zzzyyyxxwwwwwwwww
(PID.TID 0000.0001) //     17 wwwwwwwwxxxyyzzz++++++++zzzyyxxxwwwwwwww
(PID.TID 0000.0001) //     16 wwwwwwwwxxxyyzzz++++++++zzzyyxxxwwwwwwww
(PID.TID 0000.0001) //     15 wwwwwwwwwxxyyyzzz++++++zzzyyyxxwwwwwwwww
(PID.TID 0000.0001) //     14 wvvvvvvwwwxxyyzzz++++++zzzyyxxwwwvvvvvvw
(PID.TID 0000.0001) //     13 vvvvvvvvwwwxxyyzzzz++zzzzyyxxwwwvvvvvvvv
(PID.TID 0000.0001) //     12 uuuuuuuuvvwwxxyyzzzzzzzzyyxxwwvvuuuuuuuu
(PID.TID 0000.0001) //     11 uttttttuuvvwwxxyyzzzzzzyyxxwwvvuuttttttu
(PID.TID 0000.0001) //     10 tssssssttuuvwwxxyyyzzyyyxxwwvuuttsssssst
(PID.TID 0000.0001) //      9 rrrqqrrrsttuvwwxxyyyyyyxxwwvuttsrrrqqrrr
(PID.TID 0000.0001) //      8 qqppppqqrsttuvwwxxyyyyxxwwvuttsrqqppppqq
(PID.TID 0000.0001) //      7 poonnoopqrsttuvwwxxxxxxwwvuttsrqpoonnoop
(PID.TID 0000.0001) //      6 nmmllmmnoprstuvvwwxxxxwwvvutsrponmmllmmn
(PID.TID 0000.0001) //      5 mlkjjklmnoqrstuvwwwxxwwwvutsrqonmlkjjklm
(PID.TID 0000.0001) //      4 kjihhijkmnpqrtuuvwwwwwwvuutrqpnmkjihhijk
(PID.TID 0000.0001) //      3 jhgffghjlmoqrstuvvwwwwvvutsrqomljhgffghj
(PID.TID 0000.0001) //      2 igeccegikmoprstuvvwwwwvvutsrpomkigeccegi
(PID.TID 0000.0001) //      1 hfc--cfhjlnpqstuvvwwwwvvutsqpnljhfc--cfh
(PID.TID 0000.0001) //      0 hfc--cfhjlnpqstuvvwwwwvvutsqpnljhfc--cfh
(PID.TID 0000.0001) //     -1 igeccegikmoprstuvvwwwwvvutsrpomkigeccegi
(PID.TID 0000.0001) //     -2 jhgffghjlmoqrstuvvwwwwvvutsrqomljhgffghj
(PID.TID 0000.0001) //     -3 kjihhijkmnpqrtuuvwwwwwwvuutrqpnmkjihhijk
(PID.TID 0000.0001) // =======================================================
(PID.TID 0000.0001) // END OF FIELD                                          =
(PID.TID 0000.0001) // =======================================================
(PID.TID 0000.0001) 
(PID.TID 0000.0001) // =======================================================
(PID.TID 0000.0001) // Field Current xG       at iteration          0
(PID.TID 0000.0001) // CMIN =         -5.588379761537041E+01
(PID.TID 0000.0001) // CMAX =          5.314943914702768E+01
(PID.TID 0000.0001) // CINT =          4.038268028236966E+00
(PID.TID 0000.0001) // SYMBOLS (CMIN->CMAX): -abcdefghijklmnopqrstuvwxyz+
(PID.TID 0000.0001) //                  0.0: .
(PID.TID 0000.0001) // RANGE I (Lo:Hi:Step):(    -3:    36:     1)
(PID.TID 0000.0001) // RANGE J (Lo:Hi:Step):(    36:    -3:    -1)
(PID.TID 0000.0001) // RANGE K (Lo:Hi:Step):(   1:   1:   1)
(PID.TID 0000.0001) // =======================================================
(PID.TID 0000.0001) K =   1
(PID.TID 0000.0001) //                I=6       I=16      I=26      I=36
(PID.TID 0000.0001) // |--J--|321012345|789012345|789012345|789012345|
(PID.TID 0000.0001) //     36 ccccbbbccddefghhiklm.opqrstuvwwxxyyzzxxy
(PID.TID 0000.0001) //     35 bbccbbccddeefghijklm.opqrstuuvwxxyyyzxyy
(PID.TID 0000.0001) //     34 bbbcbcccdeefgghijklm.opqrsttuvwwxxyyyyyy
(PID.TID 0000.0001) //     33 abbbcccddeefghhijklm.opqrrstuvvwwxxyyyzz
(PID.TID 0000.0001) //     32 aabbcccdeeffghiijklm.opqqrstuuvwwxxyyyzz
(PID.TID 0000.0001) //     31 aabbccddeefgghijjklm.oppqrsttuvvwxxyyyzz
(PID.TID 0000.0001) //     30 aabbccddeefgghijkklm.oppqrsstuvvwwxxyyz+
(PID.TID 0000.0001) //     29 -abbccddeffghhijkklm.oopqrsstuuvwwxxyzz+
(PID.TID 0000.0001) //     28 -abbccddeffghhijkklm.oopqrsstuuvwwxxyzz+
(PID.TID 0000.0001) //     27 -aabccdeeffghiijkllm.oopqrrstuuvwwxxyzz+
(PID.TID 0000.0001) //     26 -aabccdeefgghiijkllm.oopqrrsttuvvwxxyzz+
(PID.TID 0000.0001) //     25 -aabccdeefgghiijkllm.oopqrrsttuvvwxxyzz+
(PID.TID 0000.0001) //     24 -aabccdeefgghiijkllm.oopqrrsttuvvwxxyzz+
(PID.TID 0000.0001) //     23 -aabccdeefgghiijkllm.oopqrrsttuvvwxxyzz+
(PID.TID 0000.0001) //     22 -aabccdeefgghiijkllm.oopqqrsttuvvwxxyzz+
(PID.TID 0000.0001) //     21 -aabccdeefgghijjkllm.oopqqrsttuvvwxxyzz+
(PID.TID 0000.0001) //     20 -aabccdeefgghijjkllm.oopqqrsttuvvwxxyzz+
(PID.TID 0000.0001) //     19 -aabccdeefgghijjkllm.oopqqrsttuvvwxxyzz+
(PID.TID 0000.0001) //     18 -aabccdeefgghijjkllm.oopqqrsttuvvwxxyzz+
(PID.TID 0000.0001) //     17 -aabccdeefgghijjkllm.oopqqrsttuvvwxxyzz+
(PID.TID 0000.0001) //     16 -aabccdeefgghijjkllm.oopqqrsttuvvwxxyzz+
(PID.TID 0000.0001) //     15 -aabccdeefgghijjkllm.oopqqrsttuvvwxxyzz+
(PID.TID 0000.0001) //     14 -aabccdeefgghijjkllm.oopqqrsttuvvwxxyzz+
(PID.TID 0000.0001) //     13 -aabccdeefgghijjkllm.oopqqrsttuvvwxxyzz+
(PID.TID 0000.0001) //     12 -aabccdeefgghiijkllm.oopqqrsttuvvwxxyzz+
(PID.TID 0000.0001) //     11 -aabccdeefgghiijkllm.oopqrrsttuvvwxxyzz+
(PID.TID 0000.0001) //     10 -aabccdeefgghiijkllm.oopqrrsttuvvwxxyzz+
(PID.TID 0000.0001) //      9 -aabccdeefgghiijkllm.oopqrrsttuvvwxxyzz+
(PID.TID 0000.0001) //      8 -aabccdeefgghiijkllm.oopqrrsttuvvwxxyzz+
(PID.TID 0000.0001) //      7 -aabccdeeffghiijkllm.oopqrrstuuvwwxxyzz+
(PID.TID 0000.0001) //      6 -abbccddeffghhijkklm.oopqrsstuuvwwxxyzz+
(PID.TID 0000.0001) //      5 -abbccddeffghhijkklm.oopqrsstuuvwwxxyzz+
(PID.TID 0000.0001) //      4 aabbccddeefgghijkklm.oppqrsstuvvwwxxyyz+
(PID.TID 0000.0001) //      3 aabbccddeefgghijjklm.oppqrsttuvvwxxyyyzz
(PID.TID 0000.0001) //      2 aabbcccdeeffghiijklm.opqqrstuuvwwxxyyyzz
(PID.TID 0000.0001) //      1 abbbcccddeefghhijklm.opqrrstuvvwwxxyyyzz
(PID.TID 0000.0001) //      0 abbcbcccdeefgghijklm.opqrsttuvwwxxyyyyzz
(PID.TID 0000.0001) //     -1 bbccbbccddeefghijklm.opqrstuuvwxxyyyzyyz
(PID.TID 0000.0001) //     -2 bcccbbbccddefghhiklm.opqrstuvwwxxyyzzyyy
(PID.TID 0000.0001) //     -3 bcccaabbccdeefghijkm.opqstuuvwxxyyzzxxxy
(PID.TID 0000.0001) // =======================================================
(PID.TID 0000.0001) // END OF FIELD                                          =
(PID.TID 0000.0001) // =======================================================
(PID.TID 0000.0001) 
(PID.TID 0000.0001) // =======================================================
(PID.TID 0000.0001) // Field Current yG       at iteration          0
(PID.TID 0000.0001) // CMIN =         -5.588379761537041E+01
(PID.TID 0000.0001) // CMAX =          5.314943914702768E+01
(PID.TID 0000.0001) // CINT =          4.038268028236966E+00
(PID.TID 0000.0001) // SYMBOLS (CMIN->CMAX): -abcdefghijklmnopqrstuvwxyz+
(PID.TID 0000.0001) //                  0.0: .
(PID.TID 0000.0001) // RANGE I (Lo:Hi:Step):(    -3:    36:     1)
(PID.TID 0000.0001) // RANGE J (Lo:Hi:Step):(    36:    -3:    -1)
(PID.TID 0000.0001) // RANGE K (Lo:Hi:Step):(   1:   1:   1)
(PID.TID 0000.0001) // =======================================================
(PID.TID 0000.0001) K =   1
(PID.TID 0000.0001) //                I=6       I=16      I=26      I=36
(PID.TID 0000.0001) // |--J--|321012345|789012345|789012345|789012345|
(PID.TID 0000.0001) //     36 xxxwwwxxxyyyzzzz+++++++++zzzzyyyxxxwwwwx
(PID.TID 0000.0001) //     35 xxwwwwwxxxyyyyzzzzzzzzzzzzzyyyyxxxwwwwww
(PID.TID 0000.0001) //     34 wwwwwwwwxxxxyyyyyyzzzzzyyyyyyxxxxwwwwwww
(PID.TID 0000.0001) //     33 wwwwwwwwwwxxxxxyyyyyyyyyyyxxxxxwwwwwwwww
(PID.TID 0000.0001) //     32 wwvvvvvwwwwwxxxxxxxxxxxxxxxxxwwwwwvvvvvw
(PID.TID 0000.0001) //     31 vvvvvvvvvvwwwwwwwxxxxxxxwwwwwwwvvvvvvvvv
(PID.TID 0000.0001) //     30 vvvvvvvvvvvvvvwwwwwwwwwwwwwvvvvvvvvvvvvv
(PID.TID 0000.0001) //     29 uuuuuuuuuuvvvvvvvvvvvvvvvvvvvvvuuuuuuuuu
(PID.TID 0000.0001) //     28 uuuuuuuuuuuuuuuuuvvvvvvvuuuuuuuuuuuuuuuu
(PID.TID 0000.0001) //     27 ttttttttttttuuuuuuuuuuuuuuuuuttttttttttt
(PID.TID 0000.0001) //     26 tttttttttttttttttttttttttttttttttttttttt
(PID.TID 0000.0001) //     25 sssssssssssssssssstttttsssssssssssssssss
(PID.TID 0000.0001) //     24 rrrrrrrrrrsssssssssssssssssssssrrrrrrrrr
(PID.TID 0000.0001) //     23 rrrrrrrrrrrrrrrrrrrrrrrrrrrrrrrrrrrrrrrr
(PID.TID 0000.0001) //     22 qqqqqqqqqqqqqqqqqqqqqqqqqqqqqqqqqqqqqqqq
(PID.TID 0000.0001) //     21 qqqpppqqqqqqqqqqqqqqqqqqqqqqqqqqqqqpppqq
(PID.TID 0000.0001) //     20 pppppppppppppppppppppppppppppppppppppppp
(PID.TID 0000.0001) //     19 oooooooooooooooooooooooooooooooooooooooo
(PID.TID 0000.0001) //     18 oooooooooooooooooooooooooooooooooooooooo
(PID.TID 0000.0001) //     17 ........................................
(PID.TID 0000.0001) //     16 mmmmmmmmmmmmmmmmmmmmmmmmmmmmmmmmmmmmmmmm
(PID.TID 0000.0001) //     15 llllllllllllllllllllllllllllllllllllllll
(PID.TID 0000.0001) //     14 llllllllllllllllllllllllllllllllllllllll
(PID.TID 0000.0001) //     13 kkkkkkkkkkkkkkkkkkkkkkkkkkkkkkkkkkkkkkkk
(PID.TID 0000.0001) //     12 jkkkkkkkjjjjjjjjjjjjjjjjjjjjjjjjjkkkkkkk
(PID.TID 0000.0001) //     11 jjjjjjjjjjjjjjjjjjjjjjjjjjjjjjjjjjjjjjjj
(PID.TID 0000.0001) //     10 iiiiiiiiiiiiiiiiiiiiiiiiiiiiiiiiiiiiiiii
(PID.TID 0000.0001) //      9 iiiiiiiiiiihhhhhhhhhhhhhhhhhhhiiiiiiiiii
(PID.TID 0000.0001) //      8 hhhhhhhhhhhhhhhhhggggggghhhhhhhhhhhhhhhh
(PID.TID 0000.0001) //      7 gghhhhhggggggggggggggggggggggggggghhhhhg
(PID.TID 0000.0001) //      6 gggggggggggggfffffffffffffffgggggggggggg
(PID.TID 0000.0001) //      5 fffgggfffffffffffeeeeeeefffffffffffgggff
(PID.TID 0000.0001) //      4 fffffffffffeeeeeeeeeeeeeeeeeeeffffffffff
(PID.TID 0000.0001) //      3 eefffffeeeeeeedddddddddddddeeeeeeefffffe
(PID.TID 0000.0001) //      2 eeeeeeeeeeeddddddcccccccddddddeeeeeeeeee
(PID.TID 0000.0001) //      1 deeeeeeedddddcccccccccccccccdddddeeeeeee
(PID.TID 0000.0001) //      0 ddeeeeeddddccccbbbbbbbbbbbccccddddeeeedd
(PID.TID 0000.0001) //     -1 dddeeedddccccbbbbbaaaaabbbbbccccdddeeddd
(PID.TID 0000.0001) //     -2 cdddedddcccbbbaaaaaaaaaaaaabbbcccdddeddc
(PID.TID 0000.0001) //     -3 cddddddccbbbaaaa---------aaaabbbccddddcc
(PID.TID 0000.0001) // =======================================================
(PID.TID 0000.0001) // END OF FIELD                                          =
(PID.TID 0000.0001) // =======================================================
(PID.TID 0000.0001) 
(PID.TID 0000.0001) // =======================================================
(PID.TID 0000.0001) // Field Current dxV      at iteration          0
(PID.TID 0000.0001) // CMIN =          8.015229982413632E+04
(PID.TID 0000.0001) // CMAX =          3.238041816275029E+05
(PID.TID 0000.0001) // CINT =          9.024143770495059E+03
(PID.TID 0000.0001) // SYMBOLS (CMIN->CMAX): -abcdefghijklmnopqrstuvwxyz+
(PID.TID 0000.0001) //                  0.0: .
(PID.TID 0000.0001) // RANGE I (Lo:Hi:Step):(    -3:    36:     1)
(PID.TID 0000.0001) // RANGE J (Lo:Hi:Step):(    36:    -3:    -1)
(PID.TID 0000.0001) // RANGE K (Lo:Hi:Step):(   1:   1:   1)
(PID.TID 0000.0001) // =======================================================
(PID.TID 0000.0001) K =   1
(PID.TID 0000.0001) //                I=6       I=16      I=26      I=36
(PID.TID 0000.0001) // |--J--|321012345|789012345|789012345|789012345|
(PID.TID 0000.0001) //     36 onmmmmnoqrstuvwwxxxyyyxxxwwvutsrqonmmmmn
(PID.TID 0000.0001) //     35 nlkjjklnpqrtuvvwxxxyyyxxxwvvutrqpnlkjjkl
(PID.TID 0000.0001) //     34 mkhffhkmoqrsuuvwxxxxyxxxxwvuusrqomkhffhk
(PID.TID 0000.0001) //     33 omjf-fjmoprstuvwxxxxyxxxxwvutsrpomjf-fjm
(PID.TID 0000.0001) //     32 omkhfhkmoqrsuuvwxxxxyxxxxwvuusrqomkhfhkm
(PID.TID 0000.0001) //     31 pnlkjklnpqrtuvvwxxxyyyxxxwvvutrqpnlkjkln
(PID.TID 0000.0001) //     30 qonmmmnoqrstuvwwxxxyyyxxxwwvutsrqonmmmno
(PID.TID 0000.0001) //     29 rqpooopqrstuuvwxxxyyyyyxxxwvuutsrqpooopq
(PID.TID 0000.0001) //     28 srqqqqqrsstuvwwxxyyyyyyyxxwwvutssrqqqqqr
(PID.TID 0000.0001) //     27 tsrrrrrsttuvvwxxyyyyyyyyyxxwvvuttsrrrrrs
(PID.TID 0000.0001) //     26 uttsssttuuvvwxxxyyyyzyyyyxxxwvvuuttssstt
(PID.TID 0000.0001) //     25 uuuutuuuuvvwwxxyyyzzzzzyyyxxwwvvuuuutuuu
(PID.TID 0000.0001) //     24 vvvuuuvvvwwxxxyyyzzzzzzzyyyxxxwwvvvuuuvv
(PID.TID 0000.0001) //     23 wwvvvvvwwwxxxyyyzzzzzzzzzyyyxxxwwwvvvvvw
(PID.TID 0000.0001) //     22 xwwwwwwwxxxxyyyzzzzzzzzzzzyyyxxxxwwwwwww
(PID.TID 0000.0001) //     21 xxxxxxxxxxyyyyzzzz+++++zzzzyyyyxxxxxxxxx
(PID.TID 0000.0001) //     20 xxxxxxxxxyyyyzzzz+++++++zzzzyyyyxxxxxxxx
(PID.TID 0000.0001) //     19 yxxxxxxxyyyyzzzz+++++++++zzzzyyyyxxxxxxx
(PID.TID 0000.0001) //     18 yyyxxxyyyyyyzzzz+++++++++zzzzyyyyyyxxxyy
(PID.TID 0000.0001) //     17 yyyyyyyyyyyzzzzz+++++++++zzzzzyyyyyyyyyy
(PID.TID 0000.0001) //     16 yyyxxxyyyyyyzzzz+++++++++zzzzyyyyyyxxxyy
(PID.TID 0000.0001) //     15 yxxxxxxxyyyyzzzz+++++++++zzzzyyyyxxxxxxx
(PID.TID 0000.0001) //     14 xxxxxxxxxyyyyzzzz+++++++zzzzyyyyxxxxxxxx
(PID.TID 0000.0001) //     13 xxxxxxxxxxyyyyzzzz+++++zzzzyyyyxxxxxxxxx
(PID.TID 0000.0001) //     12 xwwwwwwwxxxxyyyzzzzzzzzzzzyyyxxxxwwwwwww
(PID.TID 0000.0001) //     11 wwvvvvvwwwxxxyyyzzzzzzzzzyyyxxxwwwvvvvvw
(PID.TID 0000.0001) //     10 vvvuuuvvvwwxxxyyyzzzzzzzyyyxxxwwvvvuuuvv
(PID.TID 0000.0001) //      9 uuuutuuuuvvwwxxyyyzzzzzyyyxxwwvvuuuutuuu
(PID.TID 0000.0001) //      8 uttsssttuuvvwxxxyyyyzyyyyxxxwvvuuttssstt
(PID.TID 0000.0001) //      7 tsrrrrrsttuvvwxxyyyyyyyyyxxwvvuttsrrrrrs
(PID.TID 0000.0001) //      6 srqqqqqrsstuvwwxxyyyyyyyxxwwvutssrqqqqqr
(PID.TID 0000.0001) //      5 rqpooopqrstuuvwxxxyyyyyxxxwvuutsrqpooopq
(PID.TID 0000.0001) //      4 qonmmmnoqrstuvwwxxxyyyxxxwwvutsrqonmmmno
(PID.TID 0000.0001) //      3 pnlkjklnpqrtuvvwxxxyyyxxxwvvutrqpnlkjkln
(PID.TID 0000.0001) //      2 omkhfhkmoqrsuuvwxxxxyxxxxwvuusrqomkhfhkm
(PID.TID 0000.0001) //      1 omjf-fjmoprstuvwxxxxyxxxxwvutsrpomjf-fjm
(PID.TID 0000.0001) //      0 omkhfhkmoqrsuuvwxxxxyxxxxwvuusrqomkhfkmo
(PID.TID 0000.0001) //     -1 pnlkjklnpqrtuvvwxxxyyyxxxwvvutrqpnlkjlnp
(PID.TID 0000.0001) //     -2 qonmmmnoqrstuvwwxxxyyyxxxwwvutsrqonmmnoq
(PID.TID 0000.0001) //     -3 qonmoopqrstuuvwxxxyyyyyxxxwvuutsrqpoopqr
(PID.TID 0000.0001) // =======================================================
(PID.TID 0000.0001) // END OF FIELD                                          =
(PID.TID 0000.0001) // =======================================================
(PID.TID 0000.0001) 
(PID.TID 0000.0001) // =======================================================
(PID.TID 0000.0001) // Field Current dyU      at iteration          0
(PID.TID 0000.0001) // CMIN =          8.015229982413632E+04
(PID.TID 0000.0001) // CMAX =          3.238041816275029E+05
(PID.TID 0000.0001) // CINT =          9.024143770495059E+03
(PID.TID 0000.0001) // SYMBOLS (CMIN->CMAX): -abcdefghijklmnopqrstuvwxyz+
(PID.TID 0000.0001) //                  0.0: .
(PID.TID 0000.0001) // RANGE I (Lo:Hi:Step):(    -3:    36:     1)
(PID.TID 0000.0001) // RANGE J (Lo:Hi:Step):(    36:    -3:    -1)
(PID.TID 0000.0001) // RANGE K (Lo:Hi:Step):(   1:   1:   1)
(PID.TID 0000.0001) // =======================================================
(PID.TID 0000.0001) K =   1
(PID.TID 0000.0001) //                I=6       I=16      I=26      I=36
(PID.TID 0000.0001) // |--J--|321012345|789012345|789012345|789012345|
(PID.TID 0000.0001) //     36 onmmmmnoqrstuvwwxxxyyyxxxwwvutsrqonmmmmn
(PID.TID 0000.0001) //     35 nlkjjklnpqrtuvvwxxxyyyxxxwvvutrqpnlkjjkl
(PID.TID 0000.0001) //     34 mkhffhkmoqrsuuvwxxxxyxxxxwvuusrqomkhffhk
(PID.TID 0000.0001) //     33 omjf-fjmoqrstuvwxxxxyxxxxwvutsrqomjf-fjm
(PID.TID 0000.0001) //     32 omkhfhkmoqrsuuvwxxxxyxxxxwvuusrqomkhfhkm
(PID.TID 0000.0001) //     31 pnlkjklnpqrtuvvwxxxyyyxxxwvvutrqpnlkjkln
(PID.TID 0000.0001) //     30 qonmmmnoqrstuvwwxxxyyyxxxwwvutsrqonmmmno
(PID.TID 0000.0001) //     29 rqpooopqrstuuvwxxxyyyyyxxxwvuutsrqpooopq
(PID.TID 0000.0001) //     28 srqqpqqrsstuvwwxxyyyyyyyxxwwvutssrqqpqqr
(PID.TID 0000.0001) //     27 tsrrrrrsttuvvwxxyyyyyyyyyxxwvvuttsrrrrrs
(PID.TID 0000.0001) //     26 uttsssttuuvvwxxxyyyyzyyyyxxxwvvuuttssstt
(PID.TID 0000.0001) //     25 uuuutuuuuvvwwxxyyyzzzzzyyyxxwwvvuuuutuuu
(PID.TID 0000.0001) //     24 vvvuuuvvvwwxxxyyyzzzzzzzyyyxxxwwvvvuuuvv
(PID.TID 0000.0001) //     23 wwvvvvvwwwxxxyyyzzzzzzzzzyyyxxxwwwvvvvvw
(PID.TID 0000.0001) //     22 xwwwwwwwxxxxyyyzzzzzzzzzzzyyyxxxxwwwwwww
(PID.TID 0000.0001) //     21 xxxxxxxxxxyyyyzzzz+++++zzzzyyyyxxxxxxxxx
(PID.TID 0000.0001) //     20 xxxxxxxxxyyyyzzzz+++++++zzzzyyyyxxxxxxxx
(PID.TID 0000.0001) //     19 yxxxxxxxyyyyzzzz+++++++++zzzzyyyyxxxxxxx
(PID.TID 0000.0001) //     18 yyyxxxyyyyyyzzzz+++++++++zzzzyyyyyyxxxyy
(PID.TID 0000.0001) //     17 yyyyyyyyyyyzzzzz+++++++++zzzzzyyyyyyyyyy
(PID.TID 0000.0001) //     16 yyyxxxyyyyyyzzzz+++++++++zzzzyyyyyyxxxyy
(PID.TID 0000.0001) //     15 yxxxxxxxyyyyzzzz+++++++++zzzzyyyyxxxxxxx
(PID.TID 0000.0001) //     14 xxxxxxxxxyyyyzzzz+++++++zzzzyyyyxxxxxxxx
(PID.TID 0000.0001) //     13 xxxxxxxxxxyyyyzzzz+++++zzzzyyyyxxxxxxxxx
(PID.TID 0000.0001) //     12 xwwwwwwwxxxxyyyzzzzzzzzzzzyyyxxxxwwwwwww
(PID.TID 0000.0001) //     11 wwvvvvvwwwxxxyyyzzzzzzzzzyyyxxxwwwvvvvvw
(PID.TID 0000.0001) //     10 vvvuuuvvvwwxxxyyyzzzzzzzyyyxxxwwvvvuuuvv
(PID.TID 0000.0001) //      9 uuuutuuuuvvwwxxyyyzzzzzyyyxxwwvvuuuutuuu
(PID.TID 0000.0001) //      8 uttsssttuuvvwxxxyyyyzyyyyxxxwvvuuttssstt
(PID.TID 0000.0001) //      7 tsrrrrrsttuvvwxxyyyyyyyyyxxwvvuttsrrrrrs
(PID.TID 0000.0001) //      6 srqqpqqrsstuvwwxxyyyyyyyxxwwvutssrqqpqqr
(PID.TID 0000.0001) //      5 rqpooopqrstuuvwxxxyyyyyxxxwvuutsrqpooopq
(PID.TID 0000.0001) //      4 qonmmmnoqrstuvwwxxxyyyxxxwwvutsrqonmmmno
(PID.TID 0000.0001) //      3 pnlkjklnpqrtuvvwxxxyyyxxxwvvutrqpnlkjkln
(PID.TID 0000.0001) //      2 omkhfhkmoqrsuuvwxxxxyxxxxwvuusrqomkhfhkm
(PID.TID 0000.0001) //      1 omjf-fjmoqrstuvwxxxxyxxxxwvutsrqomjf-fjm
(PID.TID 0000.0001) //      0 omkhfhkmoqrsuuvwxxxxyxxxxwvuusrqomkhfkmo
(PID.TID 0000.0001) //     -1 pnlkjklnpqrtuvvwxxxyyyxxxwvvutrqpnlkjlnp
(PID.TID 0000.0001) //     -2 qonmmmnoqrstuvwwxxxyyyxxxwwvutsrqonmmnoq
(PID.TID 0000.0001) //     -3 qonmoopqrstuuvwxxxyyyyyxxxwvuutsrqpoopqr
(PID.TID 0000.0001) // =======================================================
(PID.TID 0000.0001) // END OF FIELD                                          =
(PID.TID 0000.0001) // =======================================================
(PID.TID 0000.0001) 
(PID.TID 0000.0001) // =======================================================
(PID.TID 0000.0001) // Field Current rAz      at iteration          0
(PID.TID 0000.0001) // CMIN =          8.831790061250492E+09
(PID.TID 0000.0001) // CMAX =          1.048434933461918E+11
(PID.TID 0000.0001) // CINT =          3.555989010553382E+09
(PID.TID 0000.0001) // SYMBOLS (CMIN->CMAX): -abcdefghijklmnopqrstuvwxyz+
(PID.TID 0000.0001) //                  0.0: .
(PID.TID 0000.0001) // RANGE I (Lo:Hi:Step):(    -3:    36:     1)
(PID.TID 0000.0001) // RANGE J (Lo:Hi:Step):(    36:    -3:    -1)
(PID.TID 0000.0001) // RANGE K (Lo:Hi:Step):(   1:   1:   1)
(PID.TID 0000.0001) // =======================================================
(PID.TID 0000.0001) K =   1
(PID.TID 0000.0001) //                I=6       I=16      I=26      I=36
(PID.TID 0000.0001) // |--J--|321012345|789012345|789012345|789012345|
(PID.TID 0000.0001) //     36 kkihhhiklnoqrstuvwwwwwwwvutsrqonlkihhhhi
(PID.TID 0000.0001) //     35 iihfffhikmoprstuvvwwwwwvvutsrpomkihffffh
(PID.TID 0000.0001) //     34 hhfdcdfhklnpqstuvvwwwwwvvutsqpnlkhfdccdf
(PID.TID 0000.0001) //     33 jhfc-cfhjlnpqstuvvwwwwwvvutsqpnljhfc-cfh
(PID.TID 0000.0001) //     32 khfdcdfhklnpqstuvvwwwwwvvutsqpnlkhfdcdfh
(PID.TID 0000.0001) //     31 kihfffhikmoprstuvvwwwwwvvutsrpomkihfffhi
(PID.TID 0000.0001) //     30 lkihhhiklnoqrstuvwwwwwwwvutsrqonlkihhhik
(PID.TID 0000.0001) //     29 nlkkjkklnopqstuvvwwxxxwwvvutsqponlkkjkkl
(PID.TID 0000.0001) //     28 onmlllmnopqrstuvwwxxxxxwwvutsrqponmlllmn
(PID.TID 0000.0001) //     27 poonnnoopqrstuvvwxxxxxxxwvvutsrqpoonnnoo
(PID.TID 0000.0001) //     26 qqpppppqqrstuvvwxxxyyyxxxwvvutsrqqpppppq
(PID.TID 0000.0001) //     25 srrqqqrrsstuuvwxxxyyyyyxxxwvuutssrrqqqrr
(PID.TID 0000.0001) //     24 tsssssssttuvvwwxyyyyyyyyyxwwvvuttsssssss
(PID.TID 0000.0001) //     23 utttttttuuvvwwxyyyzzzzzyyyxwwvvuuttttttt
(PID.TID 0000.0001) //     22 vuuuuuuuvvvwxxyyyzzzzzzzyyyxxwvvvuuuuuuu
(PID.TID 0000.0001) //     21 vvvvvvvvvwwxxyyyzzzzzzzzzyyyxxwwvvvvvvvv
(PID.TID 0000.0001) //     20 wwvvvvvwwwxxxyyzzz+++++zzzyyxxxwwwvvvvvw
(PID.TID 0000.0001) //     19 wwwwwwwwwxxxyyzzz+++++++zzzyyxxxwwwwwwww
(PID.TID 0000.0001) //     18 xwwwwwwwxxxyyyzzz+++++++zzzyyyxxxwwwwwww
(PID.TID 0000.0001) //     17 xwwwwwwwxxxyyyzzz+++++++zzzyyyxxxwwwwwww
(PID.TID 0000.0001) //     16 xwwwwwwwxxxyyyzzz+++++++zzzyyyxxxwwwwwww
(PID.TID 0000.0001) //     15 wwwwwwwwwxxxyyzzz+++++++zzzyyxxxwwwwwwww
(PID.TID 0000.0001) //     14 wwvvvvvwwwxxxyyzzz+++++zzzyyxxxwwwvvvvvw
(PID.TID 0000.0001) //     13 vvvvvvvvvwwxxyyyzzzzzzzzzyyyxxwwvvvvvvvv
(PID.TID 0000.0001) //     12 vuuuuuuuvvvwxxyyyzzzzzzzyyyxxwvvvuuuuuuu
(PID.TID 0000.0001) //     11 utttttttuuvvwwxyyyzzzzzyyyxwwvvuuttttttt
(PID.TID 0000.0001) //     10 tsssssssttuvvwwxyyyyyyyyyxwwvvuttsssssss
(PID.TID 0000.0001) //      9 srrqqqrrsstuuvwxxxyyyyyxxxwvuutssrrqqqrr
(PID.TID 0000.0001) //      8 qqpppppqqrstuvvwxxxyyyxxxwvvutsrqqpppppq
(PID.TID 0000.0001) //      7 poonnnoopqrstuvvwxxxxxxxwvvutsrqpoonnnoo
(PID.TID 0000.0001) //      6 onmlllmnopqrstuvwwxxxxxwwvutsrqponmlllmn
(PID.TID 0000.0001) //      5 nlkkjkklnopqstuvvwwxxxwwvvutsqponlkkjkkl
(PID.TID 0000.0001) //      4 lkihhhiklnoqrstuvwwwwwwwvutsrqonlkihhhik
(PID.TID 0000.0001) //      3 kihfffhikmoprstuvvwwwwwvvutsrpomkihfffhi
(PID.TID 0000.0001) //      2 khfdcdfhklnpqstuvvwwwwwvvutsqpnlkhfdcdfh
(PID.TID 0000.0001) //      1 jhfc-cfhjlnpqstuvvwwwwwvvutsqpnljhfc-cfh
(PID.TID 0000.0001) //      0 khfdcdfhklnpqstuvvwwwwwvvutsqpnlkhfdcfhk
(PID.TID 0000.0001) //     -1 kihfffhikmoprstuvvwwwwwvvutsrpomkihffhik
(PID.TID 0000.0001) //     -2 lkihhhiklnoqrstuvwwwwwwwvutsrqonlkihhikl
(PID.TID 0000.0001) //     -3 lkihjkklnopqstuvvwwxxxwwvvutsqponlkkkkln
(PID.TID 0000.0001) // =======================================================
(PID.TID 0000.0001) // END OF FIELD                                          =
(PID.TID 0000.0001) // =======================================================
(PID.TID 0000.0001) 
(PID.TID 0000.0001) // =======================================================
(PID.TID 0000.0001) // Field Current dxC      at iteration          0
(PID.TID 0000.0001) // CMIN =          1.114203141013064E+05
(PID.TID 0000.0001) // CMAX =          3.237518583690030E+05
(PID.TID 0000.0001) // CINT =          7.864131269173949E+03
(PID.TID 0000.0001) // SYMBOLS (CMIN->CMAX): -abcdefghijklmnopqrstuvwxyz+
(PID.TID 0000.0001) //                  0.0: .
(PID.TID 0000.0001) // RANGE I (Lo:Hi:Step):(    -3:    36:     1)
(PID.TID 0000.0001) // RANGE J (Lo:Hi:Step):(    36:    -3:    -1)
(PID.TID 0000.0001) // RANGE K (Lo:Hi:Step):(   1:   1:   1)
(PID.TID 0000.0001) // =======================================================
(PID.TID 0000.0001) K =   1
(PID.TID 0000.0001) //                I=6       I=16      I=26      I=36
(PID.TID 0000.0001) // |--J--|321012345|789012345|789012345|789012345|
(PID.TID 0000.0001) //     36 pnmlllmnpqrstuvwwxxxxxxxwwvutsrqpnmll...
(PID.TID 0000.0001) //     35 nmkjijkmnpqstuvwwxxxxxxxwwvutsqpnmkji...
(PID.TID 0000.0001) //     34 nkigfgiknoqrtuvvwxxxxxxxwvvutrqonkigf...
(PID.TID 0000.0001) //     33 mkhd-dhkmoqrtuvvwxxxxxxxwvvutrqomkhd-d..
(PID.TID 0000.0001) //     32 mkhd-dhkmoqrtuvvwxxxxxxxwvvutrqomkhd-dhk
(PID.TID 0000.0001) //     31 nkigfgiknoqrtuvvwxxxxxxxwvvutrqonkigfgik
(PID.TID 0000.0001) //     30 nmkjijkmnpqstuvwwxxxxxxxwwvutsqpnmkjijkm
(PID.TID 0000.0001) //     29 pnmlllmnpqrstuvwwxxxxxxxwwvutsrqpnmlllmn
(PID.TID 0000.0001) //     28 qponnnopqrstuvwwxxxyyyxxxwwvutsrqponnnop
(PID.TID 0000.0001) //     27 rqpppppqrstuuvwxxxyyyyyxxxwvuutsrqpppppq
(PID.TID 0000.0001) //     26 srrrqrrrstuuvwwxxyyyyyyyxxwwvuutsrrrqrrr
(PID.TID 0000.0001) //     25 ttsssssttuuvwwxxyyyyyyyyyxxwwvuuttssssst
(PID.TID 0000.0001) //     24 uutttttuuvvwwxxyyyzzzzzyyyxxwwvvuutttttu
(PID.TID 0000.0001) //     23 vvuuuuuvvvwwxxyyyzzzzzzzyyyxxwwvvvuuuuuv
(PID.TID 0000.0001) //     22 wvvvvvvvwwwxxyyyzzzzzzzzzyyyxxwwwvvvvvvv
(PID.TID 0000.0001) //     21 wwwwwwwwwxxxyyyzzzzzzzzzzzyyyxxxwwwwwwww
(PID.TID 0000.0001) //     20 xxwwwwwxxxxyyyzzzz+++++zzzzyyyxxxxwwwwwx
(PID.TID 0000.0001) //     19 xxxxxxxxxxyyyzzzz+++++++zzzzyyyxxxxxxxxx
(PID.TID 0000.0001) //     18 xxxxxxxxxyyyzzzz+++++++++zzzzyyyxxxxxxxx
(PID.TID 0000.0001) //     17 yxxxxxxxyyyyzzzz+++++++++zzzzyyyyxxxxxxx
(PID.TID 0000.0001) //     16 yxxxxxxxyyyyzzzz+++++++++zzzzyyyyxxxxxxx
(PID.TID 0000.0001) //     15 xxxxxxxxxyyyzzzz+++++++++zzzzyyyxxxxxxxx
(PID.TID 0000.0001) //     14 xxxxxxxxxxyyyzzzz+++++++zzzzyyyxxxxxxxxx
(PID.TID 0000.0001) //     13 xxwwwwwxxxxyyyzzzz+++++zzzzyyyxxxxwwwwwx
(PID.TID 0000.0001) //     12 wwwwwwwwwxxxyyyzzzzzzzzzzzyyyxxxwwwwwwww
(PID.TID 0000.0001) //     11 wvvvvvvvwwwxxyyyzzzzzzzzzyyyxxwwwvvvvvvv
(PID.TID 0000.0001) //     10 vvuuuuuvvvwwxxyyyzzzzzzzyyyxxwwvvvuuuuuv
(PID.TID 0000.0001) //      9 uutttttuuvvwwxxyyyzzzzzyyyxxwwvvuutttttu
(PID.TID 0000.0001) //      8 ttsssssttuuvwwxxyyyyyyyyyxxwwvuuttssssst
(PID.TID 0000.0001) //      7 srrrqrrrstuuvwwxxyyyyyyyxxwwvuutsrrrqrrr
(PID.TID 0000.0001) //      6 rqpppppqrstuuvwxxxyyyyyxxxwvuutsrqpppppq
(PID.TID 0000.0001) //      5 qponnnopqrstuvwwxxxyyyxxxwwvutsrqponnnop
(PID.TID 0000.0001) //      4 pnmlllmnpqrstuvwwxxxxxxxwwvutsrqpnmlllmn
(PID.TID 0000.0001) //      3 nmkjijkmnpqstuvwwxxxxxxxwwvutsqpnmkjijkm
(PID.TID 0000.0001) //      2 nkigfgiknoqrtuvvwxxxxxxxwvvutrqonkigfgik
(PID.TID 0000.0001) //      1 mkhd-dhkmoqrtuvvwxxxxxxxwvvutrqomkhd-dhk
(PID.TID 0000.0001) //      0 mkhd-dhkmoqrtuvvwxxxxxxxwvvutrqomkhd-dhk
(PID.TID 0000.0001) //     -1 nkigfgiknoqrtuvvwxxxxxxxwvvutrqonkigfgik
(PID.TID 0000.0001) //     -2 nmkjijkmnpqstuvwwxxxxxxxwwvutsqpnmkjijkm
(PID.TID 0000.0001) //     -3 pnmlllmnpqrstuvwwxxxxxxxwwvutsrqpnmlllmn
(PID.TID 0000.0001) // =======================================================
(PID.TID 0000.0001) // END OF FIELD                                          =
(PID.TID 0000.0001) // =======================================================
(PID.TID 0000.0001) 
(PID.TID 0000.0001) // =======================================================
(PID.TID 0000.0001) // Field Current dyC      at iteration          0
(PID.TID 0000.0001) // CMIN =          1.114203141013064E+05
(PID.TID 0000.0001) // CMAX =          3.237518583690030E+05
(PID.TID 0000.0001) // CINT =          7.864131269173949E+03
(PID.TID 0000.0001) // SYMBOLS (CMIN->CMAX): -abcdefghijklmnopqrstuvwxyz+
(PID.TID 0000.0001) //                  0.0: .
(PID.TID 0000.0001) // RANGE I (Lo:Hi:Step):(    -3:    36:     1)
(PID.TID 0000.0001) // RANGE J (Lo:Hi:Step):(    36:    -3:    -1)
(PID.TID 0000.0001) // RANGE K (Lo:Hi:Step):(   1:   1:   1)
(PID.TID 0000.0001) // =======================================================
(PID.TID 0000.0001) K =   1
(PID.TID 0000.0001) //                I=6       I=16      I=26      I=36
(PID.TID 0000.0001) // |--J--|321012345|789012345|789012345|789012345|
(PID.TID 0000.0001) //     36 nmkkkkmnpqrtuvvwxxxxxxxxwvvutrqpnmkk....
(PID.TID 0000.0001) //     35 mkihhikmoprstuvwwxxxxxxwwvutsrpomkih....
(PID.TID 0000.0001) //     34 ljgddgjlnprstuvwwxxxxxxwwvutsrpnljgdd...
(PID.TID 0000.0001) //     33 lif--filnpqstuvwwxxxxxxwwvutsqpnlif--fil
(PID.TID 0000.0001) //     32 ljgddgjlnprstuvwwxxxxxxwwvutsrpnljgddgjl
(PID.TID 0000.0001) //     31 mkihhikmoprstuvwwxxxxxxwwvutsrpomkihhikm
(PID.TID 0000.0001) //     30 nmkkkkmnpqrtuvvwxxxxxxxxwvvutrqpnmkkkkmn
(PID.TID 0000.0001) //     29 pnnmmnnpqrstuvwwxxxyyxxxwwvutsrqpnnmmnnp
(PID.TID 0000.0001) //     28 qpoooopqrstuvvwxxxyyyyxxxwvvutsrqpoooopq
(PID.TID 0000.0001) //     27 rqqqqqqrstuuvwwxxyyyyyyxxwwvuutsrqqqqqqr
(PID.TID 0000.0001) //     26 ssrrrrsstuuvwwxxyyyyyyyyxxwwvuutssrrrrss
(PID.TID 0000.0001) //     25 ttttttttuuvwwxxyyyzzzzyyyxxwwvuutttttttt
(PID.TID 0000.0001) //     24 uuuuuuuuvvwwxxyyyzzzzzzyyyxxwwvvuuuuuuuu
(PID.TID 0000.0001) //     23 vvvvvvvvwwwxxyyyzzzzzzzzyyyxxwwwvvvvvvvv
(PID.TID 0000.0001) //     22 wwvvvvwwwxxxyyyzzzzzzzzzzyyyxxxwwwvvvvww
(PID.TID 0000.0001) //     21 wwwwwwwwxxxyyyzzzz++++zzzzyyyxxxwwwwwwww
(PID.TID 0000.0001) //     20 xxxxxxxxxxyyyzzzz++++++zzzzyyyxxxxxxxxxx
(PID.TID 0000.0001) //     19 xxxxxxxxxyyyzzzz++++++++zzzzyyyxxxxxxxxx
(PID.TID 0000.0001) //     18 xxxxxxxxyyyyzzzz++++++++zzzzyyyyxxxxxxxx
(PID.TID 0000.0001) //     17 xxxxxxxxyyyyzzzz++++++++zzzzyyyyxxxxxxxx
(PID.TID 0000.0001) //     16 xxxxxxxxyyyyzzzz++++++++zzzzyyyyxxxxxxxx
(PID.TID 0000.0001) //     15 xxxxxxxxxyyyzzzz++++++++zzzzyyyxxxxxxxxx
(PID.TID 0000.0001) //     14 xxxxxxxxxxyyyzzzz++++++zzzzyyyxxxxxxxxxx
(PID.TID 0000.0001) //     13 wwwwwwwwxxxyyyzzzz++++zzzzyyyxxxwwwwwwww
(PID.TID 0000.0001) //     12 wwvvvvwwwxxxyyyzzzzzzzzzzyyyxxxwwwvvvvww
(PID.TID 0000.0001) //     11 vvvvvvvvwwwxxyyyzzzzzzzzyyyxxwwwvvvvvvvv
(PID.TID 0000.0001) //     10 uuuuuuuuvvwwxxyyyzzzzzzyyyxxwwvvuuuuuuuu
(PID.TID 0000.0001) //      9 ttttttttuuvwwxxyyyzzzzyyyxxwwvuutttttttt
(PID.TID 0000.0001) //      8 ssrrrrsstuuvwwxxyyyyyyyyxxwwvuutssrrrrss
(PID.TID 0000.0001) //      7 rqqqqqqrstuuvwwxxyyyyyyxxwwvuutsrqqqqqqr
(PID.TID 0000.0001) //      6 qpoooopqrstuvvwxxxyyyyxxxwvvutsrqpoooopq
(PID.TID 0000.0001) //      5 pnnmmnnpqrstuvwwxxxyyxxxwwvutsrqpnnmmnnp
(PID.TID 0000.0001) //      4 nmkkkkmnpqrtuvvwxxxxxxxxwvvutrqpnmkkkkmn
(PID.TID 0000.0001) //      3 mkihhikmoprstuvwwxxxxxxwwvutsrpomkihhikm
(PID.TID 0000.0001) //      2 ljgddgjlnprstuvwwxxxxxxwwvutsrpnljgddgjl
(PID.TID 0000.0001) //      1 lif--filnpqstuvwwxxxxxxwwvutsqpnlif--fil
(PID.TID 0000.0001) //      0 ljgddgjlnprstuvwwxxxxxxwwvutsrpnljgddgjl
(PID.TID 0000.0001) //     -1 mkihhikmoprstuvwwxxxxxxwwvutsrpomkihhikm
(PID.TID 0000.0001) //     -2 nmkkkkmnpqrtuvvwxxxxxxxxwvvutrqpnmkkkkmn
(PID.TID 0000.0001) //     -3 pnnmmnnpqrstuvwwxxxyyxxxwwvutsrqpnnmmnnp
(PID.TID 0000.0001) // =======================================================
(PID.TID 0000.0001) // END OF FIELD                                          =
(PID.TID 0000.0001) // =======================================================
(PID.TID 0000.0001) 
(PID.TID 0000.0001) // =======================================================
(PID.TID 0000.0001) // Field Current rAw      at iteration          0
(PID.TID 0000.0001) // CMIN =          1.216690346714270E+10
(PID.TID 0000.0001) // CMAX =          1.048096527455915E+11
(PID.TID 0000.0001) // CINT =          3.431212936238845E+09
(PID.TID 0000.0001) // SYMBOLS (CMIN->CMAX): -abcdefghijklmnopqrstuvwxyz+
(PID.TID 0000.0001) //                  0.0: .
(PID.TID 0000.0001) // RANGE I (Lo:Hi:Step):(    -3:    36:     1)
(PID.TID 0000.0001) // RANGE J (Lo:Hi:Step):(    36:    -3:    -1)
(PID.TID 0000.0001) // RANGE K (Lo:Hi:Step):(   1:   1:   1)
(PID.TID 0000.0001) // =======================================================
(PID.TID 0000.0001) K =   1
(PID.TID 0000.0001) //                I=6       I=16      I=26      I=36
(PID.TID 0000.0001) // |--J--|321012345|789012345|789012345|789012345|
(PID.TID 0000.0001) //     36 lkjiiijklnoqrstuvwwwwwwwvutsrqonlkjii...
(PID.TID 0000.0001) //     35 kjhgfghjkmopqstuvvwwwwwvvutsqpomkjhgf...
(PID.TID 0000.0001) //     34 jhfdcdfhjlnpqrtuuvwwwwwvuutrqpnljhfdc...
(PID.TID 0000.0001) //     33 jheb-behjlnoqrsuuvwwwwwvuusrqonljheb-b..
(PID.TID 0000.0001) //     32 jheb-behjlnoqrsuuvwwwwwvuusrqonljheb-beh
(PID.TID 0000.0001) //     31 jhfdcdfhjlnpqrtuuvwwwwwvuutrqpnljhfdcdfh
(PID.TID 0000.0001) //     30 kjhgfghjkmopqstuvvwwwwwvvutsqpomkjhgfghj
(PID.TID 0000.0001) //     29 lkjiiijklnoqrstuvwwwwwwwvutsrqonlkjiiijk
(PID.TID 0000.0001) //     28 nmlkkklmnopqstuvvwwxxxwwvvutsqponmlkkklm
(PID.TID 0000.0001) //     27 onmmmmmnopqrstuvwwxxxxxwwvutsrqponmmmmmn
(PID.TID 0000.0001) //     26 ppoooooppqrstuvwwxxxxxxxwwvutsrqppooooop
(PID.TID 0000.0001) //     25 rqqpppqqrrstuvvwxxxyyyxxxwvvutsrrqqpppqq
(PID.TID 0000.0001) //     24 srrrrrrrsttuvvwxxyyyyyyyxxwvvuttsrrrrrrr
(PID.TID 0000.0001) //     23 ttsssssttuuvvwxxyyyyzyyyyxxwvvuuttssssst
(PID.TID 0000.0001) //     22 uutttttuuuvwwxxyyyzzzzzyyyxxwwvuuutttttu
(PID.TID 0000.0001) //     21 vuuuuuuuvvwwxxyyzzzzzzzzzyyxxwwvvuuuuuuu
(PID.TID 0000.0001) //     20 vvvvvvvvvwwxxyyzzzz+++zzzzyyxxwwvvvvvvvv
(PID.TID 0000.0001) //     19 wwvvvvvwwwxxyyyzzz+++++zzzyyyxxwwwvvvvvw
(PID.TID 0000.0001) //     18 wwwwwwwwwxxxyyzzz+++++++zzzyyxxxwwwwwwww
(PID.TID 0000.0001) //     17 wwwwwwwwwxxyyyzzz+++++++zzzyyyxxwwwwwwww
(PID.TID 0000.0001) //     16 wwwwwwwwwxxyyyzzz+++++++zzzyyyxxwwwwwwww
(PID.TID 0000.0001) //     15 wwwwwwwwwxxxyyzzz+++++++zzzyyxxxwwwwwwww
(PID.TID 0000.0001) //     14 wwvvvvvwwwxxyyyzzz+++++zzzyyyxxwwwvvvvvw
(PID.TID 0000.0001) //     13 vvvvvvvvvwwxxyyzzzz+++zzzzyyxxwwvvvvvvvv
(PID.TID 0000.0001) //     12 vuuuuuuuvvwwxxyyzzzzzzzzzyyxxwwvvuuuuuuu
(PID.TID 0000.0001) //     11 uutttttuuuvwwxxyyyzzzzzyyyxxwwvuuutttttu
(PID.TID 0000.0001) //     10 ttsssssttuuvvwxxyyyyzyyyyxxwvvuuttssssst
(PID.TID 0000.0001) //      9 srrrrrrrsttuvvwxxyyyyyyyxxwvvuttsrrrrrrr
(PID.TID 0000.0001) //      8 rqqpppqqrrstuvvwxxxyyyxxxwvvutsrrqqpppqq
(PID.TID 0000.0001) //      7 ppoooooppqrstuvwwxxxxxxxwwvutsrqppooooop
(PID.TID 0000.0001) //      6 onmmmmmnopqrstuvwwxxxxxwwvutsrqponmmmmmn
(PID.TID 0000.0001) //      5 nmlkkklmnopqstuvvwwxxxwwvvutsqponmlkkklm
(PID.TID 0000.0001) //      4 lkjiiijklnoqrstuvwwwwwwwvutsrqonlkjiiijk
(PID.TID 0000.0001) //      3 kjhgfghjkmopqstuvvwwwwwvvutsqpomkjhgfghj
(PID.TID 0000.0001) //      2 jhfdcdfhjlnpqrtuuvwwwwwvuutrqpnljhfdcdfh
(PID.TID 0000.0001) //      1 jheb-behjlnoqrsuuvwwwwwvuusrqonljheb-beh
(PID.TID 0000.0001) //      0 jheb-behjlnoqrsuuvwwwwwvuusrqonljheb-beh
(PID.TID 0000.0001) //     -1 jhfdcdfhjlnpqrtuuvwwwwwvuutrqpnljhfdcdfh
(PID.TID 0000.0001) //     -2 kjhgfghjkmopqstuvvwwwwwvvutsqpomkjhgfghj
(PID.TID 0000.0001) //     -3 lkjiiijklnoqrstuvwwwwwwwvutsrqonlkjiiijk
(PID.TID 0000.0001) // =======================================================
(PID.TID 0000.0001) // END OF FIELD                                          =
(PID.TID 0000.0001) // =======================================================
(PID.TID 0000.0001) 
(PID.TID 0000.0001) // =======================================================
(PID.TID 0000.0001) // Field Current rAs      at iteration          0
(PID.TID 0000.0001) // CMIN =          1.216690346714270E+10
(PID.TID 0000.0001) // CMAX =          1.048096527455915E+11
(PID.TID 0000.0001) // CINT =          3.431212936238845E+09
(PID.TID 0000.0001) // SYMBOLS (CMIN->CMAX): -abcdefghijklmnopqrstuvwxyz+
(PID.TID 0000.0001) //                  0.0: .
(PID.TID 0000.0001) // RANGE I (Lo:Hi:Step):(    -3:    36:     1)
(PID.TID 0000.0001) // RANGE J (Lo:Hi:Step):(    36:    -3:    -1)
(PID.TID 0000.0001) // RANGE K (Lo:Hi:Step):(   1:   1:   1)
(PID.TID 0000.0001) // =======================================================
(PID.TID 0000.0001) K =   1
(PID.TID 0000.0001) //                I=6       I=16      I=26      I=36
(PID.TID 0000.0001) // |--J--|321012345|789012345|789012345|789012345|
(PID.TID 0000.0001) //     36 kjhhhhjkmnpqrtuuvwwwwwwvuutrqpnmkjhh....
(PID.TID 0000.0001) //     35 jhfeefhjlmoqrstuvvwwwwvvutsrqomljhfe....
(PID.TID 0000.0001) //     34 igdbbdgikmoprstuvvwwwwvvutsrpomkigdbb...
(PID.TID 0000.0001) //     33 ifc--cfikmoprstuvvwwwwvvutsrpomkifc--cfi
(PID.TID 0000.0001) //     32 igdbbdgikmoprstuvvwwwwvvutsrpomkigdbbdgi
(PID.TID 0000.0001) //     31 jhfeefhjlmoqrstuvvwwwwvvutsrqomljhfeefhj
(PID.TID 0000.0001) //     30 kjhhhhjkmnpqrtuuvwwwwwwvuutrqpnmkjhhhhjk
(PID.TID 0000.0001) //     29 lkjjjjklnoprstuvvwwwwwwvvutsrponlkjjjjkl
(PID.TID 0000.0001) //     28 nmllllmnopqrtuuvwwxxxxwwvuutrqponmllllmn
(PID.TID 0000.0001) //     27 oonnnnoopqrstuvwwxxxxxxwwvutsrqpoonnnnoo
(PID.TID 0000.0001) //     26 qppooppqqrstuvwwxxxyyxxxwwvutsrqqppooppq
(PID.TID 0000.0001) //     25 rqqqqqqrsstuvvwxxyyyyyyxxwvvutssrqqqqqqr
(PID.TID 0000.0001) //     24 ssrrrrssttuvvwxxyyyyyyyyxxwvvuttssrrrrss
(PID.TID 0000.0001) //     23 tttsstttuuvvwxxyyyzzzzyyyxxwvvuutttssttt
(PID.TID 0000.0001) //     22 uuuuuuuuvvwwxxyyzzzzzzzzyyxxwwvvuuuuuuuu
(PID.TID 0000.0001) //     21 vvuuuuvvvwwxxyyzzzzzzzzzzyyxxwwvvvuuuuvv
(PID.TID 0000.0001) //     20 wvvvvvvwwwxxyyyzzz++++zzzyyyxxwwwvvvvvvw
(PID.TID 0000.0001) //     19 wwwwwwwwwxxxyyzzz++++++zzzyyxxxwwwwwwwww
(PID.TID 0000.0001) //     18 wwwwwwwwxxxyyyzz++++++++zzyyyxxxwwwwwwww
(PID.TID 0000.0001) //     17 wwwwwwwwxxxyyzzz++++++++zzzyyxxxwwwwwwww
(PID.TID 0000.0001) //     16 wwwwwwwwxxxyyyzz++++++++zzyyyxxxwwwwwwww
(PID.TID 0000.0001) //     15 wwwwwwwwwxxxyyzzz++++++zzzyyxxxwwwwwwwww
(PID.TID 0000.0001) //     14 wvvvvvvwwwxxyyyzzz++++zzzyyyxxwwwvvvvvvw
(PID.TID 0000.0001) //     13 vvuuuuvvvwwxxyyzzzzzzzzzzyyxxwwvvvuuuuvv
(PID.TID 0000.0001) //     12 uuuuuuuuvvwwxxyyzzzzzzzzyyxxwwvvuuuuuuuu
(PID.TID 0000.0001) //     11 tttsstttuuvvwxxyyyzzzzyyyxxwvvuutttssttt
(PID.TID 0000.0001) //     10 ssrrrrssttuvvwxxyyyyyyyyxxwvvuttssrrrrss
(PID.TID 0000.0001) //      9 rqqqqqqrsstuvvwxxyyyyyyxxwvvutssrqqqqqqr
(PID.TID 0000.0001) //      8 qppooppqqrstuvwwxxxyyxxxwwvutsrqqppooppq
(PID.TID 0000.0001) //      7 oonnnnoopqrstuvwwxxxxxxwwvutsrqpoonnnnoo
(PID.TID 0000.0001) //      6 nmllllmnopqrtuuvwwxxxxwwvuutrqponmllllmn
(PID.TID 0000.0001) //      5 lkjjjjklnoprstuvvwwwwwwvvutsrponlkjjjjkl
(PID.TID 0000.0001) //      4 kjhhhhjkmnpqrtuuvwwwwwwvuutrqpnmkjhhhhjk
(PID.TID 0000.0001) //      3 jhfeefhjlmoqrstuvvwwwwvvutsrqomljhfeefhj
(PID.TID 0000.0001) //      2 igdbbdgikmoprstuvvwwwwvvutsrpomkigdbbdgi
(PID.TID 0000.0001) //      1 ifc--cfikmoprstuvvwwwwvvutsrpomkifc--cfi
(PID.TID 0000.0001) //      0 igdbbdgikmoprstuvvwwwwvvutsrpomkigdbbdgi
(PID.TID 0000.0001) //     -1 jhfeefhjlmoqrstuvvwwwwvvutsrqomljhfeefhj
(PID.TID 0000.0001) //     -2 kjhhhhjkmnpqrtuuvwwwwwwvuutrqpnmkjhhhhjk
(PID.TID 0000.0001) //     -3 lkjjjjklnoprstuvvwwwwwwvvutsrponlkjjjjkl
(PID.TID 0000.0001) // =======================================================
(PID.TID 0000.0001) // END OF FIELD                                          =
(PID.TID 0000.0001) // =======================================================
(PID.TID 0000.0001) 
(PID.TID 0000.0001) // =======================================================
(PID.TID 0000.0001) // Field Current dxG      at iteration          0
(PID.TID 0000.0001) // CMIN =          1.009837800879055E+05
(PID.TID 0000.0001) // CMAX =          3.237519587277332E+05
(PID.TID 0000.0001) // CINT =          8.250673282956579E+03
(PID.TID 0000.0001) // SYMBOLS (CMIN->CMAX): -abcdefghijklmnopqrstuvwxyz+
(PID.TID 0000.0001) //                  0.0: .
(PID.TID 0000.0001) // RANGE I (Lo:Hi:Step):(    -3:    36:     1)
(PID.TID 0000.0001) // RANGE J (Lo:Hi:Step):(    36:    -3:    -1)
(PID.TID 0000.0001) // RANGE K (Lo:Hi:Step):(   1:   1:   1)
(PID.TID 0000.0001) // =======================================================
(PID.TID 0000.0001) K =   1
(PID.TID 0000.0001) //                I=6       I=16      I=26      I=36
(PID.TID 0000.0001) // |--J--|321012345|789012345|789012345|789012345|
(PID.TID 0000.0001) //     36 omlkklmoprstuvwwxxxyyxxxwwvutsrpomlk....
(PID.TID 0000.0001) //     35 nljiijlnoqrtuvvwxxxxxxxxwvvutrqonlji....
(PID.TID 0000.0001) //     34 mjheehjmoqrstuvwwxxxxxxwwvutsrqomjhee...
(PID.TID 0000.0001) //     33 ljf--fjloprstuvwwxxxxxxwwvutsrpoljf--fjl
(PID.TID 0000.0001) //     32 mjheehjmoqrstuvwwxxxxxxwwvutsrqomjheehjm
(PID.TID 0000.0001) //     31 nljiijlnoqrtuvvwxxxxxxxxwvvutrqonljiijln
(PID.TID 0000.0001) //     30 omlkklmoprstuvwwxxxyyxxxwwvutsrpomlkklmo
(PID.TID 0000.0001) //     29 ponnnnopqrstuvwwxxyyyyxxwwvutsrqponnnnop
(PID.TID 0000.0001) //     28 qqppppqqrstuvwwxxyyyyyyxxwwvutsrqqppppqq
(PID.TID 0000.0001) //     27 srqqqqrsstuvvwxxyyyyyyyyxxwvvutssrqqqqrs
(PID.TID 0000.0001) //     26 tssssssttuvvwwxxyyyyyyyyxxwwvvuttsssssst
(PID.TID 0000.0001) //     25 uttttttuuvvwwxxyyyzzzzyyyxxwwvvuuttttttu
(PID.TID 0000.0001) //     24 vuuuuuuvvvwwxxyyyzzzzzzyyyxxwwvvvuuuuuuv
(PID.TID 0000.0001) //     23 vvvvvvvvwwxxxyyyzzzzzzzzyyyxxxwwvvvvvvvv
(PID.TID 0000.0001) //     22 wwwwwwwwwxxxyyyzzzzzzzzzzyyyxxxwwwwwwwww
(PID.TID 0000.0001) //     21 xwwwwwwxxxxyyyzzzz++++zzzzyyyxxxxwwwwwwx
(PID.TID 0000.0001) //     20 xxxxxxxxxyyyyzzzz++++++zzzzyyyyxxxxxxxxx
(PID.TID 0000.0001) //     19 xxxxxxxxyyyyzzzz++++++++zzzzyyyyxxxxxxxx
(PID.TID 0000.0001) //     18 yxxxxxxyyyyyzzzz++++++++zzzzyyyyyxxxxxxy
(PID.TID 0000.0001) //     17 yxxxxxxyyyyzzzz++++++++++zzzzyyyyxxxxxxy
(PID.TID 0000.0001) //     16 yxxxxxxyyyyyzzzz++++++++zzzzyyyyyxxxxxxy
(PID.TID 0000.0001) //     15 xxxxxxxxyyyyzzzz++++++++zzzzyyyyxxxxxxxx
(PID.TID 0000.0001) //     14 xxxxxxxxxyyyyzzzz++++++zzzzyyyyxxxxxxxxx
(PID.TID 0000.0001) //     13 xwwwwwwxxxxyyyzzzz++++zzzzyyyxxxxwwwwwwx
(PID.TID 0000.0001) //     12 wwwwwwwwwxxxyyyzzzzzzzzzzyyyxxxwwwwwwwww
(PID.TID 0000.0001) //     11 vvvvvvvvwwxxxyyyzzzzzzzzyyyxxxwwvvvvvvvv
(PID.TID 0000.0001) //     10 vuuuuuuvvvwwxxyyyzzzzzzyyyxxwwvvvuuuuuuv
(PID.TID 0000.0001) //      9 uttttttuuvvwwxxyyyzzzzyyyxxwwvvuuttttttu
(PID.TID 0000.0001) //      8 tssssssttuvvwwxxyyyyyyyyxxwwvvuttsssssst
(PID.TID 0000.0001) //      7 srqqqqrsstuvvwxxyyyyyyyyxxwvvutssrqqqqrs
(PID.TID 0000.0001) //      6 qqppppqqrstuvwwxxyyyyyyxxwwvutsrqqppppqq
(PID.TID 0000.0001) //      5 ponnnnopqrstuvwwxxyyyyxxwwvutsrqponnnnop
(PID.TID 0000.0001) //      4 omlkklmoprstuvwwxxxyyxxxwwvutsrpomlkklmo
(PID.TID 0000.0001) //      3 nljiijlnoqrtuvvwxxxxxxxxwvvutrqonljiijln
(PID.TID 0000.0001) //      2 mjheehjmoqrstuvwwxxxxxxwwvutsrqomjheehjm
(PID.TID 0000.0001) //      1 ljf--fjloprstuvwwxxxxxxwwvutsrpoljf--fjl
(PID.TID 0000.0001) //      0 mjheehjmoqrstuvwwxxxxxxwwvutsrqomjheehjm
(PID.TID 0000.0001) //     -1 nljiijlnoqrtuvvwxxxxxxxxwvvutrqonljiijln
(PID.TID 0000.0001) //     -2 omlkklmoprstuvwwxxxyyxxxwwvutsrpomlkklmo
(PID.TID 0000.0001) //     -3 ponnnnopqrstuvwwxxyyyyxxwwvutsrqponnnnop
(PID.TID 0000.0001) // =======================================================
(PID.TID 0000.0001) // END OF FIELD                                          =
(PID.TID 0000.0001) // =======================================================
(PID.TID 0000.0001) 
(PID.TID 0000.0001) // =======================================================
(PID.TID 0000.0001) // Field Current dyG      at iteration          0
(PID.TID 0000.0001) // CMIN =          1.009837800879055E+05
(PID.TID 0000.0001) // CMAX =          3.237519587277332E+05
(PID.TID 0000.0001) // CINT =          8.250673282956579E+03
(PID.TID 0000.0001) // SYMBOLS (CMIN->CMAX): -abcdefghijklmnopqrstuvwxyz+
(PID.TID 0000.0001) //                  0.0: .
(PID.TID 0000.0001) // RANGE I (Lo:Hi:Step):(    -3:    36:     1)
(PID.TID 0000.0001) // RANGE J (Lo:Hi:Step):(    36:    -3:    -1)
(PID.TID 0000.0001) // RANGE K (Lo:Hi:Step):(   1:   1:   1)
(PID.TID 0000.0001) // =======================================================
(PID.TID 0000.0001) K =   1
(PID.TID 0000.0001) //                I=6       I=16      I=26      I=36
(PID.TID 0000.0001) // |--J--|321012345|789012345|789012345|789012345|
(PID.TID 0000.0001) //     36 ponmlmnopqstuvvwxxxyyyxxxwvvutsqponml...
(PID.TID 0000.0001) //     35 omljjjlmoqrstuvwwxxxxxxxwwvutsrqomljj...
(PID.TID 0000.0001) //     34 nljhfhjlnpqstuvwwxxxxxxxwwvutsqpnljhf...
(PID.TID 0000.0001) //     33 nkie-eiknpqstuvwwxxxxxxxwwvutsqpnkie-e..
(PID.TID 0000.0001) //     32 nkie-eiknpqstuvwwxxxxxxxwwvutsqpnkie-eik
(PID.TID 0000.0001) //     31 nljhfhjlnpqstuvwwxxxxxxxwwvutsqpnljhfhjl
(PID.TID 0000.0001) //     30 omljjjlmoqrstuvwwxxxxxxxwwvutsrqomljjjlm
(PID.TID 0000.0001) //     29 ponmlmnopqstuvvwxxxyyyxxxwvvutsqponmlmno
(PID.TID 0000.0001) //     28 qpooooopqrstuvwwxxyyyyyxxwwvutsrqpooooop
(PID.TID 0000.0001) //     27 rrqqpqqrrstuvvwxxyyyyyyyxxwvvutsrrqqpqqr
(PID.TID 0000.0001) //     26 ssrrrrrsstuvvwxxxyyyyyyyxxxwvvutssrrrrrs
(PID.TID 0000.0001) //     25 tttssstttuvvwwxxyyyyzyyyyxxwwvvutttssstt
(PID.TID 0000.0001) //     24 uuutttuuuvvwwxxyyyzzzzzyyyxxwwvvuuutttuu
(PID.TID 0000.0001) //     23 vvvuuuvvvwwwxxyyyzzzzzzzyyyxxwwwvvvuuuvv
(PID.TID 0000.0001) //     22 wwvvvvvwwwxxxyyyzzzzzzzzzyyyxxxwwwvvvvvw
(PID.TID 0000.0001) //     21 wwwwwwwwwxxxyyyzzzzz+zzzzzyyyxxxwwwwwwww
(PID.TID 0000.0001) //     20 xxxwwwxxxxyyyyzzzz+++++zzzzyyyyxxxxwwwxx
(PID.TID 0000.0001) //     19 xxxxxxxxxyyyyzzzz+++++++zzzzyyyyxxxxxxxx
(PID.TID 0000.0001) //     18 yxxxxxxxyyyyzzzz+++++++++zzzzyyyyxxxxxxx
(PID.TID 0000.0001) //     17 yyxxxxxyyyyyzzzz+++++++++zzzzyyyyyxxxxxy
(PID.TID 0000.0001) //     16 yyxxxxxyyyyyzzzz+++++++++zzzzyyyyyxxxxxy
(PID.TID 0000.0001) //     15 yxxxxxxxyyyyzzzz+++++++++zzzzyyyyxxxxxxx
(PID.TID 0000.0001) //     14 xxxxxxxxxyyyyzzzz+++++++zzzzyyyyxxxxxxxx
(PID.TID 0000.0001) //     13 xxxwwwxxxxyyyyzzzz+++++zzzzyyyyxxxxwwwxx
(PID.TID 0000.0001) //     12 wwwwwwwwwxxxyyyzzzzz+zzzzzyyyxxxwwwwwwww
(PID.TID 0000.0001) //     11 wwvvvvvwwwxxxyyyzzzzzzzzzyyyxxxwwwvvvvvw
(PID.TID 0000.0001) //     10 vvvuuuvvvwwwxxyyyzzzzzzzyyyxxwwwvvvuuuvv
(PID.TID 0000.0001) //      9 uuutttuuuvvwwxxyyyzzzzzyyyxxwwvvuuutttuu
(PID.TID 0000.0001) //      8 tttssstttuvvwwxxyyyyzyyyyxxwwvvutttssstt
(PID.TID 0000.0001) //      7 ssrrrrrsstuvvwxxxyyyyyyyxxxwvvutssrrrrrs
(PID.TID 0000.0001) //      6 rrqqpqqrrstuvvwxxyyyyyyyxxwvvutsrrqqpqqr
(PID.TID 0000.0001) //      5 qpooooopqrstuvwwxxyyyyyxxwwvutsrqpooooop
(PID.TID 0000.0001) //      4 ponmlmnopqstuvvwxxxyyyxxxwvvutsqponmlmno
(PID.TID 0000.0001) //      3 omljjjlmoqrstuvwwxxxxxxxwwvutsrqomljjjlm
(PID.TID 0000.0001) //      2 nljhfhjlnpqstuvwwxxxxxxxwwvutsqpnljhfhjl
(PID.TID 0000.0001) //      1 nkie-eiknpqstuvwwxxxxxxxwwvutsqpnkie-eik
(PID.TID 0000.0001) //      0 nkie-eiknpqstuvwwxxxxxxxwwvutsqpnkie-eik
(PID.TID 0000.0001) //     -1 nljhfhjlnpqstuvwwxxxxxxxwwvutsqpnljhfhjl
(PID.TID 0000.0001) //     -2 omljjjlmoqrstuvwwxxxxxxxwwvutsrqomljjjlm
(PID.TID 0000.0001) //     -3 ponmlmnopqstuvvwxxxyyyxxxwvvutsqponmlmno
(PID.TID 0000.0001) // =======================================================
(PID.TID 0000.0001) // END OF FIELD                                          =
(PID.TID 0000.0001) // =======================================================
(PID.TID 0000.0001) 
(PID.TID 0000.0001) // =======================================================
(PID.TID 0000.0001) // Field Current AngleCS  at iteration          0
(PID.TID 0000.0001) // CMIN =         -8.675017125048656E-01
(PID.TID 0000.0001) // CMAX =          9.999999475671936E-01
(PID.TID 0000.0001) // CINT =          6.916672815081701E-02
(PID.TID 0000.0001) // SYMBOLS (CMIN->CMAX): -abcdefghijklmnopqrstuvwxyz+
(PID.TID 0000.0001) //                  0.0: .
(PID.TID 0000.0001) // RANGE I (Lo:Hi:Step):(    -3:    36:     1)
(PID.TID 0000.0001) // RANGE J (Lo:Hi:Step):(    36:    -3:    -1)
(PID.TID 0000.0001) // RANGE K (Lo:Hi:Step):(   1:   1:   1)
(PID.TID 0000.0001) // =======================================================
(PID.TID 0000.0001) K =   1
(PID.TID 0000.0001) //                I=6       I=16      I=26      I=36
(PID.TID 0000.0001) // |--J--|321012345|789012345|789012345|789012345|
(PID.TID 0000.0001) //     36 bba-tuvwwxxyyzzz++++++++zzzyyxxwwvutyxxw
(PID.TID 0000.0001) //     35 cba-tvwxxyyyzzzz++++++++zzzzyyyxxwvtyxwv
(PID.TID 0000.0001) //     34 dcbauwxxyyyzzzz++++++++++zzzzyyyxxwuxwvu
(PID.TID 0000.0001) //     33 eedbwxyyyzzzzzz++++++++++zzzzzzyyyxwwutt
(PID.TID 0000.0001) //     32 zzzzzzzzzzzzzz++++++++++++zzzzzzzzzzzzzz
(PID.TID 0000.0001) //     31 zz++++zzzzzz++++++++++++++++zzzzzz++++zz
(PID.TID 0000.0001) //     30 ++++++++++++++++++++++++++++++++++++++++
(PID.TID 0000.0001) //     29 ++++++++++++++++++++++++++++++++++++++++
(PID.TID 0000.0001) //     28 ++++++++++++++++++++++++++++++++++++++++
(PID.TID 0000.0001) //     27 ++++++++++++++++++++++++++++++++++++++++
(PID.TID 0000.0001) //     26 ++++++++++++++++++++++++++++++++++++++++
(PID.TID 0000.0001) //     25 ++++++++++++++++++++++++++++++++++++++++
(PID.TID 0000.0001) //     24 ++++++++++++++++++++++++++++++++++++++++
(PID.TID 0000.0001) //     23 ++++++++++++++++++++++++++++++++++++++++
(PID.TID 0000.0001) //     22 ++++++++++++++++++++++++++++++++++++++++
(PID.TID 0000.0001) //     21 ++++++++++++++++++++++++++++++++++++++++
(PID.TID 0000.0001) //     20 ++++++++++++++++++++++++++++++++++++++++
(PID.TID 0000.0001) //     19 ++++++++++++++++++++++++++++++++++++++++
(PID.TID 0000.0001) //     18 ++++++++++++++++++++++++++++++++++++++++
(PID.TID 0000.0001) //     17 ++++++++++++++++++++++++++++++++++++++++
(PID.TID 0000.0001) //     16 ++++++++++++++++++++++++++++++++++++++++
(PID.TID 0000.0001) //     15 ++++++++++++++++++++++++++++++++++++++++
(PID.TID 0000.0001) //     14 ++++++++++++++++++++++++++++++++++++++++
(PID.TID 0000.0001) //     13 ++++++++++++++++++++++++++++++++++++++++
(PID.TID 0000.0001) //     12 ++++++++++++++++++++++++++++++++++++++++
(PID.TID 0000.0001) //     11 ++++++++++++++++++++++++++++++++++++++++
(PID.TID 0000.0001) //     10 ++++++++++++++++++++++++++++++++++++++++
(PID.TID 0000.0001) //      9 ++++++++++++++++++++++++++++++++++++++++
(PID.TID 0000.0001) //      8 ++++++++++++++++++++++++++++++++++++++++
(PID.TID 0000.0001) //      7 ++++++++++++++++++++++++++++++++++++++++
(PID.TID 0000.0001) //      6 ++++++++++++++++++++++++++++++++++++++++
(PID.TID 0000.0001) //      5 ++++++++++++++++++++++++++++++++++++++++
(PID.TID 0000.0001) //      4 ++++++++++++++++++++++++++++++++++++++++
(PID.TID 0000.0001) //      3 ++++++++++++++++++++++++++++++++++++++++
(PID.TID 0000.0001) //      2 zz++++zzzzzz++++++++++++++++zzzzzz++++zz
(PID.TID 0000.0001) //      1 zzzzzzzzzzzzzz++++++++++++zzzzzzzzzzzzzz
(PID.TID 0000.0001) //      0 yyxwwxyyyzzzzzz++++++++++zzzzzzyyyxwwutt
(PID.TID 0000.0001) //     -1 xxwuuwxxyyyzzzz++++++++++zzzzyyyxxwuxwvu
(PID.TID 0000.0001) //     -2 xwvttvwxxyyyzzzz++++++++zzzzyyyxxwvtyxwv
(PID.TID 0000.0001) //     -3 wvuttuvwwxxyyzzz++++++++zzzyyxxwwvutyxxw
(PID.TID 0000.0001) // =======================================================
(PID.TID 0000.0001) // END OF FIELD                                          =
(PID.TID 0000.0001) // =======================================================
(PID.TID 0000.0001) 
(PID.TID 0000.0001) // =======================================================
(PID.TID 0000.0001) // Field Current AngleSN  at iteration          0
(PID.TID 0000.0001) // CMIN =         -8.675017125048713E-01
(PID.TID 0000.0001) // CMAX =          8.675017125048713E-01
(PID.TID 0000.0001) // CINT =          6.425938611147194E-02
(PID.TID 0000.0001) // SYMBOLS (CMIN->CMAX): -abcdefghijklmnopqrstuvwxyz+
(PID.TID 0000.0001) //                  0.0: .
(PID.TID 0000.0001) // RANGE I (Lo:Hi:Step):(    -3:    36:     1)
(PID.TID 0000.0001) // RANGE J (Lo:Hi:Step):(    36:    -3:    -1)
(PID.TID 0000.0001) // RANGE K (Lo:Hi:Step):(   1:   1:   1)
(PID.TID 0000.0001) // =======================================================
(PID.TID 0000.0001) K =   1
(PID.TID 0000.0001) //                I=6       I=16      I=26      I=36
(PID.TID 0000.0001) // |--J--|321012345|789012345|789012345|789012345|
(PID.TID 0000.0001) //     36 bcdf+zyyxwvvutsrqponmlkjihgfeedcbba-fdcb
(PID.TID 0000.0001) //     35 bbde+zyxwvvutssrqponmlkjihhgfeedcba-edbb
(PID.TID 0000.0001) //     34 aabezywwvuutssrqqponmlkjjihhgffeddbaebaa
(PID.TID 0000.0001) //     33 --abyvvuuttssrrqpoonmllkjiihhggffeebba--
(PID.TID 0000.0001) //     32 gggirttttsssrrqppoonmllkkjiihhhggggirttt
(PID.TID 0000.0001) //     31 iijloqrrsrrrrqqpponnmmlkkjjiiiihiijloqrr
(PID.TID 0000.0001) //     30 jjkmnpqqrrqqqqppoonnmmllkkjjjjiijjkmnpqq
(PID.TID 0000.0001) //     29 kklmnoppqqqqpppooonnmmlllkkkjjjjkklmnopp
(PID.TID 0000.0001) //     28 kllmnoopppppppooonnnmmmlllkkkkkkkllmnoop
(PID.TID 0000.0001) //     27 llmmnnoopppppoooonnnmmmllllkkkkkllmmnnoo
(PID.TID 0000.0001) //     26 llmmnnoooooooooonnnnmmmmllllllllllmmnnoo
(PID.TID 0000.0001) //     25 lmmmnnnoooooooonnnnnmmmmmllllllllmmmnnno
(PID.TID 0000.0001) //     24 mmmmnnnnnooooonnnnnnmmmmmmlllllmmmmmnnnn
(PID.TID 0000.0001) //     23 mmmmnnnnnnnnnnnnnnnnmmmmmmmmmmmmmmmmnnnn
(PID.TID 0000.0001) //     22 mmmmnnnnnnnnnnnnnnnnmmmmmmmmmmmmmmmmnnnn
(PID.TID 0000.0001) //     21 mmmmnnnnnnnnnnnnnnnnmmmmmmmmmmmmmmmmnnnn
(PID.TID 0000.0001) //     20 mmmmnnnnnnnnnnnnnnnnmmmmmmmmmmmmmmmmnnnn
(PID.TID 0000.0001) //     19 mmmmnnnnnnnnnnnnnnnnmmmmmmmmmmmmmmmmnnnn
(PID.TID 0000.0001) //     18 mmmmnnnnnnnnnnnnnnnnmmmmmmmmmmmmmmmmnnnn
(PID.TID 0000.0001) //     17 mmmmnnnnnnnnnnnnnnnnmmmmmmmmmmmmmmmmnnnn
(PID.TID 0000.0001) //     16 nnnnmmmmmmmmmmmmmmmmnnnnnnnnnnnnnnnnmmmm
(PID.TID 0000.0001) //     15 nnnnmmmmmmmmmmmmmmmmnnnnnnnnnnnnnnnnmmmm
(PID.TID 0000.0001) //     14 nnnnmmmmmmmmmmmmmmmmnnnnnnnnnnnnnnnnmmmm
(PID.TID 0000.0001) //     13 nnnnmmmmmmmmmmmmmmmmnnnnnnnnnnnnnnnnmmmm
(PID.TID 0000.0001) //     12 nnnnmmmmmmmmmmmmmmmmnnnnnnnnnnnnnnnnmmmm
(PID.TID 0000.0001) //     11 nnnnmmmmmmmmmmmmmmmmnnnnnnnnnnnnnnnnmmmm
(PID.TID 0000.0001) //     10 nnnnmmmmmmmmmmmmmmmmnnnnnnnnnnnnnnnnmmmm
(PID.TID 0000.0001) //      9 nnnnmmmmmlllllmmmmmmnnnnnnooooonnnnnmmmm
(PID.TID 0000.0001) //      8 onnnmmmllllllllmmmmmnnnnnoooooooonnnmmml
(PID.TID 0000.0001) //      7 oonnmmllllllllllmmmmnnnnoooooooooonnmmll
(PID.TID 0000.0001) //      6 oonnmmllkkkkkllllmmmnnnoooopppppoonnmmll
(PID.TID 0000.0001) //      5 poonmllkkkkkkklllmmmnnnooopppppppoonmllk
(PID.TID 0000.0001) //      4 pponmlkkjjjjkkklllmmnnooopppqqqqpponmlkk
(PID.TID 0000.0001) //      3 qqpnmkjjiijjjjkkllmmnnooppqqqqrrqqpnmkjj
(PID.TID 0000.0001) //      2 rrqoljiihiiiijjkklmmnnoppqqrrrrsrrqoljii
(PID.TID 0000.0001) //      1 tttrigggghhhiijkkllmnooppqrrsssttttriggg
(PID.TID 0000.0001) //      0 uvvybeeffgghhiijkllmnoopqrrssttuuvvyyz++
(PID.TID 0000.0001) //     -1 wwyzabddeffghhijjklmnopqqrsstuuvwwyzvyzz
(PID.TID 0000.0001) //     -2 xyz+-abcdeefghhijklmnopqrsstuvvwxyz+vwyy
(PID.TID 0000.0001) //     -3 yyz+-abbcdeefghijklmnopqrstuvvwxyyz+uwxy
(PID.TID 0000.0001) // =======================================================
(PID.TID 0000.0001) // END OF FIELD                                          =
(PID.TID 0000.0001) // =======================================================
(PID.TID 0000.0001) 
(PID.TID 0000.0001) %MON XC_max                       =   1.7854351589505E+02
(PID.TID 0000.0001) %MON XC_min                       =  -1.7854351589505E+02
(PID.TID 0000.0001) %MON XC_mean                      =  -4.6999441375798E-15
(PID.TID 0000.0001) %MON XC_sd                        =   1.0355545336287E+02
(PID.TID 0000.0001) %MON XG_max                       =   1.8000000000000E+02
(PID.TID 0000.0001) %MON XG_min                       =  -1.7708797161002E+02
(PID.TID 0000.0001) %MON XG_mean                      =   1.8603515625000E+00
(PID.TID 0000.0001) %MON XG_sd                        =   1.0357130300504E+02
(PID.TID 0000.0001) %MON DXC_max                      =   3.2375185836900E+05
(PID.TID 0000.0001) %MON DXC_min                      =   1.1142031410131E+05
(PID.TID 0000.0001) %MON DXC_mean                     =   2.8605689051214E+05
(PID.TID 0000.0001) %MON DXC_sd                       =   3.4042087138252E+04
(PID.TID 0000.0001) %MON DXF_max                      =   3.2369947500827E+05
(PID.TID 0000.0001) %MON DXF_min                      =   1.2020820513318E+05
(PID.TID 0000.0001) %MON DXF_mean                     =   2.8605437324820E+05
(PID.TID 0000.0001) %MON DXF_sd                       =   3.4050524252539E+04
(PID.TID 0000.0001) %MON DXG_max                      =   3.2375195872773E+05
(PID.TID 0000.0001) %MON DXG_min                      =   1.0098378008791E+05
(PID.TID 0000.0001) %MON DXG_mean                     =   2.8603818508931E+05
(PID.TID 0000.0001) %MON DXG_sd                       =   3.4140406908005E+04
(PID.TID 0000.0001) %MON DXV_max                      =   3.2380418162750E+05
(PID.TID 0000.0001) %MON DXV_min                      =   8.0152299824136E+04
(PID.TID 0000.0001) %MON DXV_mean                     =   2.8603970633619E+05
(PID.TID 0000.0001) %MON DXV_sd                       =   3.4145142117723E+04
(PID.TID 0000.0001) %MON YC_max                       =   8.7940663871962E+01
(PID.TID 0000.0001) %MON YC_min                       =  -8.7940663871962E+01
(PID.TID 0000.0001) %MON YC_mean                      =   0.0000000000000E+00
(PID.TID 0000.0001) %MON YC_sd                        =   3.8676242969072E+01
(PID.TID 0000.0001) %MON YG_max                       =   9.0000000000000E+01
(PID.TID 0000.0001) %MON YG_min                       =  -9.0000000000000E+01
(PID.TID 0000.0001) %MON YG_mean                      =  -1.1842378929335E-15
(PID.TID 0000.0001) %MON YG_sd                        =   3.8676895860710E+01
(PID.TID 0000.0001) %MON DYC_max                      =   3.2375185836900E+05
(PID.TID 0000.0001) %MON DYC_min                      =   1.1142031410131E+05
(PID.TID 0000.0001) %MON DYC_mean                     =   2.8605689051214E+05
(PID.TID 0000.0001) %MON DYC_sd                       =   3.4042087138252E+04
(PID.TID 0000.0001) %MON DYF_max                      =   3.2369947500827E+05
(PID.TID 0000.0001) %MON DYF_min                      =   1.2020820513318E+05
(PID.TID 0000.0001) %MON DYF_mean                     =   2.8605437324820E+05
(PID.TID 0000.0001) %MON DYF_sd                       =   3.4050524252539E+04
(PID.TID 0000.0001) %MON DYG_max                      =   3.2375195872773E+05
(PID.TID 0000.0001) %MON DYG_min                      =   1.0098378008791E+05
(PID.TID 0000.0001) %MON DYG_mean                     =   2.8603818508931E+05
(PID.TID 0000.0001) %MON DYG_sd                       =   3.4140406908005E+04
(PID.TID 0000.0001) %MON DYU_max                      =   3.2380418162750E+05
(PID.TID 0000.0001) %MON DYU_min                      =   8.0152299824136E+04
(PID.TID 0000.0001) %MON DYU_mean                     =   2.8603970633619E+05
(PID.TID 0000.0001) %MON DYU_sd                       =   3.4145142117723E+04
(PID.TID 0000.0001) %MON RA_max                       =   1.0479260248419E+11
(PID.TID 0000.0001) %MON RA_min                       =   1.4019007022556E+10
(PID.TID 0000.0001) %MON RA_mean                      =   8.2992246709265E+10
(PID.TID 0000.0001) %MON RA_sd                        =   1.7509089299457E+10
(PID.TID 0000.0001) %MON RAW_max                      =   1.0480965274559E+11
(PID.TID 0000.0001) %MON RAW_min                      =   1.2166903467143E+10
(PID.TID 0000.0001) %MON RAW_mean                     =   8.2992246709235E+10
(PID.TID 0000.0001) %MON RAW_sd                       =   1.7481917919656E+10
(PID.TID 0000.0001) %MON RAS_max                      =   1.0480965274559E+11
(PID.TID 0000.0001) %MON RAS_min                      =   1.2166903467143E+10
(PID.TID 0000.0001) %MON RAS_mean                     =   8.2992246709235E+10
(PID.TID 0000.0001) %MON RAS_sd                       =   1.7481917919656E+10
(PID.TID 0000.0001) %MON RAZ_max                      =   1.0484349334619E+11
(PID.TID 0000.0001) %MON RAZ_min                      =   8.8317900612505E+09
(PID.TID 0000.0001) %MON RAZ_mean                     =   8.2992246709235E+10
(PID.TID 0000.0001) %MON RAZ_sd                       =   1.7482297311044E+10
(PID.TID 0000.0001) %MON AngleCS_max                  =   9.9999994756719E-01
(PID.TID 0000.0001) %MON AngleCS_min                  =  -9.9968286884824E-01
(PID.TID 0000.0001) %MON AngleCS_mean                 =   3.3078922539000E-01
(PID.TID 0000.0001) %MON AngleCS_sd                   =   6.2496278958502E-01
(PID.TID 0000.0001) %MON AngleSN_max                  =   9.9968286884824E-01
(PID.TID 0000.0001) %MON AngleSN_min                  =  -9.9999994756719E-01
(PID.TID 0000.0001) %MON AngleSN_mean                 =  -3.3078922539000E-01
(PID.TID 0000.0001) %MON AngleSN_sd                   =   6.2496278958502E-01
(PID.TID 0000.0001) DEBUG_MSG: CALLING S/R LOAD_REF_FILES
(PID.TID 0000.0001) DEBUG_MSG: CALLING S/R INI_EOS
(PID.TID 0000.0001) DEBUG_MSG: CALLING S/R SET_REF_STATE
(PID.TID 0000.0001)  MDS_WRITEVEC_LOC: open file: RhoRef.data
(PID.TID 0000.0001)  MDS_WR_REC_RL: iRec,Dim =         1         16
(PID.TID 0000.0001) DEBUG_MSG: CALLING S/R SET_GRID_FACTORS
(PID.TID 0000.0001) DEBUG_MSG: CALLING S/R INI_DEPTHS
(PID.TID 0000.0001)  MDS_READ_FIELD: opening global file: bathy_Hmin50.bin
(PID.TID 0000.0001) // =======================================================
(PID.TID 0000.0001) // Field Bottom depths (ini_depths)
(PID.TID 0000.0001) // CMIN =         -5.937000000000000E+03
(PID.TID 0000.0001) // CMAX =         -5.000000000000000E+01
(PID.TID 0000.0001) // CINT =          2.180370370370370E+02
(PID.TID 0000.0001) // SYMBOLS (CMIN->CMAX): -abcdefghijklmnopqrstuvwxyz+
(PID.TID 0000.0001) //                  0.0: .
(PID.TID 0000.0001) // RANGE I (Lo:Hi:Step):(    -3:    36:     1)
(PID.TID 0000.0001) // RANGE J (Lo:Hi:Step):(    36:    -3:    -1)
(PID.TID 0000.0001) // RANGE K (Lo:Hi:Step):(   1:   1:   1)
(PID.TID 0000.0001) // =======================================================
(PID.TID 0000.0001) K =   1
(PID.TID 0000.0001) //                I=6       I=16      I=26      I=36
(PID.TID 0000.0001) // |--J--|321012345|789012345|789012345|789012345|
(PID.TID 0000.0001) //     36 feefcfgfffghkmjjoo..++..................
(PID.TID 0000.0001) //     35 gfdfccfeehhilmihix+..........zrv........
(PID.TID 0000.0001) //     34 fcdedddefhjmomgffn++........tqqt........
(PID.TID 0000.0001) //     33 ccdeeefffhlpomigfff+.......+t...........
(PID.TID 0000.0001) //     32 cdegghijkmrrnjiddmrz..w.+..+............
(PID.TID 0000.0001) //     31 eeefiikmoqprohdddu..voss+t.z............
(PID.TID 0000.0001) //     30 cddgjknnmmmkhfdgfx.yoorzrlmwpoqt........
(PID.TID 0000.0001) //     29 bcfiknlkiilgcchigpzy...+xlnqoovz........
(PID.TID 0000.0001) //     28 bdfimkifffhdceghl........u..............
(PID.TID 0000.0001) //     27 bdfjkieddddcdfjoy......................+
(PID.TID 0000.0001) //     26 bdgkifda--bceilw.......................+
(PID.TID 0000.0001) //     25 bdfkiebbbcbcfk+..................x......
(PID.TID 0000.0001) //     24 ddhkidbbdfefhl...................x......
(PID.TID 0000.0001) //     23 dfikgdcddefjlm...................zz.....
(PID.TID 0000.0001) //     22 cdikiedbaceijl....................zz..so
(PID.TID 0000.0001) //     21 edefjfdbabbdeh.....................yttun
(PID.TID 0000.0001) //     20 ieeefiifddcdeh+.......................nf
(PID.TID 0000.0001) //     19 +nihffgjkihhjfeu......................dd
(PID.TID 0000.0001) //     18 ..xkiggimkihjeefkwnripz..............mdd
(PID.TID 0000.0001) //     17 ..+xhhhikmjjfeeffdddfio.............kfdd
(PID.TID 0000.0001) //     16 ....wlkhgghfffikiedeghm............lfedf
(PID.TID 0000.0001) //     15 ......ynhebbdfikkhefeeht..........tifeeo
(PID.TID 0000.0001) //     14 ........fbbbdfimkgffbcfk..........piggfj
(PID.TID 0000.0001) //     13 .......+ebbbbfimkgfdbbehz.........pjigii
(PID.TID 0000.0001) //     12 .......hfcbbcfklkhfbbbdj..........tmkrgg
(PID.TID 0000.0001) //     11 ......rgfdbbdfkmkhedbbdk..........omp.ig
(PID.TID 0000.0001) //     10 ......wigecbdfjmkhddbbdp.........vpt..gf
(PID.TID 0000.0001) //      9 ......wjhfcbceikmfdccfln+.......+pow.+ff
(PID.TID 0000.0001) //      8 .....zmhfdcbbdilifdcckgiz.......wmmy.lfh
(PID.TID 0000.0001) //      7 ...+zpkhfccdefimkhfefkefy.......rlku.idd
(PID.TID 0000.0001) //      6 ..+zpnhggfddegimkhffkddgu......urghltfcc
(PID.TID 0000.0001) //      5 ..+pjjiimjjffijmkhhigddfm+....vpkefkondd
(PID.TID 0000.0001) //      4 .+vlkiimmijfiijmiiifdcdegy...nnodegpqhff
(PID.TID 0000.0001) //      3 +wmjjiffghiiiilmmljddccdehwjhhnoddhtrkig
(PID.TID 0000.0001) //      2 rlihgfeeffgghikmkkhfeddfeddlihjdddhtsjhh
(PID.TID 0000.0001) //      1 heeeedddeeffgikmkihhgfffddelhhedddiqpkjn
(PID.TID 0000.0001) //      0 cddddddddddfffikmmkhfffeeedddeddghmnnkmo
(PID.TID 0000.0001) //     -1 ccdddddcccddefhikmljiiiffdbbdgikmmkkmkol
(PID.TID 0000.0001) //     -2 dddddcdcccbcdfghikoonjkkgebfkppponomhmnm
(PID.TID 0000.0001) //     -3 dccdccdddcbcdhgghjmoomjllifghkrpmmlogmom
(PID.TID 0000.0001) // =======================================================
(PID.TID 0000.0001) // END OF FIELD                                          =
(PID.TID 0000.0001) // =======================================================
(PID.TID 0000.0001) 
(PID.TID 0000.0001) // =======================================================
(PID.TID 0000.0001) // Field Surface reference r-position (ini_depths)
(PID.TID 0000.0001) // CMIN =          1.000000000000000E+32
(PID.TID 0000.0001) // CMAX =         -1.000000000000000E+32
(PID.TID 0000.0001) // CINT =          0.000000000000000E+00
(PID.TID 0000.0001) // SYMBOLS (CMIN->CMAX): -abcdefghijklmnopqrstuvwxyz+
(PID.TID 0000.0001) //                  0.0: .
(PID.TID 0000.0001) // RANGE I (Lo:Hi:Step):(    -3:    36:     1)
(PID.TID 0000.0001) // RANGE J (Lo:Hi:Step):(    36:    -3:    -1)
(PID.TID 0000.0001) // RANGE K (Lo:Hi:Step):(   1:   1:   1)
(PID.TID 0000.0001) // =======================================================
(PID.TID 0000.0001) // =======================================================
(PID.TID 0000.0001) // END OF FIELD                                          =
(PID.TID 0000.0001) // =======================================================
(PID.TID 0000.0001) 
(PID.TID 0000.0001) DEBUG_MSG: CALLING S/R INI_MASKS_ETC
(PID.TID 0000.0001) // =======================================================
(PID.TID 0000.0001) // Field Model R_low (ini_masks_etc)
(PID.TID 0000.0001) // CMIN =         -5.200000000000000E+03
(PID.TID 0000.0001) // CMAX =         -5.000000000000000E+01
(PID.TID 0000.0001) // CINT =          1.907407407407407E+02
(PID.TID 0000.0001) // SYMBOLS (CMIN->CMAX): -abcdefghijklmnopqrstuvwxyz+
(PID.TID 0000.0001) //                  0.0: .
(PID.TID 0000.0001) // RANGE I (Lo:Hi:Step):(    -3:    36:     1)
(PID.TID 0000.0001) // RANGE J (Lo:Hi:Step):(    36:    -3:    -1)
(PID.TID 0000.0001) // RANGE K (Lo:Hi:Step):(   1:   1:   1)
(PID.TID 0000.0001) // =======================================================
(PID.TID 0000.0001) K =   1
(PID.TID 0000.0001) //                I=6       I=16      I=26      I=36
(PID.TID 0000.0001) // |--J--|321012345|789012345|789012345|789012345|
(PID.TID 0000.0001) //     36 cbbc-ddcbcdehkhhmn..++..................
(PID.TID 0000.0001) //     35 dcac--cbbeefjkfefw+..........zpu........
(PID.TID 0000.0001) //     34 d--ba-abcehjnldcclz+........spps........
(PID.TID 0000.0001) //     33 --abbbccceiomkfdbbc+.......+s...........
(PID.TID 0000.0001) //     32 --bddefhhkqqlgfaakqz..v.+..+............
(PID.TID 0000.0001) //     31 abbcffijnpnqneaaat..umrr+s.z............
(PID.TID 0000.0001) //     30 --adgillkkkifcadcx.ymmqzqikvnnps........
(PID.TID 0000.0001) //     29 --cfiljigfjd--efdozy...+ximpnnuz........
(PID.TID 0000.0001) //     28 -abgkhfcccea-bdei........t..............
(PID.TID 0000.0001) //     27 -acghfbaaaa-achmy......................+
(PID.TID 0000.0001) //     26 -adhfca-----bfiv.......................+
(PID.TID 0000.0001) //     25 -achfa------ch+..................w......
(PID.TID 0000.0001) //     24 aaeifa--acbcei...................w......
(PID.TID 0000.0001) //     23 abfida-aabchjk...................zz.....
(PID.TID 0000.0001) //     22 -afhfaa---bfgi....................zz..rn
(PID.TID 0000.0001) //     21 babcgca----abe.....................ysstl
(PID.TID 0000.0001) //     20 fbbbcgfcaa-aae+.......................lc
(PID.TID 0000.0001) //     19 zmfeccdghfeegcbt......................aa
(PID.TID 0000.0001) //     18 ..wifedfkhfegbbcivlqfoz..............jaa
(PID.TID 0000.0001) //     17 ..+wfeefikhgcbbccaaacgn.............icaa
(PID.TID 0000.0001) //     16 ....wiheddeccdfhfbabdfl............jdbad
(PID.TID 0000.0001) //     15 ......ylea--acfihebcbbes..........sfcbbn
(PID.TID 0000.0001) //     14 ........c---acgkhdcc--di..........ofddch
(PID.TID 0000.0001) //     13 .......+b----cfkhec---afz.........nhfdff
(PID.TID 0000.0001) //     12 .......ec----chjhec---ag..........skiqdd
(PID.TID 0000.0001) //     11 ......pdca--achlheba--ai..........nkn.fd
(PID.TID 0000.0001) //     10 ......wfdb--achlhea---an.........uos..dc
(PID.TID 0000.0001) //      9 ......vgec---bfikca--cjl+.......+nnv.+cc
(PID.TID 0000.0001) //      8 .....zleca---afjfca--hdfz.......vkky.jce
(PID.TID 0000.0001) //      7 ...+zohec--abcfkhecbchbdx.......qiht.faa
(PID.TID 0000.0001) //      6 ..+yomfddcaabefkifdchaadt......uqdeisc--
(PID.TID 0000.0001) //      5 ..+nhgffkghccfhkhffgdaackz....uoibcimlaa
(PID.TID 0000.0001) //      4 .+ujhgfllfhdffhkfffca-aady...llnabdopfcb
(PID.TID 0000.0001) //      3 +vjggfcceeffffjlkjgaa---bfvheeln-aesphfd
(PID.TID 0000.0001) //      2 qifeecbbccddefilihecbaacbaajfega-aesqhff
(PID.TID 0000.0001) //      1 ebbbbaaaaaccdfhlhfefdcccaabjefbaaafonhgl
(PID.TID 0000.0001) //      0 -aaaaaaa-aacccfikkhecccbbbaaabaadfkllilm
(PID.TID 0000.0001) //     -1 --aaaaa----aacffiljgfffcca--adfikkiikimi
(PID.TID 0000.0001) //     -2 --aaa-------acdefinmlgiieb-chnnnmlmlfklk
(PID.TID 0000.0001) //     -3 a--a---aa---aedeegknmlgiigcdfhpokkimdkmk
(PID.TID 0000.0001) // =======================================================
(PID.TID 0000.0001) // END OF FIELD                                          =
(PID.TID 0000.0001) // =======================================================
(PID.TID 0000.0001) 
(PID.TID 0000.0001) // =======================================================
(PID.TID 0000.0001) // Field Model Ro_surf (ini_masks_etc)
(PID.TID 0000.0001) // CMIN =          1.000000000000000E+32
(PID.TID 0000.0001) // CMAX =         -1.000000000000000E+32
(PID.TID 0000.0001) // CINT =          0.000000000000000E+00
(PID.TID 0000.0001) // SYMBOLS (CMIN->CMAX): -abcdefghijklmnopqrstuvwxyz+
(PID.TID 0000.0001) //                  0.0: .
(PID.TID 0000.0001) // RANGE I (Lo:Hi:Step):(    -3:    36:     1)
(PID.TID 0000.0001) // RANGE J (Lo:Hi:Step):(    36:    -3:    -1)
(PID.TID 0000.0001) // RANGE K (Lo:Hi:Step):(   1:   1:   1)
(PID.TID 0000.0001) // =======================================================
(PID.TID 0000.0001) // =======================================================
(PID.TID 0000.0001) // END OF FIELD                                          =
(PID.TID 0000.0001) // =======================================================
(PID.TID 0000.0001) 
(PID.TID 0000.0001) // =======================================================
(PID.TID 0000.0001) // Field hFacC at iteration          0
(PID.TID 0000.0001) // CMIN =          1.000000000000000E+00
(PID.TID 0000.0001) // CMAX =          1.000000000000000E+00
(PID.TID 0000.0001) // CINT =          0.000000000000000E+00
(PID.TID 0000.0001) // SYMBOLS (CMIN->CMAX): -abcdefghijklmnopqrstuvwxyz+
(PID.TID 0000.0001) //                  0.0: .
(PID.TID 0000.0001) // RANGE I (Lo:Hi:Step):(    -3:    36:     1)
(PID.TID 0000.0001) // RANGE J (Lo:Hi:Step):(    36:    -3:    -1)
(PID.TID 0000.0001) // RANGE K (Lo:Hi:Step):(   1:   1:   1)
(PID.TID 0000.0001) // =======================================================
(PID.TID 0000.0001) // =======================================================
(PID.TID 0000.0001) // END OF FIELD                                          =
(PID.TID 0000.0001) // =======================================================
(PID.TID 0000.0001) 
(PID.TID 0000.0001) // =======================================================
(PID.TID 0000.0001) // Field hFacW at iteration          0
(PID.TID 0000.0001) // CMIN =          1.000000000000000E+00
(PID.TID 0000.0001) // CMAX =          1.000000000000000E+00
(PID.TID 0000.0001) // CINT =          0.000000000000000E+00
(PID.TID 0000.0001) // SYMBOLS (CMIN->CMAX): -abcdefghijklmnopqrstuvwxyz+
(PID.TID 0000.0001) //                  0.0: .
(PID.TID 0000.0001) // RANGE I (Lo:Hi:Step):(    -3:    36:     1)
(PID.TID 0000.0001) // RANGE J (Lo:Hi:Step):(    36:    -3:    -1)
(PID.TID 0000.0001) // RANGE K (Lo:Hi:Step):(   1:   1:   1)
(PID.TID 0000.0001) // =======================================================
(PID.TID 0000.0001) // =======================================================
(PID.TID 0000.0001) // END OF FIELD                                          =
(PID.TID 0000.0001) // =======================================================
(PID.TID 0000.0001) 
(PID.TID 0000.0001) // =======================================================
(PID.TID 0000.0001) // Field hFacS at iteration          0
(PID.TID 0000.0001) // CMIN =          1.000000000000000E+00
(PID.TID 0000.0001) // CMAX =          1.000000000000000E+00
(PID.TID 0000.0001) // CINT =          0.000000000000000E+00
(PID.TID 0000.0001) // SYMBOLS (CMIN->CMAX): -abcdefghijklmnopqrstuvwxyz+
(PID.TID 0000.0001) //                  0.0: .
(PID.TID 0000.0001) // RANGE I (Lo:Hi:Step):(    -3:    36:     1)
(PID.TID 0000.0001) // RANGE J (Lo:Hi:Step):(    36:    -3:    -1)
(PID.TID 0000.0001) // RANGE K (Lo:Hi:Step):(   1:   1:   1)
(PID.TID 0000.0001) // =======================================================
(PID.TID 0000.0001) // =======================================================
(PID.TID 0000.0001) // END OF FIELD                                          =
(PID.TID 0000.0001) // =======================================================
(PID.TID 0000.0001) 
(PID.TID 0000.0001) DEBUG_MSG: CALLING S/R PACKAGES_INIT_FIXED
(PID.TID 0000.0001) DEBUG_MSG: ENTERED S/R PACKAGES_INIT_FIXED
(PID.TID 0000.0001) DEBUG_MSG: CALLING S/R DIAGNOSTICS_INIT_EARLY
(PID.TID 0000.0001) DEBUG_MSG: CALLING S/R DIAGNOSTICS_MAIN_INIT
(PID.TID 0000.0001) DEBUG_MSG: CALLING S/R GAD_INIT_FIXED
(PID.TID 0000.0001) GAD_INIT_FIXED: GAD_OlMinSize=  1  0  1
(PID.TID 0000.0001) 
(PID.TID 0000.0001) // ===================================
(PID.TID 0000.0001) // GAD parameters :
(PID.TID 0000.0001) // ===================================
(PID.TID 0000.0001) tempAdvScheme =   /* Temp. Horiz.Advection scheme selector */
(PID.TID 0000.0001)                       2
(PID.TID 0000.0001)     ;
(PID.TID 0000.0001) tempVertAdvScheme =   /* Temp. Vert. Advection scheme selector */
(PID.TID 0000.0001)                       2
(PID.TID 0000.0001)     ;
(PID.TID 0000.0001) tempMultiDimAdvec =   /* use Muti-Dim Advec method for Temp */
(PID.TID 0000.0001)                   F
(PID.TID 0000.0001)     ;
(PID.TID 0000.0001) tempSOM_Advection = /* use 2nd Order Moment Advection for Temp */
(PID.TID 0000.0001)                   F
(PID.TID 0000.0001)     ;
(PID.TID 0000.0001) AdamsBashforthGt = /* apply Adams-Bashforth extrapolation on Gt */
(PID.TID 0000.0001)                   T
(PID.TID 0000.0001)     ;
(PID.TID 0000.0001) AdamsBashforth_T = /* apply Adams-Bashforth extrapolation on Temp */
(PID.TID 0000.0001)                   F
(PID.TID 0000.0001)     ;
(PID.TID 0000.0001) saltAdvScheme =   /* Salt. Horiz.advection scheme selector */
(PID.TID 0000.0001)                       2
(PID.TID 0000.0001)     ;
(PID.TID 0000.0001) saltVertAdvScheme =   /* Salt. Vert. Advection scheme selector */
(PID.TID 0000.0001)                       2
(PID.TID 0000.0001)     ;
(PID.TID 0000.0001) saltMultiDimAdvec =   /* use Muti-Dim Advec method for Salt */
(PID.TID 0000.0001)                   F
(PID.TID 0000.0001)     ;
(PID.TID 0000.0001) saltSOM_Advection = /* use 2nd Order Moment Advection for Salt */
(PID.TID 0000.0001)                   F
(PID.TID 0000.0001)     ;
(PID.TID 0000.0001) AdamsBashforthGs = /* apply Adams-Bashforth extrapolation on Gs */
(PID.TID 0000.0001)                   T
(PID.TID 0000.0001)     ;
(PID.TID 0000.0001) AdamsBashforth_S = /* apply Adams-Bashforth extrapolation on Salt */
(PID.TID 0000.0001)                   F
(PID.TID 0000.0001)     ;
(PID.TID 0000.0001) // ===================================
(PID.TID 0000.0001) DEBUG_MSG: CALLING S/R MOM_INIT_FIXED
(PID.TID 0000.0001) DEBUG_MSG: CALLING S/R GMREDI_INIT_FIXED
(PID.TID 0000.0001) DEBUG_MSG: CALLING S/R DIAGNOSTICS_INIT_FIXED
(PID.TID 0000.0001) ------------------------------------------------------------
(PID.TID 0000.0001) DIAGNOSTICS_SET_LEVELS: done
(PID.TID 0000.0001)  Total Nb of available Diagnostics: ndiagt=   215
(PID.TID 0000.0001)  write list of available Diagnostics to file: available_diagnostics.log
(PID.TID 0000.0001) SETDIAG: Allocate  1 x  1 Levels for Diagnostic #    81 oceTAUX
(PID.TID 0000.0001) SETDIAG: Allocate  1 x  1 Levels for Diagnostic #    82 oceTAUY
(PID.TID 0000.0001) SETDIAG: Allocate  1 x  1 Levels for Diagnostic #    85 oceFWflx
(PID.TID 0000.0001) SETDIAG: Allocate  1 x  1 Levels for Diagnostic #    86 oceSflux
(PID.TID 0000.0001) SETDIAG: Allocate  1 x  1 Levels for Diagnostic #    87 oceQnet
(PID.TID 0000.0001) SETDIAG: Allocate  1 x  1 Levels for Diagnostic #    88 oceQsw
(PID.TID 0000.0001) SETDIAG: Allocate 16 x  1 Levels for Diagnostic #    27 SALT
(PID.TID 0000.0001) SETDIAG: Allocate 16 x  1 Levels for Diagnostic #    26 THETA
(PID.TID 0000.0001) SETDIAG: Allocate 16 x  1 Levels for Diagnostic #    45 UVELMASS
(PID.TID 0000.0001) SETDIAG: Allocate 16 x  1 Levels for Diagnostic #    46 VVELMASS
(PID.TID 0000.0001) SETDIAG: Allocate  1 x  1 Levels for Diagnostic #    83 atmPload
(PID.TID 0000.0001)   space allocated for all diagnostics:      71 levels
(PID.TID 0000.0001)   set mate pointer for diag #    81  oceTAUX  , Parms: UU      U1 , mate:    82
(PID.TID 0000.0001)   set mate pointer for diag #    82  oceTAUY  , Parms: VV      U1 , mate:    81
(PID.TID 0000.0001)   set mate pointer for diag #    45  UVELMASS , Parms: UUr     MR , mate:    46
(PID.TID 0000.0001)   set mate pointer for diag #    46  VVELMASS , Parms: VVr     MR , mate:    45
(PID.TID 0000.0001) DIAGNOSTICS_SET_POINTERS: Set levels for Outp.Stream: oceTAUX
(PID.TID 0000.0001)  Levels:       1.
(PID.TID 0000.0001) DIAGNOSTICS_SET_POINTERS: Set levels for Outp.Stream: oceTAUY
(PID.TID 0000.0001)  Levels:       1.
(PID.TID 0000.0001) DIAGNOSTICS_SET_POINTERS: Set levels for Outp.Stream: oceFWflx
(PID.TID 0000.0001)  Levels:       1.
(PID.TID 0000.0001) DIAGNOSTICS_SET_POINTERS: Set levels for Outp.Stream: oceSflux
(PID.TID 0000.0001)  Levels:       1.
(PID.TID 0000.0001) DIAGNOSTICS_SET_POINTERS: Set levels for Outp.Stream: oceQnet
(PID.TID 0000.0001)  Levels:       1.
(PID.TID 0000.0001) DIAGNOSTICS_SET_POINTERS: Set levels for Outp.Stream: oceQsw
(PID.TID 0000.0001)  Levels:       1.
(PID.TID 0000.0001) DIAGNOSTICS_SET_POINTERS: Set levels for Outp.Stream: atmPload
(PID.TID 0000.0001)  Levels:       1.
(PID.TID 0000.0001) DIAGNOSTICS_SET_POINTERS: done
(PID.TID 0000.0001) ------------------------------------------------------------
(PID.TID 0000.0001) DIAGSTATS_SET_REGIONS: define   0 regions:
(PID.TID 0000.0001) ------------------------------------------------------------
(PID.TID 0000.0001)   space allocated for all stats-diags:       0 levels
(PID.TID 0000.0001) DIAGSTATS_SET_POINTERS: done
(PID.TID 0000.0001) ------------------------------------------------------------
(PID.TID 0000.0001) DEBUG_MSG: LEAVING S/R PACKAGES_INIT_FIXED
(PID.TID 0000.0001) DEBUG_MSG: CALLING S/R INI_GLOBAL_DOMAIN
(PID.TID 0000.0001) INI_GLOBAL_DOMAIN: Found  19 CS-corner Pts in the domain
(PID.TID 0000.0001) DEBUG_MSG: CALLING S/R INI_LINEAR_PHISURF
(PID.TID 0000.0001) DEBUG_MSG: CALLING S/R INI_CORI
(PID.TID 0000.0001) %MON fCori_max                    =   1.4574827780704E-04
(PID.TID 0000.0001) %MON fCori_min                    =  -1.4574827780704E-04
(PID.TID 0000.0001) %MON fCori_mean                   =   0.0000000000000E+00
(PID.TID 0000.0001) %MON fCori_sd                     =   8.4202189509968E-05
(PID.TID 0000.0001) %MON fCoriG_max                   =   1.4584247033981E-04
(PID.TID 0000.0001) %MON fCoriG_min                   =  -1.4584247033981E-04
(PID.TID 0000.0001) %MON fCoriG_mean                  =   2.2587545260115E-21
(PID.TID 0000.0001) %MON fCoriG_sd                    =   8.4202189509968E-05
(PID.TID 0000.0001) %MON fCoriCos_max                 =   1.4580166994612E-04
(PID.TID 0000.0001) %MON fCoriCos_min                 =   5.2407700865903E-06
(PID.TID 0000.0001) %MON fCoriCos_mean                =   1.1514045869113E-04
(PID.TID 0000.0001) %MON fCoriCos_sd                  =   3.0375849106513E-05
(PID.TID 0000.0001) DEBUG_MSG: CALLING S/R INI_CG2D
(PID.TID 0000.0001) INI_CG2D: CG2D normalisation factor =  1.9156564154949553E-04
(PID.TID 0000.0001) 
(PID.TID 0000.0001) DEBUG_MSG: CALLING S/R INI_CG3D
(PID.TID 0000.0001) DEBUG_MSG: CALLING S/R CONFIG_SUMMARY
(PID.TID 0000.0001) // =======================================================
(PID.TID 0000.0001) // Model configuration
(PID.TID 0000.0001) // =======================================================
(PID.TID 0000.0001) //
(PID.TID 0000.0001) // "Physical" paramters ( PARM01 in namelist )
(PID.TID 0000.0001) //
(PID.TID 0000.0001) buoyancyRelation = /* Type of relation to get Buoyancy */
(PID.TID 0000.0001)               'OCEANIC'
(PID.TID 0000.0001)     ;
(PID.TID 0000.0001) fluidIsAir   =  /* fluid major constituent is Air */
(PID.TID 0000.0001)                   F
(PID.TID 0000.0001)     ;
(PID.TID 0000.0001) fluidIsWater =  /* fluid major constituent is Water */
(PID.TID 0000.0001)                   T
(PID.TID 0000.0001)     ;
(PID.TID 0000.0001) usingPCoords =  /* use p (or p*) vertical coordinate */
(PID.TID 0000.0001)                   F
(PID.TID 0000.0001)     ;
(PID.TID 0000.0001) usingZCoords =  /* use z (or z*) vertical coordinate */
(PID.TID 0000.0001)                   T
(PID.TID 0000.0001)     ;
(PID.TID 0000.0001) tRef =   /* Reference temperature profile ( oC or K ) */
(PID.TID 0000.0001)    16 @  2.000000000000000E+01              /* K =  1: 16 */
(PID.TID 0000.0001)     ;
(PID.TID 0000.0001) sRef =   /* Reference salinity profile ( psu ) */
(PID.TID 0000.0001)    16 @  3.500000000000000E+01              /* K =  1: 16 */
(PID.TID 0000.0001)     ;
(PID.TID 0000.0001) useStrainTensionVisc= /* Use StrainTension Form of Viscous Operator */
(PID.TID 0000.0001)                   F
(PID.TID 0000.0001)     ;
(PID.TID 0000.0001) useVariableVisc = /* Use variable horizontal viscosity */
(PID.TID 0000.0001)                   F
(PID.TID 0000.0001)     ;
(PID.TID 0000.0001) useHarmonicVisc = /* Use harmonic horizontal viscosity */
(PID.TID 0000.0001)                   T
(PID.TID 0000.0001)     ;
(PID.TID 0000.0001) useBiharmonicVisc= /* Use biharmonic horiz.  viscosity */
(PID.TID 0000.0001)                   F
(PID.TID 0000.0001)     ;
(PID.TID 0000.0001) useSmag3D = /* Use isotropic 3-D Smagorinsky viscosity */
(PID.TID 0000.0001)                   F
(PID.TID 0000.0001)     ;
(PID.TID 0000.0001) viscAh  =   /* Lateral harmonic viscosity ( m^2/s ) */
(PID.TID 0000.0001)                 3.000000000000000E+05
(PID.TID 0000.0001)     ;
(PID.TID 0000.0001) viscA4  =   /* Lateral biharmonic viscosity ( m^4/s ) */
(PID.TID 0000.0001)                 0.000000000000000E+00
(PID.TID 0000.0001)     ;
(PID.TID 0000.0001) no_slip_sides =  /* Viscous BCs: No-slip sides */
(PID.TID 0000.0001)                   T
(PID.TID 0000.0001)     ;
(PID.TID 0000.0001) sideDragFactor = /* side-drag scaling factor (non-dim) */
(PID.TID 0000.0001)                 2.000000000000000E+00
(PID.TID 0000.0001)     ;
(PID.TID 0000.0001) viscArNr = /* vertical profile of vertical viscosity ( m^2/s )*/
(PID.TID 0000.0001)    16 @  1.000000000000000E-03              /* K =  1: 16 */
(PID.TID 0000.0001)     ;
(PID.TID 0000.0001) no_slip_bottom =  /* Viscous BCs: No-slip bottom */
(PID.TID 0000.0001)                   T
(PID.TID 0000.0001)     ;
(PID.TID 0000.0001) bottomVisc_pCell = /* Partial-cell in bottom Visc. BC */
(PID.TID 0000.0001)                   F
(PID.TID 0000.0001)     ;
(PID.TID 0000.0001) bottomDragLinear = /* linear bottom-drag coefficient ( m/s ) */
(PID.TID 0000.0001)                 0.000000000000000E+00
(PID.TID 0000.0001)     ;
(PID.TID 0000.0001) bottomDragQuadratic = /* quadratic bottom-drag coefficient (-) */
(PID.TID 0000.0001)                 0.000000000000000E+00
(PID.TID 0000.0001)     ;
(PID.TID 0000.0001) selectBotDragQuadr = /* select quadratic bottom drag options */
(PID.TID 0000.0001)                      -1
(PID.TID 0000.0001)     ;
(PID.TID 0000.0001) diffKhT =   /* Laplacian diffusion of heat laterally ( m^2/s ) */
(PID.TID 0000.0001)                 0.000000000000000E+00
(PID.TID 0000.0001)     ;
(PID.TID 0000.0001) diffK4T =   /* Biharmonic diffusion of heat laterally ( m^4/s ) */
(PID.TID 0000.0001)                 0.000000000000000E+00
(PID.TID 0000.0001)     ;
(PID.TID 0000.0001) diffKhS =   /* Laplacian diffusion of salt laterally ( m^2/s ) */
(PID.TID 0000.0001)                 0.000000000000000E+00
(PID.TID 0000.0001)     ;
(PID.TID 0000.0001) diffK4S =   /* Biharmonic diffusion of salt laterally ( m^4/s ) */
(PID.TID 0000.0001)                 0.000000000000000E+00
(PID.TID 0000.0001)     ;
(PID.TID 0000.0001) diffKrNrT = /* vertical profile of vertical diffusion of Temp ( m^2/s )*/
(PID.TID 0000.0001)    16 @  3.000000000000000E-05              /* K =  1: 16 */
(PID.TID 0000.0001)     ;
(PID.TID 0000.0001) diffKrNrS = /* vertical profile of vertical diffusion of Salt ( m^2/s )*/
(PID.TID 0000.0001)    16 @  3.000000000000000E-05              /* K =  1: 16 */
(PID.TID 0000.0001)     ;
(PID.TID 0000.0001) diffKrBL79surf = /* Surface diffusion for Bryan and Lewis 79 ( m^2/s ) */
(PID.TID 0000.0001)                 0.000000000000000E+00
(PID.TID 0000.0001)     ;
(PID.TID 0000.0001) diffKrBL79deep = /* Deep diffusion for Bryan and Lewis 1979 ( m^2/s ) */
(PID.TID 0000.0001)                 0.000000000000000E+00
(PID.TID 0000.0001)     ;
(PID.TID 0000.0001) diffKrBL79scl = /* Depth scale for Bryan and Lewis 1979 ( m ) */
(PID.TID 0000.0001)                 2.000000000000000E+02
(PID.TID 0000.0001)     ;
(PID.TID 0000.0001) diffKrBL79Ho = /* Turning depth for Bryan and Lewis 1979 ( m ) */
(PID.TID 0000.0001)                -2.000000000000000E+03
(PID.TID 0000.0001)     ;
(PID.TID 0000.0001) ivdc_kappa = /* Implicit Vertical Diffusivity for Convection ( m^2/s) */
(PID.TID 0000.0001)                 1.000000000000000E+01
(PID.TID 0000.0001)     ;
(PID.TID 0000.0001) hMixCriteria=  /* Criteria for mixed-layer diagnostic */
(PID.TID 0000.0001)                -8.000000000000000E-01
(PID.TID 0000.0001)     ;
(PID.TID 0000.0001) dRhoSmall =  /* Parameter for mixed-layer diagnostic */
(PID.TID 0000.0001)                 1.000000000000000E-06
(PID.TID 0000.0001)     ;
(PID.TID 0000.0001) hMixSmooth=  /* Smoothing parameter for mixed-layer diagnostic */
(PID.TID 0000.0001)                 0.000000000000000E+00
(PID.TID 0000.0001)     ;
(PID.TID 0000.0001) eosType =  /* Type of Equation of State */
(PID.TID 0000.0001)               'JMD95Z'
(PID.TID 0000.0001)     ;
(PID.TID 0000.0001) selectP_inEOS_Zc = /* select pressure to use in EOS (0,1,2,3) */
(PID.TID 0000.0001)                       0
(PID.TID 0000.0001)     0= -g*rhoConst*z ; 1= pRef (from tRef,sRef); 2= Hyd P ; 3= Hyd+NH P
(PID.TID 0000.0001)     ;
(PID.TID 0000.0001) HeatCapacity_Cp =  /* Specific heat capacity ( J/kg/K ) */
(PID.TID 0000.0001)                 3.994000000000000E+03
(PID.TID 0000.0001)     ;
(PID.TID 0000.0001) celsius2K = /* 0 degree Celsius converted to Kelvin ( K ) */
(PID.TID 0000.0001)                 2.731500000000000E+02
(PID.TID 0000.0001)     ;
(PID.TID 0000.0001) rhoConst  = /* Reference density (Boussinesq)  ( kg/m^3 ) */
(PID.TID 0000.0001)                 1.035000000000000E+03
(PID.TID 0000.0001)     ;
(PID.TID 0000.0001) rhoFacC = /* normalized Reference density @ cell-Center (-) */
(PID.TID 0000.0001)    16 @  1.000000000000000E+00              /* K =  1: 16 */
(PID.TID 0000.0001)     ;
(PID.TID 0000.0001) rhoFacF = /* normalized Reference density @ W-Interface (-) */
(PID.TID 0000.0001)    17 @  1.000000000000000E+00              /* K =  1: 17 */
(PID.TID 0000.0001)     ;
(PID.TID 0000.0001) rhoConstFresh = /* Fresh-water reference density ( kg/m^3 ) */
(PID.TID 0000.0001)                 1.000000000000000E+03
(PID.TID 0000.0001)     ;
(PID.TID 0000.0001) gravity =   /* Gravitational acceleration ( m/s^2 ) */
(PID.TID 0000.0001)                 9.810000000000000E+00
(PID.TID 0000.0001)     ;
(PID.TID 0000.0001) gBaro =   /* Barotropic gravity ( m/s^2 ) */
(PID.TID 0000.0001)                 9.810000000000000E+00
(PID.TID 0000.0001)     ;
(PID.TID 0000.0001) gravFacC = /* gravity factor (vs surf.) @ cell-Center (-) */
(PID.TID 0000.0001)    16 @  1.000000000000000E+00              /* K =  1: 16 */
(PID.TID 0000.0001)     ;
(PID.TID 0000.0001) gravFacF = /* gravity factor (vs surf.) @ W-Interface (-) */
(PID.TID 0000.0001)    17 @  1.000000000000000E+00              /* K =  1: 17 */
(PID.TID 0000.0001)     ;
(PID.TID 0000.0001) rotationPeriod =   /* Rotation Period ( s ) */
(PID.TID 0000.0001)                 8.616400000000000E+04
(PID.TID 0000.0001)     ;
(PID.TID 0000.0001) omega =   /* Angular velocity ( rad/s ) */
(PID.TID 0000.0001)                 7.292123516990375E-05
(PID.TID 0000.0001)     ;
(PID.TID 0000.0001) f0 =   /* Reference coriolis parameter ( 1/s ) */
(PID.TID 0000.0001)                 1.000000000000000E-04
(PID.TID 0000.0001)     ;
(PID.TID 0000.0001) beta =   /* Beta ( 1/(m.s) ) */
(PID.TID 0000.0001)                 9.999999999999999E-12
(PID.TID 0000.0001)     ;
(PID.TID 0000.0001) fPrime =   /* Second coriolis parameter ( 1/s ) */
(PID.TID 0000.0001)                 0.000000000000000E+00
(PID.TID 0000.0001)     ;
(PID.TID 0000.0001) rigidLid =   /* Rigid lid on/off flag */
(PID.TID 0000.0001)                   F
(PID.TID 0000.0001)     ;
(PID.TID 0000.0001) implicitFreeSurface =   /* Implicit free surface on/off flag */
(PID.TID 0000.0001)                   T
(PID.TID 0000.0001)     ;
(PID.TID 0000.0001) freeSurfFac =   /* Implicit free surface factor */
(PID.TID 0000.0001)                 1.000000000000000E+00
(PID.TID 0000.0001)     ;
(PID.TID 0000.0001) implicSurfPress =  /* Surface Pressure implicit factor (0-1)*/
(PID.TID 0000.0001)                 1.000000000000000E+00
(PID.TID 0000.0001)     ;
(PID.TID 0000.0001) implicDiv2DFlow =  /* Barot. Flow Div. implicit factor (0-1)*/
(PID.TID 0000.0001)                 1.000000000000000E+00
(PID.TID 0000.0001)     ;
(PID.TID 0000.0001) uniformLin_PhiSurf = /* use uniform Bo_surf on/off flag*/
(PID.TID 0000.0001)                   T
(PID.TID 0000.0001)     ;
(PID.TID 0000.0001) uniformFreeSurfLev = /* free-surface level-index is uniform */
(PID.TID 0000.0001)                   T
(PID.TID 0000.0001)     ;
(PID.TID 0000.0001) hFacMin =   /* minimum partial cell factor (hFac) */
(PID.TID 0000.0001)                 1.000000000000000E-01
(PID.TID 0000.0001)     ;
(PID.TID 0000.0001) hFacMinDr = /* minimum partial cell thickness ( m) */
(PID.TID 0000.0001)                 2.000000000000000E+01
(PID.TID 0000.0001)     ;
(PID.TID 0000.0001) exactConserv =  /* Exact Volume Conservation on/off flag*/
(PID.TID 0000.0001)                   T
(PID.TID 0000.0001)     ;
(PID.TID 0000.0001) linFSConserveTr = /* Tracer correction for Lin Free Surface on/off flag*/
(PID.TID 0000.0001)                   F
(PID.TID 0000.0001)     ;
(PID.TID 0000.0001) nonlinFreeSurf = /* Non-linear Free Surf. options (-1,0,1,2,3)*/
(PID.TID 0000.0001)                       4
(PID.TID 0000.0001)      -1,0= Off ; 1,2,3= On, 2=+rescale gU,gV, 3=+update cg2d solv.
(PID.TID 0000.0001)     ;
(PID.TID 0000.0001) hFacInf =   /* lower threshold for hFac (nonlinFreeSurf only)*/
(PID.TID 0000.0001)                 2.000000000000000E-01
(PID.TID 0000.0001)     ;
(PID.TID 0000.0001) hFacSup =   /* upper threshold for hFac (nonlinFreeSurf only)*/
(PID.TID 0000.0001)                 2.000000000000000E+00
(PID.TID 0000.0001)     ;
(PID.TID 0000.0001) select_rStar = /* r* Vertical coord. options (=0 r coord.; >0 uses r*)*/
(PID.TID 0000.0001)                       2
(PID.TID 0000.0001)     ;
(PID.TID 0000.0001) useRealFreshWaterFlux = /* Real Fresh Water Flux on/off flag*/
(PID.TID 0000.0001)                   T
(PID.TID 0000.0001)     ;
(PID.TID 0000.0001) temp_EvPrRn = /* Temp. of Evap/Prec/R (UNSET=use local T)(oC)*/
(PID.TID 0000.0001)                 1.234567000000000E+05
(PID.TID 0000.0001)     ;
(PID.TID 0000.0001) salt_EvPrRn = /* Salin. of Evap/Prec/R (UNSET=use local S)(psu)*/
(PID.TID 0000.0001)                 0.000000000000000E+00
(PID.TID 0000.0001)     ;
(PID.TID 0000.0001) selectAddFluid = /* option for mass source/sink of fluid (=0: off) */
(PID.TID 0000.0001)                       0
(PID.TID 0000.0001)     ;
(PID.TID 0000.0001) temp_addMass = /* Temp. of addMass array (UNSET=use local T)(oC)*/
(PID.TID 0000.0001)                 1.234567000000000E+05
(PID.TID 0000.0001)     ;
(PID.TID 0000.0001) salt_addMass = /* Salin. of addMass array (UNSET=use local S)(psu)*/
(PID.TID 0000.0001)                 0.000000000000000E+00
(PID.TID 0000.0001)     ;
(PID.TID 0000.0001) use3Dsolver = /* use 3-D pressure solver on/off flag */
(PID.TID 0000.0001)                   F
(PID.TID 0000.0001)     ;
(PID.TID 0000.0001) nonHydrostatic =  /* Non-Hydrostatic on/off flag */
(PID.TID 0000.0001)                   F
(PID.TID 0000.0001)     ;
(PID.TID 0000.0001) nh_Am2 = /* Non-Hydrostatic terms scaling factor */
(PID.TID 0000.0001)                 1.000000000000000E+00
(PID.TID 0000.0001)     ;
(PID.TID 0000.0001) implicitNHPress = /* Non-Hyd Pressure implicit factor (0-1)*/
(PID.TID 0000.0001)                 1.000000000000000E+00
(PID.TID 0000.0001)     ;
(PID.TID 0000.0001) selectNHfreeSurf = /* Non-Hyd (free-)Surface option */
(PID.TID 0000.0001)                       0
(PID.TID 0000.0001)     ;
(PID.TID 0000.0001) quasiHydrostatic = /* Quasi-Hydrostatic on/off flag */
(PID.TID 0000.0001)                   F
(PID.TID 0000.0001)     ;
(PID.TID 0000.0001) calc_wVelocity = /* vertical velocity calculation on/off flag */
(PID.TID 0000.0001)                   T
(PID.TID 0000.0001)     ;
(PID.TID 0000.0001) momStepping =  /* Momentum equation on/off flag */
(PID.TID 0000.0001)                   T
(PID.TID 0000.0001)     ;
(PID.TID 0000.0001) vectorInvariantMomentum= /* Vector-Invariant Momentum on/off */
(PID.TID 0000.0001)                   T
(PID.TID 0000.0001)     ;
(PID.TID 0000.0001) momAdvection =  /* Momentum advection on/off flag */
(PID.TID 0000.0001)                   T
(PID.TID 0000.0001)     ;
(PID.TID 0000.0001) momViscosity =  /* Momentum viscosity on/off flag */
(PID.TID 0000.0001)                   T
(PID.TID 0000.0001)     ;
(PID.TID 0000.0001) momImplVertAdv= /* Momentum implicit vert. advection on/off*/
(PID.TID 0000.0001)                   F
(PID.TID 0000.0001)     ;
(PID.TID 0000.0001) implicitViscosity = /* Implicit viscosity on/off flag */
(PID.TID 0000.0001)                   F
(PID.TID 0000.0001)     ;
(PID.TID 0000.0001) selectImplicitDrag= /* Implicit bot Drag options (0,1,2)*/
(PID.TID 0000.0001)                       0
(PID.TID 0000.0001)     0= Expl. ; 1= Impl. on provis. Vel ; 2= Fully Impl (with surf.P)
(PID.TID 0000.0001)     ;
(PID.TID 0000.0001) metricTerms =  /* metric-Terms on/off flag */
(PID.TID 0000.0001)                   F
(PID.TID 0000.0001)     ;
(PID.TID 0000.0001) useNHMTerms = /* Non-Hydrostatic Metric-Terms on/off */
(PID.TID 0000.0001)                   F
(PID.TID 0000.0001)     ;
(PID.TID 0000.0001) selectCoriMap = /* Coriolis Map options (0,1,2,3)*/
(PID.TID 0000.0001)                       2
(PID.TID 0000.0001)     0= f-Plane ; 1= Beta-Plane ; 2= Spherical ; 3= read from file
(PID.TID 0000.0001)     ;
(PID.TID 0000.0001) use3dCoriolis = /* 3-D Coriolis on/off flag */
(PID.TID 0000.0001)                   F
(PID.TID 0000.0001)     ;
(PID.TID 0000.0001) useCoriolis =  /* Coriolis on/off flag */
(PID.TID 0000.0001)                   T
(PID.TID 0000.0001)     ;
(PID.TID 0000.0001) useCDscheme =  /* CD scheme on/off flag */
(PID.TID 0000.0001)                   F
(PID.TID 0000.0001)     ;
(PID.TID 0000.0001) useEnergyConservingCoriolis= /* Flx-Form Coriolis scheme flag */
(PID.TID 0000.0001)                   F
(PID.TID 0000.0001)     ;
(PID.TID 0000.0001) useJamartWetPoints= /* Coriolis WetPoints method flag */
(PID.TID 0000.0001)                   F
(PID.TID 0000.0001)     ;
(PID.TID 0000.0001) useJamartMomAdv= /* V.I Non-linear terms Jamart flag */
(PID.TID 0000.0001)                   F
(PID.TID 0000.0001)     ;
(PID.TID 0000.0001) useAbsVorticity= /* V.I Works with f+zeta in Coriolis */
(PID.TID 0000.0001)                   F
(PID.TID 0000.0001)     ;
(PID.TID 0000.0001) selectVortScheme= /* V.I Scheme selector for Vorticity-Term */
(PID.TID 0000.0001)                       1
(PID.TID 0000.0001)    = 0 : enstrophy (Shallow-Water Eq.) conserving scheme by Sadourny, JAS 75
(PID.TID 0000.0001)    = 1 : same as 0 with modified hFac
(PID.TID 0000.0001)    = 2 : energy conserving scheme (used by Sadourny in JAS 75 paper)
(PID.TID 0000.0001)    = 3 : energy (general) and enstrophy (2D, nonDiv.) conserving scheme
(PID.TID 0000.0001)          from Sadourny (Burridge & Haseler, ECMWF Rep.4, 1977)
(PID.TID 0000.0001)     ;
(PID.TID 0000.0001) upwindVorticity= /* V.I Upwind bias vorticity flag */
(PID.TID 0000.0001)                   F
(PID.TID 0000.0001)     ;
(PID.TID 0000.0001) highOrderVorticity= /* V.I High order vort. advect. flag */
(PID.TID 0000.0001)                   F
(PID.TID 0000.0001)     ;
(PID.TID 0000.0001) upwindShear= /* V.I Upwind vertical Shear advection flag */
(PID.TID 0000.0001)                   F
(PID.TID 0000.0001)     ;
(PID.TID 0000.0001) selectKEscheme= /* V.I Kinetic Energy scheme selector */
(PID.TID 0000.0001)                       0
(PID.TID 0000.0001)     ;
(PID.TID 0000.0001) momForcing =  /* Momentum forcing on/off flag */
(PID.TID 0000.0001)                   T
(PID.TID 0000.0001)     ;
(PID.TID 0000.0001) momTidalForcing = /* Momentum Tidal forcing on/off flag */
(PID.TID 0000.0001)                   T
(PID.TID 0000.0001)     ;
(PID.TID 0000.0001) momPressureForcing =  /* Momentum pressure term on/off flag */
(PID.TID 0000.0001)                   T
(PID.TID 0000.0001)     ;
(PID.TID 0000.0001) implicitIntGravWave= /* Implicit Internal Gravity Wave flag */
(PID.TID 0000.0001)                   F
(PID.TID 0000.0001)     ;
(PID.TID 0000.0001) staggerTimeStep =    /* Stagger time stepping on/off flag */
(PID.TID 0000.0001)                   T
(PID.TID 0000.0001)     ;
(PID.TID 0000.0001) doResetHFactors = /* reset thickness factors @ each time-step */
(PID.TID 0000.0001)                   F
(PID.TID 0000.0001)     ;
(PID.TID 0000.0001) multiDimAdvection =  /* enable/disable Multi-Dim Advection */
(PID.TID 0000.0001)                   T
(PID.TID 0000.0001)     ;
(PID.TID 0000.0001) useMultiDimAdvec =   /* Multi-Dim Advection is/is-not used */
(PID.TID 0000.0001)                   F
(PID.TID 0000.0001)     ;
(PID.TID 0000.0001) implicitDiffusion = /* Implicit Diffusion on/off flag */
(PID.TID 0000.0001)                   T
(PID.TID 0000.0001)     ;
(PID.TID 0000.0001) tempStepping =  /* Temperature equation on/off flag */
(PID.TID 0000.0001)                   T
(PID.TID 0000.0001)     ;
(PID.TID 0000.0001) tempAdvection = /* Temperature advection on/off flag */
(PID.TID 0000.0001)                   T
(PID.TID 0000.0001)     ;
(PID.TID 0000.0001) tempImplVertAdv = /* Temp. implicit vert. advection on/off */
(PID.TID 0000.0001)                   F
(PID.TID 0000.0001)     ;
(PID.TID 0000.0001) tempForcing  =  /* Temperature forcing on/off flag */
(PID.TID 0000.0001)                   T
(PID.TID 0000.0001)     ;
(PID.TID 0000.0001) balanceQnet  =  /* balance net heat-flux on/off flag */
(PID.TID 0000.0001)                   F
(PID.TID 0000.0001)     ;
(PID.TID 0000.0001) doThetaClimRelax = /* apply SST relaxation on/off flag */
(PID.TID 0000.0001)                   F
(PID.TID 0000.0001)     ;
(PID.TID 0000.0001) balanceThetaClimRelax= /* balance SST relaxation on/off flag */
(PID.TID 0000.0001)                   F
(PID.TID 0000.0001)     ;
(PID.TID 0000.0001) tempIsActiveTr = /* Temp. is a dynamically Active Tracer */
(PID.TID 0000.0001)                   T
(PID.TID 0000.0001)     ;
(PID.TID 0000.0001) saltStepping =  /* Salinity equation on/off flag */
(PID.TID 0000.0001)                   T
(PID.TID 0000.0001)     ;
(PID.TID 0000.0001) saltAdvection = /* Salinity advection on/off flag */
(PID.TID 0000.0001)                   T
(PID.TID 0000.0001)     ;
(PID.TID 0000.0001) saltImplVertAdv = /* Sali. implicit vert. advection on/off */
(PID.TID 0000.0001)                   F
(PID.TID 0000.0001)     ;
(PID.TID 0000.0001) saltForcing  =  /* Salinity forcing on/off flag */
(PID.TID 0000.0001)                   T
(PID.TID 0000.0001)     ;
(PID.TID 0000.0001) balanceEmPmR =  /* balance net fresh-water flux on/off flag */
(PID.TID 0000.0001)                   F
(PID.TID 0000.0001)     ;
(PID.TID 0000.0001) doSaltClimRelax = /* apply SSS relaxation on/off flag */
(PID.TID 0000.0001)                   F
(PID.TID 0000.0001)     ;
(PID.TID 0000.0001) balanceSaltClimRelax= /* balance SSS relaxation on/off flag */
(PID.TID 0000.0001)                   F
(PID.TID 0000.0001)     ;
(PID.TID 0000.0001) saltIsActiveTr = /* Salt  is a dynamically Active Tracer */
(PID.TID 0000.0001)                   T
(PID.TID 0000.0001)     ;
(PID.TID 0000.0001)  readBinaryPrec = /* Precision used for reading binary files */
(PID.TID 0000.0001)                      64
(PID.TID 0000.0001)     ;
(PID.TID 0000.0001) writeBinaryPrec = /* Precision used for writing binary files */
(PID.TID 0000.0001)                      32
(PID.TID 0000.0001)     ;
(PID.TID 0000.0001)  rwSuffixType =   /* select format of mds file suffix */
(PID.TID 0000.0001)                       0
(PID.TID 0000.0001)    = 0 : myIter (I10.10) ;   = 1 : 100*myTime (100th sec) ;
(PID.TID 0000.0001)    = 2 : myTime (seconds);   = 3 : myTime/360 (10th of hr);
(PID.TID 0000.0001)    = 4 : myTime/3600 (hours)
(PID.TID 0000.0001)     ;
(PID.TID 0000.0001)  globalFiles = /* write "global" (=not per tile) files */
(PID.TID 0000.0001)                   F
(PID.TID 0000.0001)     ;
(PID.TID 0000.0001)  useSingleCpuIO = /* only master MPI process does I/O */
(PID.TID 0000.0001)                   T
(PID.TID 0000.0001)     ;
(PID.TID 0000.0001)  useSingleCpuInput = /* only master process reads input */
(PID.TID 0000.0001)                   T
(PID.TID 0000.0001)     ;
(PID.TID 0000.0001) /* debLev[*]  : level of debug & auxiliary message printing */
(PID.TID 0000.0001) debLevZero =  0 ; /* level of disabled aux. msg printing */
(PID.TID 0000.0001)    debLevA =  1 ; /* level of minimum  aux. msg printing */
(PID.TID 0000.0001)    debLevB =  2 ; /* level of low aux. print (report read-file opening)*/
(PID.TID 0000.0001)    debLevC =  3 ; /* level of moderate debug prt (most pkgs debug msg) */
(PID.TID 0000.0001)    debLevD =  4 ; /* level of enhanced debug prt (add DEBUG_STATS prt) */
(PID.TID 0000.0001)    debLevE =  5 ; /* level of extensive debug printing */
(PID.TID 0000.0001) debugLevel =  /* select debug printing level */
(PID.TID 0000.0001)                       5
(PID.TID 0000.0001)     ;
(PID.TID 0000.0001)  plotLevel =  /* select PLOT_FIELD printing level */
(PID.TID 0000.0001)                       5
(PID.TID 0000.0001)     ;
(PID.TID 0000.0001) //
(PID.TID 0000.0001) // Elliptic solver(s) paramters ( PARM02 in namelist )
(PID.TID 0000.0001) //
(PID.TID 0000.0001) cg2dMaxIters =   /* Upper limit on 2d con. grad iterations  */
(PID.TID 0000.0001)                     150
(PID.TID 0000.0001)     ;
(PID.TID 0000.0001) cg2dChkResFreq =   /* 2d con. grad convergence test frequency */
(PID.TID 0000.0001)                       1
(PID.TID 0000.0001)     ;
(PID.TID 0000.0001) cg2dUseMinResSol= /* use cg2d last-iter(=0) / min-resid.(=1) solution */
(PID.TID 0000.0001)                       0
(PID.TID 0000.0001)     ;
(PID.TID 0000.0001) cg2dTargetResidual =   /* 2d con. grad target residual  */
(PID.TID 0000.0001)                 1.000000000000000E-07
(PID.TID 0000.0001)     ;
(PID.TID 0000.0001) cg2dTargetResWunit =   /* CG2d target residual [W units] */
(PID.TID 0000.0001)                -1.000000000000000E+00
(PID.TID 0000.0001)     ;
(PID.TID 0000.0001) cg2dPreCondFreq =   /* Freq. for updating cg2d preconditioner */
(PID.TID 0000.0001)                       1
(PID.TID 0000.0001)     ;
(PID.TID 0000.0001) useSRCGSolver =  /* use single reduction CG solver(s) */
(PID.TID 0000.0001)                   F
(PID.TID 0000.0001)     ;
(PID.TID 0000.0001) printResidualFreq = /* Freq. for printing CG residual */
(PID.TID 0000.0001)                       1
(PID.TID 0000.0001)     ;
(PID.TID 0000.0001) //
(PID.TID 0000.0001) // Time stepping paramters ( PARM03 in namelist )
(PID.TID 0000.0001) //
(PID.TID 0000.0001) deltaTMom =   /* Momentum equation timestep ( s ) */
(PID.TID 0000.0001)                 9.000000000000000E+02
(PID.TID 0000.0001)     ;
(PID.TID 0000.0001) deltaTFreeSurf = /* FreeSurface equation timestep ( s ) */
(PID.TID 0000.0001)                 9.000000000000000E+02
(PID.TID 0000.0001)     ;
(PID.TID 0000.0001) dTtracerLev =  /* Tracer equation timestep ( s ) */
(PID.TID 0000.0001)    16 @  9.000000000000000E+02              /* K =  1: 16 */
(PID.TID 0000.0001)     ;
(PID.TID 0000.0001) deltaTClock  =   /* Model clock timestep ( s ) */
(PID.TID 0000.0001)                 9.000000000000000E+02
(PID.TID 0000.0001)     ;
(PID.TID 0000.0001) cAdjFreq =   /* Convective adjustment interval ( s ) */
(PID.TID 0000.0001)                 0.000000000000000E+00
(PID.TID 0000.0001)     ;
(PID.TID 0000.0001) momForcingOutAB = /* =1: take Momentum Forcing out of Adams-Bash. stepping */
(PID.TID 0000.0001)                       0
(PID.TID 0000.0001)     ;
(PID.TID 0000.0001) tracForcingOutAB = /* =1: take T,S,pTr Forcing out of Adams-Bash. stepping */
(PID.TID 0000.0001)                       1
(PID.TID 0000.0001)     ;
(PID.TID 0000.0001) momDissip_In_AB = /* put Dissipation Tendency in Adams-Bash. stepping */
(PID.TID 0000.0001)                   T
(PID.TID 0000.0001)     ;
(PID.TID 0000.0001) doAB_onGtGs = /* apply AB on Tendencies (rather than on T,S)*/
(PID.TID 0000.0001)                   T
(PID.TID 0000.0001)     ;
(PID.TID 0000.0001) abEps =   /* Adams-Bashforth-2 stabilizing weight */
(PID.TID 0000.0001)                 1.000000000000000E-01
(PID.TID 0000.0001)     ;
(PID.TID 0000.0001) applyExchUV_early = /* Apply EXCH to U,V earlier in time-step */
(PID.TID 0000.0001)                   F
(PID.TID 0000.0001)     ;
(PID.TID 0000.0001) pickupStrictlyMatch= /* stop if pickup do not strictly match */
(PID.TID 0000.0001)                   T
(PID.TID 0000.0001)     ;
(PID.TID 0000.0001) nIter0   =   /* Run starting timestep number */
(PID.TID 0000.0001)                       0
(PID.TID 0000.0001)     ;
(PID.TID 0000.0001) nTimeSteps = /* Number of timesteps */
(PID.TID 0000.0001)                      96
(PID.TID 0000.0001)     ;
(PID.TID 0000.0001) nEndIter =   /* Run ending timestep number */
(PID.TID 0000.0001)                      96
(PID.TID 0000.0001)     ;
(PID.TID 0000.0001) baseTime =   /* Model base time ( s ) */
(PID.TID 0000.0001)                 0.000000000000000E+00
(PID.TID 0000.0001)     ;
(PID.TID 0000.0001) startTime =  /* Run start time ( s ) */
(PID.TID 0000.0001)                 0.000000000000000E+00
(PID.TID 0000.0001)     ;
(PID.TID 0000.0001) endTime  =   /* Integration ending time ( s ) */
(PID.TID 0000.0001)                 8.640000000000000E+04
(PID.TID 0000.0001)     ;
(PID.TID 0000.0001) pChkPtFreq = /* Permanent restart/pickup file interval ( s ) */
(PID.TID 0000.0001)                 0.000000000000000E+00
(PID.TID 0000.0001)     ;
(PID.TID 0000.0001) chkPtFreq  = /* Rolling restart/pickup file interval ( s ) */
(PID.TID 0000.0001)                 0.000000000000000E+00
(PID.TID 0000.0001)     ;
(PID.TID 0000.0001) pickup_write_mdsio =   /* Model IO flag. */
(PID.TID 0000.0001)                   T
(PID.TID 0000.0001)     ;
(PID.TID 0000.0001) pickup_read_mdsio =   /* Model IO flag. */
(PID.TID 0000.0001)                   T
(PID.TID 0000.0001)     ;
(PID.TID 0000.0001) writePickupAtEnd =   /* Model IO flag. */
(PID.TID 0000.0001)                   T
(PID.TID 0000.0001)     ;
(PID.TID 0000.0001) dumpFreq =   /* Model state write out interval ( s ). */
(PID.TID 0000.0001)                 0.000000000000000E+00
(PID.TID 0000.0001)     ;
(PID.TID 0000.0001) dumpInitAndLast= /* write out Initial & Last iter. model state */
(PID.TID 0000.0001)                   T
(PID.TID 0000.0001)     ;
(PID.TID 0000.0001) snapshot_mdsio =   /* Model IO flag. */
(PID.TID 0000.0001)                   T
(PID.TID 0000.0001)     ;
(PID.TID 0000.0001) monitorFreq =   /* Monitor output interval ( s ). */
(PID.TID 0000.0001)                 1.000000000000000E+00
(PID.TID 0000.0001)     ;
(PID.TID 0000.0001) monitorSelect = /* select group of variables to monitor */
(PID.TID 0000.0001)                       3
(PID.TID 0000.0001)     ;
(PID.TID 0000.0001) monitor_stdio =   /* Model IO flag. */
(PID.TID 0000.0001)                   T
(PID.TID 0000.0001)     ;
(PID.TID 0000.0001) externForcingPeriod =   /* forcing period (s) */
(PID.TID 0000.0001)                 0.000000000000000E+00
(PID.TID 0000.0001)     ;
(PID.TID 0000.0001) externForcingCycle =   /* period of the cyle (s). */
(PID.TID 0000.0001)                 0.000000000000000E+00
(PID.TID 0000.0001)     ;
(PID.TID 0000.0001) tauThetaClimRelax =   /* relaxation time scale (s) */
(PID.TID 0000.0001)                 0.000000000000000E+00
(PID.TID 0000.0001)     ;
(PID.TID 0000.0001) tauSaltClimRelax =   /* relaxation time scale (s) */
(PID.TID 0000.0001)                 0.000000000000000E+00
(PID.TID 0000.0001)     ;
(PID.TID 0000.0001) latBandClimRelax =   /* max. Lat. where relaxation */
(PID.TID 0000.0001)                 1.800000000000000E+02
(PID.TID 0000.0001)     ;
(PID.TID 0000.0001) //
(PID.TID 0000.0001) // Gridding paramters ( PARM04 in namelist )
(PID.TID 0000.0001) //
(PID.TID 0000.0001) usingCartesianGrid = /* Cartesian coordinates flag ( True/False ) */
(PID.TID 0000.0001)                   F
(PID.TID 0000.0001)     ;
(PID.TID 0000.0001) usingCylindricalGrid = /* Cylindrical coordinates flag ( True/False ) */
(PID.TID 0000.0001)                   F
(PID.TID 0000.0001)     ;
(PID.TID 0000.0001) usingSphericalPolarGrid = /* Spherical coordinates flag ( True/False ) */
(PID.TID 0000.0001)                   F
(PID.TID 0000.0001)     ;
(PID.TID 0000.0001) usingCurvilinearGrid = /* Curvilinear coordinates flag ( True/False ) */
(PID.TID 0000.0001)                   T
(PID.TID 0000.0001)     ;
(PID.TID 0000.0001) useMin4hFacEdges = /* set hFacW,S as minimum of adjacent hFacC factor */
(PID.TID 0000.0001)                   F
(PID.TID 0000.0001)     ;
(PID.TID 0000.0001) interViscAr_pCell = /* account for partial-cell in interior vert. viscosity */
(PID.TID 0000.0001)                   F
(PID.TID 0000.0001)     ;
(PID.TID 0000.0001) interDiffKr_pCell = /* account for partial-cell in interior vert. diffusion */
(PID.TID 0000.0001)                   F
(PID.TID 0000.0001)     ;
(PID.TID 0000.0001) pCellMix_select = /* option to enhance mixing near surface & bottom */
(PID.TID 0000.0001)                       0
(PID.TID 0000.0001)     ;
(PID.TID 0000.0001) selectSigmaCoord = /* Hybrid-Sigma Vert. Coordinate option */
(PID.TID 0000.0001)                       0
(PID.TID 0000.0001)     ;
(PID.TID 0000.0001) rSigmaBnd = /* r/sigma transition ( units of r ==  m ) */
(PID.TID 0000.0001)                 1.234567000000000E+05
(PID.TID 0000.0001)     ;
(PID.TID 0000.0001) rkSign =   /* index orientation relative to vertical coordinate */
(PID.TID 0000.0001)                -1.000000000000000E+00
(PID.TID 0000.0001)     ;
(PID.TID 0000.0001) gravitySign = /* gravity orientation relative to vertical coordinate */
(PID.TID 0000.0001)                -1.000000000000000E+00
(PID.TID 0000.0001)     ;
(PID.TID 0000.0001) seaLev_Z =  /* reference height of sea-level [m] */
(PID.TID 0000.0001)                 0.000000000000000E+00
(PID.TID 0000.0001)     ;
(PID.TID 0000.0001) top_Pres =  /* reference pressure at the top [Pa] */
(PID.TID 0000.0001)                 0.000000000000000E+00
(PID.TID 0000.0001)     ;
(PID.TID 0000.0001) mass2rUnit = /* convert mass per unit area [kg/m2] to r-units [m] */
(PID.TID 0000.0001)                 9.661835748792270E-04
(PID.TID 0000.0001)     ;
(PID.TID 0000.0001) rUnit2mass = /* convert r-units [m] to mass per unit area [kg/m2] */
(PID.TID 0000.0001)                 1.035000000000000E+03
(PID.TID 0000.0001)     ;
(PID.TID 0000.0001) drC =   /* C spacing ( units of r ) */
(PID.TID 0000.0001)                 1.250000000000000E+01,      /* K =  1 */
(PID.TID 0000.0001)                 2.500000000000000E+01,      /* K =  2 */
(PID.TID 0000.0001)                 4.750000000000000E+01,      /* K =  3 */
(PID.TID 0000.0001)                 8.500000000000000E+01,      /* K =  4 */
(PID.TID 0000.0001)                 1.200000000000000E+02,      /* K =  5 */
(PID.TID 0000.0001)                 1.650000000000000E+02,      /* K =  6 */
(PID.TID 0000.0001)                 2.150000000000000E+02,      /* K =  7 */
(PID.TID 0000.0001)                 2.650000000000000E+02,      /* K =  8 */
(PID.TID 0000.0001)                 3.150000000000000E+02,      /* K =  9 */
(PID.TID 0000.0001)                 3.650000000000000E+02,      /* K = 10 */
(PID.TID 0000.0001)                 4.150000000000000E+02,      /* K = 11 */
(PID.TID 0000.0001)                 4.650000000000000E+02,      /* K = 12 */
(PID.TID 0000.0001)                 5.150000000000000E+02,      /* K = 13 */
(PID.TID 0000.0001)                 5.650000000000000E+02,      /* K = 14 */
(PID.TID 0000.0001)                 6.150000000000000E+02,      /* K = 15 */
(PID.TID 0000.0001)                 6.650000000000000E+02,      /* K = 16 */
(PID.TID 0000.0001)                 3.450000000000000E+02       /* K = 17 */
(PID.TID 0000.0001)     ;
(PID.TID 0000.0001) drF =   /* W spacing ( units of r ) */
(PID.TID 0000.0001)     2 @  2.500000000000000E+01,             /* K =  1:  2 */
(PID.TID 0000.0001)                 7.000000000000000E+01,      /* K =  3 */
(PID.TID 0000.0001)                 1.000000000000000E+02,      /* K =  4 */
(PID.TID 0000.0001)                 1.400000000000000E+02,      /* K =  5 */
(PID.TID 0000.0001)                 1.900000000000000E+02,      /* K =  6 */
(PID.TID 0000.0001)                 2.400000000000000E+02,      /* K =  7 */
(PID.TID 0000.0001)                 2.900000000000000E+02,      /* K =  8 */
(PID.TID 0000.0001)                 3.400000000000000E+02,      /* K =  9 */
(PID.TID 0000.0001)                 3.900000000000000E+02,      /* K = 10 */
(PID.TID 0000.0001)                 4.400000000000000E+02,      /* K = 11 */
(PID.TID 0000.0001)                 4.900000000000000E+02,      /* K = 12 */
(PID.TID 0000.0001)                 5.400000000000000E+02,      /* K = 13 */
(PID.TID 0000.0001)                 5.900000000000000E+02,      /* K = 14 */
(PID.TID 0000.0001)                 6.400000000000000E+02,      /* K = 15 */
(PID.TID 0000.0001)                 6.900000000000000E+02       /* K = 16 */
(PID.TID 0000.0001)     ;
(PID.TID 0000.0001) radius_fromHorizGrid = /* sphere Radius of input horiz. grid */
(PID.TID 0000.0001)                 6.370000000000000E+06
(PID.TID 0000.0001)     ;
(PID.TID 0000.0001) rSphere =  /* Radius ( ignored - cartesian, m - spherical ) */
(PID.TID 0000.0001)                 6.370000000000000E+06
(PID.TID 0000.0001)     ;
(PID.TID 0000.0001) deepAtmosphere = /* Deep/Shallow Atmosphere flag (True/False) */
(PID.TID 0000.0001)                   F
(PID.TID 0000.0001)     ;
(PID.TID 0000.0001) xC =  /* xC(:,1,:,1) : P-point X coord ( deg. or m if cartesian) */
(PID.TID 0000.0001)                -4.439521994760536E+01,      /* I =  1 */
(PID.TID 0000.0001)                -4.295641272275883E+01,      /* I =  2 */
(PID.TID 0000.0001)                -4.122055553388957E+01,      /* I =  3 */
(PID.TID 0000.0001)                -3.923446288487304E+01,      /* I =  4 */
(PID.TID 0000.0001)                -3.702585158682200E+01,      /* I =  5 */
(PID.TID 0000.0001)                -3.461179367094151E+01,      /* I =  6 */
(PID.TID 0000.0001)                -3.200434569041793E+01,      /* I =  7 */
(PID.TID 0000.0001)                -2.921355965632675E+01,      /* I =  8 */
(PID.TID 0000.0001)                -2.624932223028290E+01,      /* I =  9 */
(PID.TID 0000.0001)                -2.312261250426344E+01,      /* I = 10 */
(PID.TID 0000.0001)                -1.984640717127058E+01,      /* I = 11 */
(PID.TID 0000.0001)                -1.643630800555134E+01,      /* I = 12 */
(PID.TID 0000.0001)                -1.291089806302069E+01,      /* I = 13 */
(PID.TID 0000.0001)                -9.291807802719402E+00,      /* I = 14 */
(PID.TID 0000.0001)                -5.603475335822332E+00,      /* I = 15 */
(PID.TID 0000.0001)                -1.872608513033445E+00,      /* I = 16 */
(PID.TID 0000.0001)                 1.872608513033445E+00,      /* I = 17 */
(PID.TID 0000.0001)                 5.603475335822332E+00,      /* I = 18 */
(PID.TID 0000.0001)                 9.291807802719402E+00,      /* I = 19 */
(PID.TID 0000.0001)                 1.291089806302069E+01,      /* I = 20 */
(PID.TID 0000.0001)                 1.643630800555134E+01,      /* I = 21 */
(PID.TID 0000.0001)                 1.984640717127058E+01,      /* I = 22 */
(PID.TID 0000.0001)                 2.312261250426344E+01,      /* I = 23 */
(PID.TID 0000.0001)                 2.624932223028290E+01,      /* I = 24 */
(PID.TID 0000.0001)                 2.921355965632675E+01,      /* I = 25 */
(PID.TID 0000.0001)                 3.200434569041793E+01,      /* I = 26 */
(PID.TID 0000.0001)                 3.461179367094151E+01,      /* I = 27 */
(PID.TID 0000.0001)                 3.702585158682200E+01,      /* I = 28 */
(PID.TID 0000.0001)                 3.923446288487304E+01,      /* I = 29 */
(PID.TID 0000.0001)                 4.122055553388957E+01,      /* I = 30 */
(PID.TID 0000.0001)                 4.295641272275883E+01,      /* I = 31 */
(PID.TID 0000.0001)                 4.439521994760536E+01       /* I = 32 */
(PID.TID 0000.0001)     ;
(PID.TID 0000.0001) yC =  /* yC(1,:,1,:) : P-point Y coord ( deg. or m if cartesian) */
(PID.TID 0000.0001)                -3.497677942598243E+01,      /* J =  1 */
(PID.TID 0000.0001)                -3.374005967394886E+01,      /* J =  2 */
(PID.TID 0000.0001)                -3.220655175667454E+01,      /* J =  3 */
(PID.TID 0000.0001)                -3.045756348838641E+01,      /* J =  4 */
(PID.TID 0000.0001)                -2.853728129852918E+01,      /* J =  5 */
(PID.TID 0000.0001)                -2.647426640173173E+01,      /* J =  6 */
(PID.TID 0000.0001)                -2.428936657094636E+01,      /* J =  7 */
(PID.TID 0000.0001)                -2.199915808312262E+01,      /* J =  8 */
(PID.TID 0000.0001)                -1.961768597440146E+01,      /* J =  9 */
(PID.TID 0000.0001)                -1.715743888281371E+01,      /* J = 10 */
(PID.TID 0000.0001)                -1.462993396899330E+01,      /* J = 11 */
(PID.TID 0000.0001)                -1.204608340464756E+01,      /* J = 12 */
(PID.TID 0000.0001)                -9.416429130284818E+00,      /* J = 13 */
(PID.TID 0000.0001)                -6.751293662992216E+00,      /* J = 14 */
(PID.TID 0000.0001)                -4.060875511835959E+00,      /* J = 15 */
(PID.TID 0000.0001)                -1.355307764409121E+00,      /* J = 16 */
(PID.TID 0000.0001)                 1.355307764409121E+00,      /* J = 17 */
(PID.TID 0000.0001)                 4.060875511835959E+00,      /* J = 18 */
(PID.TID 0000.0001)                 6.751293662992216E+00,      /* J = 19 */
(PID.TID 0000.0001)                 9.416429130284818E+00,      /* J = 20 */
(PID.TID 0000.0001)                 1.204608340464756E+01,      /* J = 21 */
(PID.TID 0000.0001)                 1.462993396899330E+01,      /* J = 22 */
(PID.TID 0000.0001)                 1.715743888281371E+01,      /* J = 23 */
(PID.TID 0000.0001)                 1.961768597440146E+01,      /* J = 24 */
(PID.TID 0000.0001)                 2.199915808312262E+01,      /* J = 25 */
(PID.TID 0000.0001)                 2.428936657094636E+01,      /* J = 26 */
(PID.TID 0000.0001)                 2.647426640173173E+01,      /* J = 27 */
(PID.TID 0000.0001)                 2.853728129852918E+01,      /* J = 28 */
(PID.TID 0000.0001)                 3.045756348838641E+01,      /* J = 29 */
(PID.TID 0000.0001)                 3.220655175667454E+01,      /* J = 30 */
(PID.TID 0000.0001)                 3.374005967394886E+01,      /* J = 31 */
(PID.TID 0000.0001)                 3.497677942598243E+01       /* J = 32 */
(PID.TID 0000.0001)     ;
(PID.TID 0000.0001) rcoord = /* P-point R coordinate (  units of r ) */
(PID.TID 0000.0001)                -1.250000000000000E+01,      /* K =  1 */
(PID.TID 0000.0001)                -3.750000000000000E+01,      /* K =  2 */
(PID.TID 0000.0001)                -8.500000000000000E+01,      /* K =  3 */
(PID.TID 0000.0001)                -1.700000000000000E+02,      /* K =  4 */
(PID.TID 0000.0001)                -2.900000000000000E+02,      /* K =  5 */
(PID.TID 0000.0001)                -4.550000000000000E+02,      /* K =  6 */
(PID.TID 0000.0001)                -6.700000000000000E+02,      /* K =  7 */
(PID.TID 0000.0001)                -9.350000000000000E+02,      /* K =  8 */
(PID.TID 0000.0001)                -1.250000000000000E+03,      /* K =  9 */
(PID.TID 0000.0001)                -1.615000000000000E+03,      /* K = 10 */
(PID.TID 0000.0001)                -2.030000000000000E+03,      /* K = 11 */
(PID.TID 0000.0001)                -2.495000000000000E+03,      /* K = 12 */
(PID.TID 0000.0001)                -3.010000000000000E+03,      /* K = 13 */
(PID.TID 0000.0001)                -3.575000000000000E+03,      /* K = 14 */
(PID.TID 0000.0001)                -4.190000000000000E+03,      /* K = 15 */
(PID.TID 0000.0001)                -4.855000000000000E+03       /* K = 16 */
(PID.TID 0000.0001)     ;
(PID.TID 0000.0001) rF =   /* W-Interf. R coordinate (  units of r ) */
(PID.TID 0000.0001)                 0.000000000000000E+00,      /* K =  1 */
(PID.TID 0000.0001)                -2.500000000000000E+01,      /* K =  2 */
(PID.TID 0000.0001)                -5.000000000000000E+01,      /* K =  3 */
(PID.TID 0000.0001)                -1.200000000000000E+02,      /* K =  4 */
(PID.TID 0000.0001)                -2.200000000000000E+02,      /* K =  5 */
(PID.TID 0000.0001)                -3.600000000000000E+02,      /* K =  6 */
(PID.TID 0000.0001)                -5.500000000000000E+02,      /* K =  7 */
(PID.TID 0000.0001)                -7.900000000000000E+02,      /* K =  8 */
(PID.TID 0000.0001)                -1.080000000000000E+03,      /* K =  9 */
(PID.TID 0000.0001)                -1.420000000000000E+03,      /* K = 10 */
(PID.TID 0000.0001)                -1.810000000000000E+03,      /* K = 11 */
(PID.TID 0000.0001)                -2.250000000000000E+03,      /* K = 12 */
(PID.TID 0000.0001)                -2.740000000000000E+03,      /* K = 13 */
(PID.TID 0000.0001)                -3.280000000000000E+03,      /* K = 14 */
(PID.TID 0000.0001)                -3.870000000000000E+03,      /* K = 15 */
(PID.TID 0000.0001)                -4.510000000000000E+03,      /* K = 16 */
(PID.TID 0000.0001)                -5.200000000000000E+03       /* K = 17 */
(PID.TID 0000.0001)     ;
(PID.TID 0000.0001) deepFacC = /* deep-model grid factor @ cell-Center (-) */
(PID.TID 0000.0001)    16 @  1.000000000000000E+00              /* K =  1: 16 */
(PID.TID 0000.0001)     ;
(PID.TID 0000.0001) deepFacF = /* deep-model grid factor @ W-Interface (-) */
(PID.TID 0000.0001)    17 @  1.000000000000000E+00              /* K =  1: 17 */
(PID.TID 0000.0001)     ;
(PID.TID 0000.0001) rVel2wUnit = /* convert units: rVel -> wSpeed (=1 if z-coord)*/
(PID.TID 0000.0001)    17 @  1.000000000000000E+00              /* K =  1: 17 */
(PID.TID 0000.0001)     ;
(PID.TID 0000.0001) wUnit2rVel = /* convert units: wSpeed -> rVel (=1 if z-coord)*/
(PID.TID 0000.0001)    17 @  1.000000000000000E+00              /* K =  1: 17 */
(PID.TID 0000.0001)     ;
(PID.TID 0000.0001) dBdrRef = /* Vertical grad. of reference buoyancy [(m/s/r)^2] */
(PID.TID 0000.0001)    16 @  0.000000000000000E+00              /* K =  1: 16 */
(PID.TID 0000.0001)     ;
(PID.TID 0000.0001) rotateGrid = /* use rotated grid ( True/False ) */
(PID.TID 0000.0001)                   F
(PID.TID 0000.0001)     ;
(PID.TID 0000.0001) phiEuler = /* Euler angle, rotation about original z-coordinate [rad] */
(PID.TID 0000.0001)                 0.000000000000000E+00
(PID.TID 0000.0001)     ;
(PID.TID 0000.0001) thetaEuler = /* Euler angle, rotation about new x-coordinate [rad] */
(PID.TID 0000.0001)                 0.000000000000000E+00
(PID.TID 0000.0001)     ;
(PID.TID 0000.0001) psiEuler = /* Euler angle, rotation about new z-coordinate [rad] */
(PID.TID 0000.0001)                 0.000000000000000E+00
(PID.TID 0000.0001)     ;
(PID.TID 0000.0001) dxF =  /* dxF(:,1,:,1) ( units: m ) */
(PID.TID 0000.0001)                 1.202082051331828E+05,      /* I =  1 */
(PID.TID 0000.0001)                 1.563594089971120E+05,      /* I =  2 */
(PID.TID 0000.0001)                 1.835530058121492E+05,      /* I =  3 */
(PID.TID 0000.0001)                 2.045883481718707E+05,      /* I =  4 */
(PID.TID 0000.0001)                 2.218350349844185E+05,      /* I =  5 */
(PID.TID 0000.0001)                 2.364352994647058E+05,      /* I =  6 */
(PID.TID 0000.0001)                 2.490022710862746E+05,      /* I =  7 */
(PID.TID 0000.0001)                 2.598919724358304E+05,      /* I =  8 */
(PID.TID 0000.0001)                 2.693210245495156E+05,      /* I =  9 */
(PID.TID 0000.0001)                 2.774243179696503E+05,      /* I = 10 */
(PID.TID 0000.0001)                 2.842862532064524E+05,      /* I = 11 */
(PID.TID 0000.0001)                 2.899590699694043E+05,      /* I = 12 */
(PID.TID 0000.0001)                 2.944742915095688E+05,      /* I = 13 */
(PID.TID 0000.0001)                 2.978501920522794E+05,      /* I = 14 */
(PID.TID 0000.0001)                 3.000967749619962E+05,      /* I = 15 */
(PID.TID 0000.0001)     2 @  3.012190981969055E+05,             /* I = 16: 17 */
(PID.TID 0000.0001)                 3.000967749619962E+05,      /* I = 18 */
(PID.TID 0000.0001)                 2.978501920522794E+05,      /* I = 19 */
(PID.TID 0000.0001)                 2.944742915095688E+05,      /* I = 20 */
(PID.TID 0000.0001)                 2.899590699694043E+05,      /* I = 21 */
(PID.TID 0000.0001)                 2.842862532064524E+05,      /* I = 22 */
(PID.TID 0000.0001)                 2.774243179696503E+05,      /* I = 23 */
(PID.TID 0000.0001)                 2.693210245495156E+05,      /* I = 24 */
(PID.TID 0000.0001)                 2.598919724358304E+05,      /* I = 25 */
(PID.TID 0000.0001)                 2.490022710862746E+05,      /* I = 26 */
(PID.TID 0000.0001)                 2.364352994647058E+05,      /* I = 27 */
(PID.TID 0000.0001)                 2.218350349844185E+05,      /* I = 28 */
(PID.TID 0000.0001)                 2.045883481718707E+05,      /* I = 29 */
(PID.TID 0000.0001)                 1.835530058121492E+05,      /* I = 30 */
(PID.TID 0000.0001)                 1.563594089971120E+05,      /* I = 31 */
(PID.TID 0000.0001)                 1.202082051331828E+05       /* I = 32 */
(PID.TID 0000.0001)     ;
(PID.TID 0000.0001) dxF =  /* dxF(1,:,1,:) ( units: m ) */
(PID.TID 0000.0001)                 1.202082051331828E+05,      /* J =  1 */
(PID.TID 0000.0001)                 1.572908084538706E+05,      /* J =  2 */
(PID.TID 0000.0001)                 1.840412227747703E+05,      /* J =  3 */
(PID.TID 0000.0001)                 2.048868197919576E+05,      /* J =  4 */
(PID.TID 0000.0001)                 2.220405216043041E+05,      /* J =  5 */
(PID.TID 0000.0001)                 2.365892017348392E+05,      /* J =  6 */
(PID.TID 0000.0001)                 2.491250781852558E+05,      /* J =  7 */
(PID.TID 0000.0001)                 2.599949918261881E+05,      /* J =  8 */
(PID.TID 0000.0001)                 2.694110134598581E+05,      /* J =  9 */
(PID.TID 0000.0001)                 2.775055554645015E+05,      /* J = 10 */
(PID.TID 0000.0001)                 2.843615645344775E+05,      /* J = 11 */
(PID.TID 0000.0001)                 2.900303768613599E+05,      /* J = 12 */
(PID.TID 0000.0001)                 2.945429307892709E+05,      /* J = 13 */
(PID.TID 0000.0001)                 2.979171143158405E+05,      /* J = 14 */
(PID.TID 0000.0001)                 3.001626787528886E+05,      /* J = 15 */
(PID.TID 0000.0001)     2 @  3.012844832048790E+05,             /* J = 16: 17 */
(PID.TID 0000.0001)                 3.001626787528886E+05,      /* J = 18 */
(PID.TID 0000.0001)                 2.979171143158405E+05,      /* J = 19 */
(PID.TID 0000.0001)                 2.945429307892709E+05,      /* J = 20 */
(PID.TID 0000.0001)                 2.900303768613599E+05,      /* J = 21 */
(PID.TID 0000.0001)                 2.843615645344775E+05,      /* J = 22 */
(PID.TID 0000.0001)                 2.775055554645015E+05,      /* J = 23 */
(PID.TID 0000.0001)                 2.694110134598581E+05,      /* J = 24 */
(PID.TID 0000.0001)                 2.599949918261881E+05,      /* J = 25 */
(PID.TID 0000.0001)                 2.491250781852558E+05,      /* J = 26 */
(PID.TID 0000.0001)                 2.365892017348392E+05,      /* J = 27 */
(PID.TID 0000.0001)                 2.220405216043041E+05,      /* J = 28 */
(PID.TID 0000.0001)                 2.048868197919576E+05,      /* J = 29 */
(PID.TID 0000.0001)                 1.840412227747703E+05,      /* J = 30 */
(PID.TID 0000.0001)                 1.572908084538706E+05,      /* J = 31 */
(PID.TID 0000.0001)                 1.202082051331828E+05       /* J = 32 */
(PID.TID 0000.0001)     ;
(PID.TID 0000.0001) dyF =  /* dyF(:,1,:,1) ( units: m ) */
(PID.TID 0000.0001)                 1.202082051331828E+05,      /* I =  1 */
(PID.TID 0000.0001)                 1.572908084538706E+05,      /* I =  2 */
(PID.TID 0000.0001)                 1.840412227747703E+05,      /* I =  3 */
(PID.TID 0000.0001)                 2.048868197919576E+05,      /* I =  4 */
(PID.TID 0000.0001)                 2.220405216043041E+05,      /* I =  5 */
(PID.TID 0000.0001)                 2.365892017348392E+05,      /* I =  6 */
(PID.TID 0000.0001)                 2.491250781852558E+05,      /* I =  7 */
(PID.TID 0000.0001)                 2.599949918261881E+05,      /* I =  8 */
(PID.TID 0000.0001)                 2.694110134598581E+05,      /* I =  9 */
(PID.TID 0000.0001)                 2.775055554645015E+05,      /* I = 10 */
(PID.TID 0000.0001)                 2.843615645344775E+05,      /* I = 11 */
(PID.TID 0000.0001)                 2.900303768613599E+05,      /* I = 12 */
(PID.TID 0000.0001)                 2.945429307892709E+05,      /* I = 13 */
(PID.TID 0000.0001)                 2.979171143158405E+05,      /* I = 14 */
(PID.TID 0000.0001)                 3.001626787528886E+05,      /* I = 15 */
(PID.TID 0000.0001)     2 @  3.012844832048790E+05,             /* I = 16: 17 */
(PID.TID 0000.0001)                 3.001626787528886E+05,      /* I = 18 */
(PID.TID 0000.0001)                 2.979171143158405E+05,      /* I = 19 */
(PID.TID 0000.0001)                 2.945429307892709E+05,      /* I = 20 */
(PID.TID 0000.0001)                 2.900303768613599E+05,      /* I = 21 */
(PID.TID 0000.0001)                 2.843615645344775E+05,      /* I = 22 */
(PID.TID 0000.0001)                 2.775055554645015E+05,      /* I = 23 */
(PID.TID 0000.0001)                 2.694110134598581E+05,      /* I = 24 */
(PID.TID 0000.0001)                 2.599949918261881E+05,      /* I = 25 */
(PID.TID 0000.0001)                 2.491250781852558E+05,      /* I = 26 */
(PID.TID 0000.0001)                 2.365892017348392E+05,      /* I = 27 */
(PID.TID 0000.0001)                 2.220405216043041E+05,      /* I = 28 */
(PID.TID 0000.0001)                 2.048868197919576E+05,      /* I = 29 */
(PID.TID 0000.0001)                 1.840412227747703E+05,      /* I = 30 */
(PID.TID 0000.0001)                 1.572908084538706E+05,      /* I = 31 */
(PID.TID 0000.0001)                 1.202082051331828E+05       /* I = 32 */
(PID.TID 0000.0001)     ;
(PID.TID 0000.0001) dyF =  /* dyF(1,:,1,:) ( units: m ) */
(PID.TID 0000.0001)                 1.202082051331828E+05,      /* J =  1 */
(PID.TID 0000.0001)                 1.563594089971120E+05,      /* J =  2 */
(PID.TID 0000.0001)                 1.835530058121492E+05,      /* J =  3 */
(PID.TID 0000.0001)                 2.045883481718707E+05,      /* J =  4 */
(PID.TID 0000.0001)                 2.218350349844185E+05,      /* J =  5 */
(PID.TID 0000.0001)                 2.364352994647058E+05,      /* J =  6 */
(PID.TID 0000.0001)                 2.490022710862746E+05,      /* J =  7 */
(PID.TID 0000.0001)                 2.598919724358304E+05,      /* J =  8 */
(PID.TID 0000.0001)                 2.693210245495156E+05,      /* J =  9 */
(PID.TID 0000.0001)                 2.774243179696503E+05,      /* J = 10 */
(PID.TID 0000.0001)                 2.842862532064524E+05,      /* J = 11 */
(PID.TID 0000.0001)                 2.899590699694043E+05,      /* J = 12 */
(PID.TID 0000.0001)                 2.944742915095688E+05,      /* J = 13 */
(PID.TID 0000.0001)                 2.978501920522794E+05,      /* J = 14 */
(PID.TID 0000.0001)                 3.000967749619962E+05,      /* J = 15 */
(PID.TID 0000.0001)     2 @  3.012190981969055E+05,             /* J = 16: 17 */
(PID.TID 0000.0001)                 3.000967749619962E+05,      /* J = 18 */
(PID.TID 0000.0001)                 2.978501920522794E+05,      /* J = 19 */
(PID.TID 0000.0001)                 2.944742915095688E+05,      /* J = 20 */
(PID.TID 0000.0001)                 2.899590699694043E+05,      /* J = 21 */
(PID.TID 0000.0001)                 2.842862532064524E+05,      /* J = 22 */
(PID.TID 0000.0001)                 2.774243179696503E+05,      /* J = 23 */
(PID.TID 0000.0001)                 2.693210245495156E+05,      /* J = 24 */
(PID.TID 0000.0001)                 2.598919724358304E+05,      /* J = 25 */
(PID.TID 0000.0001)                 2.490022710862746E+05,      /* J = 26 */
(PID.TID 0000.0001)                 2.364352994647058E+05,      /* J = 27 */
(PID.TID 0000.0001)                 2.218350349844185E+05,      /* J = 28 */
(PID.TID 0000.0001)                 2.045883481718707E+05,      /* J = 29 */
(PID.TID 0000.0001)                 1.835530058121492E+05,      /* J = 30 */
(PID.TID 0000.0001)                 1.563594089971120E+05,      /* J = 31 */
(PID.TID 0000.0001)                 1.202082051331828E+05       /* J = 32 */
(PID.TID 0000.0001)     ;
(PID.TID 0000.0001) dxG =  /* dxG(:,1,:,1) ( units: m ) */
(PID.TID 0000.0001)                 1.009837800879055E+05,      /* I =  1 */
(PID.TID 0000.0001)                 1.534505834330338E+05,      /* I =  2 */
(PID.TID 0000.0001)                 1.823321598773926E+05,      /* I =  3 */
(PID.TID 0000.0001)                 2.038999045536999E+05,      /* I =  4 */
(PID.TID 0000.0001)                 2.213884732245467E+05,      /* I =  5 */
(PID.TID 0000.0001)                 2.361211699596122E+05,      /* I =  6 */
(PID.TID 0000.0001)                 2.487693460283865E+05,      /* I =  7 */
(PID.TID 0000.0001)                 2.597126963772147E+05,      /* I =  8 */
(PID.TID 0000.0001)                 2.691790288994575E+05,      /* I =  9 */
(PID.TID 0000.0001)                 2.773091043277394E+05,      /* I = 10 */
(PID.TID 0000.0001)                 2.841906470085516E+05,      /* I = 11 */
(PID.TID 0000.0001)                 2.898778860929753E+05,      /* I = 12 */
(PID.TID 0000.0001)                 2.944035815526416E+05,      /* I = 13 */
(PID.TID 0000.0001)                 2.977867909042096E+05,      /* I = 14 */
(PID.TID 0000.0001)                 3.000380090330854E+05,      /* I = 15 */
(PID.TID 0000.0001)     2 @  3.011625828699101E+05,             /* I = 16: 17 */
(PID.TID 0000.0001)                 3.000380090330854E+05,      /* I = 18 */
(PID.TID 0000.0001)                 2.977867909042096E+05,      /* I = 19 */
(PID.TID 0000.0001)                 2.944035815526416E+05,      /* I = 20 */
(PID.TID 0000.0001)                 2.898778860929753E+05,      /* I = 21 */
(PID.TID 0000.0001)                 2.841906470085516E+05,      /* I = 22 */
(PID.TID 0000.0001)                 2.773091043277394E+05,      /* I = 23 */
(PID.TID 0000.0001)                 2.691790288994575E+05,      /* I = 24 */
(PID.TID 0000.0001)                 2.597126963772147E+05,      /* I = 25 */
(PID.TID 0000.0001)                 2.487693460283865E+05,      /* I = 26 */
(PID.TID 0000.0001)                 2.361211699596122E+05,      /* I = 27 */
(PID.TID 0000.0001)                 2.213884732245467E+05,      /* I = 28 */
(PID.TID 0000.0001)                 2.038999045536999E+05,      /* I = 29 */
(PID.TID 0000.0001)                 1.823321598773926E+05,      /* I = 30 */
(PID.TID 0000.0001)                 1.534505834330338E+05,      /* I = 31 */
(PID.TID 0000.0001)                 1.009837800879055E+05       /* I = 32 */
(PID.TID 0000.0001)     ;
(PID.TID 0000.0001) dxG =  /* dxG(1,:,1,:) ( units: m ) */
(PID.TID 0000.0001)                 1.009837800879055E+05,      /* J =  1 */
(PID.TID 0000.0001)                 1.403701524205398E+05,      /* J =  2 */
(PID.TID 0000.0001)                 1.716197227386011E+05,      /* J =  3 */
(PID.TID 0000.0001)                 1.950254041626018E+05,      /* J =  4 */
(PID.TID 0000.0001)                 2.138410773065497E+05,      /* J =  5 */
(PID.TID 0000.0001)                 2.295958105911512E+05,      /* J =  6 */
(PID.TID 0000.0001)                 2.430829951739083E+05,      /* J =  7 */
(PID.TID 0000.0001)                 2.547526806712889E+05,      /* J =  8 */
(PID.TID 0000.0001)                 2.648750305193301E+05,      /* J =  9 */
(PID.TID 0000.0001)                 2.736173771018112E+05,      /* J = 10 */
(PID.TID 0000.0001)                 2.810845823202647E+05,      /* J = 11 */
(PID.TID 0000.0001)                 2.873420591008078E+05,      /* J = 12 */
(PID.TID 0000.0001)                 2.924298293668651E+05,      /* J = 13 */
(PID.TID 0000.0001)                 2.963715635865306E+05,      /* J = 14 */
(PID.TID 0000.0001)                 2.991805843171258E+05,      /* J = 15 */
(PID.TID 0000.0001)                 3.008638765647886E+05,      /* J = 16 */
(PID.TID 0000.0001)                 3.014246674484008E+05,      /* J = 17 */
(PID.TID 0000.0001)                 3.008638765647886E+05,      /* J = 18 */
(PID.TID 0000.0001)                 2.991805843171258E+05,      /* J = 19 */
(PID.TID 0000.0001)                 2.963715635865306E+05,      /* J = 20 */
(PID.TID 0000.0001)                 2.924298293668651E+05,      /* J = 21 */
(PID.TID 0000.0001)                 2.873420591008078E+05,      /* J = 22 */
(PID.TID 0000.0001)                 2.810845823202647E+05,      /* J = 23 */
(PID.TID 0000.0001)                 2.736173771018112E+05,      /* J = 24 */
(PID.TID 0000.0001)                 2.648750305193301E+05,      /* J = 25 */
(PID.TID 0000.0001)                 2.547526806712889E+05,      /* J = 26 */
(PID.TID 0000.0001)                 2.430829951739083E+05,      /* J = 27 */
(PID.TID 0000.0001)                 2.295958105911512E+05,      /* J = 28 */
(PID.TID 0000.0001)                 2.138410773065497E+05,      /* J = 29 */
(PID.TID 0000.0001)                 1.950254041626018E+05,      /* J = 30 */
(PID.TID 0000.0001)                 1.716197227386011E+05,      /* J = 31 */
(PID.TID 0000.0001)                 1.403701524205398E+05       /* J = 32 */
(PID.TID 0000.0001)     ;
(PID.TID 0000.0001) dyG =  /* dyG(:,1,:,1) ( units: m ) */
(PID.TID 0000.0001)                 1.009837800879055E+05,      /* I =  1 */
(PID.TID 0000.0001)                 1.403701524205398E+05,      /* I =  2 */
(PID.TID 0000.0001)                 1.716197227386011E+05,      /* I =  3 */
(PID.TID 0000.0001)                 1.950254041626018E+05,      /* I =  4 */
(PID.TID 0000.0001)                 2.138410773065497E+05,      /* I =  5 */
(PID.TID 0000.0001)                 2.295958105911512E+05,      /* I =  6 */
(PID.TID 0000.0001)                 2.430829951739083E+05,      /* I =  7 */
(PID.TID 0000.0001)                 2.547526806712889E+05,      /* I =  8 */
(PID.TID 0000.0001)                 2.648750305193301E+05,      /* I =  9 */
(PID.TID 0000.0001)                 2.736173771018112E+05,      /* I = 10 */
(PID.TID 0000.0001)                 2.810845823202647E+05,      /* I = 11 */
(PID.TID 0000.0001)                 2.873420591008078E+05,      /* I = 12 */
(PID.TID 0000.0001)                 2.924298293668651E+05,      /* I = 13 */
(PID.TID 0000.0001)                 2.963715635865306E+05,      /* I = 14 */
(PID.TID 0000.0001)                 2.991805843171258E+05,      /* I = 15 */
(PID.TID 0000.0001)                 3.008638765647886E+05,      /* I = 16 */
(PID.TID 0000.0001)                 3.014246674484008E+05,      /* I = 17 */
(PID.TID 0000.0001)                 3.008638765647886E+05,      /* I = 18 */
(PID.TID 0000.0001)                 2.991805843171258E+05,      /* I = 19 */
(PID.TID 0000.0001)                 2.963715635865306E+05,      /* I = 20 */
(PID.TID 0000.0001)                 2.924298293668651E+05,      /* I = 21 */
(PID.TID 0000.0001)                 2.873420591008078E+05,      /* I = 22 */
(PID.TID 0000.0001)                 2.810845823202647E+05,      /* I = 23 */
(PID.TID 0000.0001)                 2.736173771018112E+05,      /* I = 24 */
(PID.TID 0000.0001)                 2.648750305193301E+05,      /* I = 25 */
(PID.TID 0000.0001)                 2.547526806712889E+05,      /* I = 26 */
(PID.TID 0000.0001)                 2.430829951739083E+05,      /* I = 27 */
(PID.TID 0000.0001)                 2.295958105911512E+05,      /* I = 28 */
(PID.TID 0000.0001)                 2.138410773065497E+05,      /* I = 29 */
(PID.TID 0000.0001)                 1.950254041626018E+05,      /* I = 30 */
(PID.TID 0000.0001)                 1.716197227386011E+05,      /* I = 31 */
(PID.TID 0000.0001)                 1.403701524205398E+05       /* I = 32 */
(PID.TID 0000.0001)     ;
(PID.TID 0000.0001) dyG =  /* dyG(1,:,1,:) ( units: m ) */
(PID.TID 0000.0001)                 1.009837800879055E+05,      /* J =  1 */
(PID.TID 0000.0001)                 1.534505834330338E+05,      /* J =  2 */
(PID.TID 0000.0001)                 1.823321598773926E+05,      /* J =  3 */
(PID.TID 0000.0001)                 2.038999045536999E+05,      /* J =  4 */
(PID.TID 0000.0001)                 2.213884732245467E+05,      /* J =  5 */
(PID.TID 0000.0001)                 2.361211699596122E+05,      /* J =  6 */
(PID.TID 0000.0001)                 2.487693460283865E+05,      /* J =  7 */
(PID.TID 0000.0001)                 2.597126963772147E+05,      /* J =  8 */
(PID.TID 0000.0001)                 2.691790288994575E+05,      /* J =  9 */
(PID.TID 0000.0001)                 2.773091043277394E+05,      /* J = 10 */
(PID.TID 0000.0001)                 2.841906470085516E+05,      /* J = 11 */
(PID.TID 0000.0001)                 2.898778860929753E+05,      /* J = 12 */
(PID.TID 0000.0001)                 2.944035815526416E+05,      /* J = 13 */
(PID.TID 0000.0001)                 2.977867909042096E+05,      /* J = 14 */
(PID.TID 0000.0001)                 3.000380090330854E+05,      /* J = 15 */
(PID.TID 0000.0001)     2 @  3.011625828699101E+05,             /* J = 16: 17 */
(PID.TID 0000.0001)                 3.000380090330854E+05,      /* J = 18 */
(PID.TID 0000.0001)                 2.977867909042096E+05,      /* J = 19 */
(PID.TID 0000.0001)                 2.944035815526416E+05,      /* J = 20 */
(PID.TID 0000.0001)                 2.898778860929753E+05,      /* J = 21 */
(PID.TID 0000.0001)                 2.841906470085516E+05,      /* J = 22 */
(PID.TID 0000.0001)                 2.773091043277394E+05,      /* J = 23 */
(PID.TID 0000.0001)                 2.691790288994575E+05,      /* J = 24 */
(PID.TID 0000.0001)                 2.597126963772147E+05,      /* J = 25 */
(PID.TID 0000.0001)                 2.487693460283865E+05,      /* J = 26 */
(PID.TID 0000.0001)                 2.361211699596122E+05,      /* J = 27 */
(PID.TID 0000.0001)                 2.213884732245467E+05,      /* J = 28 */
(PID.TID 0000.0001)                 2.038999045536999E+05,      /* J = 29 */
(PID.TID 0000.0001)                 1.823321598773926E+05,      /* J = 30 */
(PID.TID 0000.0001)                 1.534505834330338E+05,      /* J = 31 */
(PID.TID 0000.0001)                 1.009837800879055E+05       /* J = 32 */
(PID.TID 0000.0001)     ;
(PID.TID 0000.0001) dxC =  /* dxC(:,1,:,1) ( units: m ) */
(PID.TID 0000.0001)                 1.114203141013064E+05,      /* I =  1 */
(PID.TID 0000.0001)                 1.391343389937106E+05,      /* I =  2 */
(PID.TID 0000.0001)                 1.709574999026266E+05,      /* I =  3 */
(PID.TID 0000.0001)                 1.946503699269892E+05,      /* I =  4 */
(PID.TID 0000.0001)                 2.135964483342134E+05,      /* I =  5 */
(PID.TID 0000.0001)                 2.294195678257306E+05,      /* I =  6 */
(PID.TID 0000.0001)                 2.429464709770498E+05,      /* I =  7 */
(PID.TID 0000.0001)                 2.546408290696998E+05,      /* I =  8 */
(PID.TID 0000.0001)                 2.647791839299727E+05,      /* I =  9 */
(PID.TID 0000.0001)                 2.735321911346108E+05,      /* I = 10 */
(PID.TID 0000.0001)                 2.810065951609633E+05,      /* I = 11 */
(PID.TID 0000.0001)                 2.872689479506990E+05,      /* I = 12 */
(PID.TID 0000.0001)                 2.923599955312932E+05,      /* I = 13 */
(PID.TID 0000.0001)                 2.963038832565530E+05,      /* I = 14 */
(PID.TID 0000.0001)                 2.991142470004740E+05,      /* I = 15 */
(PID.TID 0000.0001)                 3.007982711627968E+05,      /* I = 16 */
(PID.TID 0000.0001)                 3.013593857228136E+05,      /* I = 17 */
(PID.TID 0000.0001)                 3.007982711627968E+05,      /* I = 18 */
(PID.TID 0000.0001)                 2.991142470004740E+05,      /* I = 19 */
(PID.TID 0000.0001)                 2.963038832565530E+05,      /* I = 20 */
(PID.TID 0000.0001)                 2.923599955312932E+05,      /* I = 21 */
(PID.TID 0000.0001)                 2.872689479506990E+05,      /* I = 22 */
(PID.TID 0000.0001)                 2.810065951609633E+05,      /* I = 23 */
(PID.TID 0000.0001)                 2.735321911346108E+05,      /* I = 24 */
(PID.TID 0000.0001)                 2.647791839299727E+05,      /* I = 25 */
(PID.TID 0000.0001)                 2.546408290696998E+05,      /* I = 26 */
(PID.TID 0000.0001)                 2.429464709770498E+05,      /* I = 27 */
(PID.TID 0000.0001)                 2.294195678257306E+05,      /* I = 28 */
(PID.TID 0000.0001)                 2.135964483342134E+05,      /* I = 29 */
(PID.TID 0000.0001)                 1.946503699269892E+05,      /* I = 30 */
(PID.TID 0000.0001)                 1.709574999026266E+05,      /* I = 31 */
(PID.TID 0000.0001)                 1.391343389937106E+05       /* I = 32 */
(PID.TID 0000.0001)     ;
(PID.TID 0000.0001) dxC =  /* dxC(1,:,1,:) ( units: m ) */
(PID.TID 0000.0001)                 1.114203141013064E+05,      /* J =  1 */
(PID.TID 0000.0001)                 1.549545757850771E+05,      /* J =  2 */
(PID.TID 0000.0001)                 1.829777599966776E+05,      /* J =  3 */
(PID.TID 0000.0001)                 2.042717761866506E+05,      /* J =  4 */
(PID.TID 0000.0001)                 2.216367828252819E+05,      /* J =  5 */
(PID.TID 0000.0001)                 2.363029564123586E+05,      /* J =  6 */
(PID.TID 0000.0001)                 2.489113743322025E+05,      /* J =  7 */
(PID.TID 0000.0001)                 2.598293319150326E+05,      /* J =  8 */
(PID.TID 0000.0001)                 2.692787333338535E+05,      /* J =  9 */
(PID.TID 0000.0001)                 2.773972106720365E+05,      /* J = 10 */
(PID.TID 0000.0001)                 2.842706922224557E+05,      /* J = 11 */
(PID.TID 0000.0001)                 2.899523122489403E+05,      /* J = 12 */
(PID.TID 0000.0001)                 2.944741346384699E+05,      /* J = 13 */
(PID.TID 0000.0001)                 2.978547649292580E+05,      /* J = 14 */
(PID.TID 0000.0001)                 3.001044073506459E+05,      /* J = 15 */
(PID.TID 0000.0001)     2 @  3.012281885409289E+05,             /* J = 16: 17 */
(PID.TID 0000.0001)                 3.001044073506459E+05,      /* J = 18 */
(PID.TID 0000.0001)                 2.978547649292580E+05,      /* J = 19 */
(PID.TID 0000.0001)                 2.944741346384699E+05,      /* J = 20 */
(PID.TID 0000.0001)                 2.899523122489403E+05,      /* J = 21 */
(PID.TID 0000.0001)                 2.842706922224557E+05,      /* J = 22 */
(PID.TID 0000.0001)                 2.773972106720365E+05,      /* J = 23 */
(PID.TID 0000.0001)                 2.692787333338535E+05,      /* J = 24 */
(PID.TID 0000.0001)                 2.598293319150326E+05,      /* J = 25 */
(PID.TID 0000.0001)                 2.489113743322025E+05,      /* J = 26 */
(PID.TID 0000.0001)                 2.363029564123586E+05,      /* J = 27 */
(PID.TID 0000.0001)                 2.216367828252819E+05,      /* J = 28 */
(PID.TID 0000.0001)                 2.042717761866506E+05,      /* J = 29 */
(PID.TID 0000.0001)                 1.829777599966776E+05,      /* J = 30 */
(PID.TID 0000.0001)                 1.549545757850771E+05,      /* J = 31 */
(PID.TID 0000.0001)                 1.114203141013064E+05       /* J = 32 */
(PID.TID 0000.0001)     ;
(PID.TID 0000.0001) dyC =  /* dyC(:,1,:,1) ( units: m ) */
(PID.TID 0000.0001)                 1.114203141013064E+05,      /* I =  1 */
(PID.TID 0000.0001)                 1.549545757850771E+05,      /* I =  2 */
(PID.TID 0000.0001)                 1.829777599966776E+05,      /* I =  3 */
(PID.TID 0000.0001)                 2.042717761866506E+05,      /* I =  4 */
(PID.TID 0000.0001)                 2.216367828252819E+05,      /* I =  5 */
(PID.TID 0000.0001)                 2.363029564123586E+05,      /* I =  6 */
(PID.TID 0000.0001)                 2.489113743322025E+05,      /* I =  7 */
(PID.TID 0000.0001)                 2.598293319150326E+05,      /* I =  8 */
(PID.TID 0000.0001)                 2.692787333338535E+05,      /* I =  9 */
(PID.TID 0000.0001)                 2.773972106720365E+05,      /* I = 10 */
(PID.TID 0000.0001)                 2.842706922224557E+05,      /* I = 11 */
(PID.TID 0000.0001)                 2.899523122489403E+05,      /* I = 12 */
(PID.TID 0000.0001)                 2.944741346384699E+05,      /* I = 13 */
(PID.TID 0000.0001)                 2.978547649292580E+05,      /* I = 14 */
(PID.TID 0000.0001)                 3.001044073506459E+05,      /* I = 15 */
(PID.TID 0000.0001)     2 @  3.012281885409289E+05,             /* I = 16: 17 */
(PID.TID 0000.0001)                 3.001044073506459E+05,      /* I = 18 */
(PID.TID 0000.0001)                 2.978547649292580E+05,      /* I = 19 */
(PID.TID 0000.0001)                 2.944741346384699E+05,      /* I = 20 */
(PID.TID 0000.0001)                 2.899523122489403E+05,      /* I = 21 */
(PID.TID 0000.0001)                 2.842706922224557E+05,      /* I = 22 */
(PID.TID 0000.0001)                 2.773972106720365E+05,      /* I = 23 */
(PID.TID 0000.0001)                 2.692787333338535E+05,      /* I = 24 */
(PID.TID 0000.0001)                 2.598293319150326E+05,      /* I = 25 */
(PID.TID 0000.0001)                 2.489113743322025E+05,      /* I = 26 */
(PID.TID 0000.0001)                 2.363029564123586E+05,      /* I = 27 */
(PID.TID 0000.0001)                 2.216367828252819E+05,      /* I = 28 */
(PID.TID 0000.0001)                 2.042717761866506E+05,      /* I = 29 */
(PID.TID 0000.0001)                 1.829777599966776E+05,      /* I = 30 */
(PID.TID 0000.0001)                 1.549545757850771E+05,      /* I = 31 */
(PID.TID 0000.0001)                 1.114203141013064E+05       /* I = 32 */
(PID.TID 0000.0001)     ;
(PID.TID 0000.0001) dyC =  /* dyC(1,:,1,:) ( units: m ) */
(PID.TID 0000.0001)                 1.114203141013064E+05,      /* J =  1 */
(PID.TID 0000.0001)                 1.391343389937106E+05,      /* J =  2 */
(PID.TID 0000.0001)                 1.709574999026266E+05,      /* J =  3 */
(PID.TID 0000.0001)                 1.946503699269892E+05,      /* J =  4 */
(PID.TID 0000.0001)                 2.135964483342134E+05,      /* J =  5 */
(PID.TID 0000.0001)                 2.294195678257306E+05,      /* J =  6 */
(PID.TID 0000.0001)                 2.429464709770498E+05,      /* J =  7 */
(PID.TID 0000.0001)                 2.546408290696998E+05,      /* J =  8 */
(PID.TID 0000.0001)                 2.647791839299727E+05,      /* J =  9 */
(PID.TID 0000.0001)                 2.735321911346108E+05,      /* J = 10 */
(PID.TID 0000.0001)                 2.810065951609633E+05,      /* J = 11 */
(PID.TID 0000.0001)                 2.872689479506990E+05,      /* J = 12 */
(PID.TID 0000.0001)                 2.923599955312932E+05,      /* J = 13 */
(PID.TID 0000.0001)                 2.963038832565530E+05,      /* J = 14 */
(PID.TID 0000.0001)                 2.991142470004740E+05,      /* J = 15 */
(PID.TID 0000.0001)                 3.007982711627968E+05,      /* J = 16 */
(PID.TID 0000.0001)                 3.013593857228136E+05,      /* J = 17 */
(PID.TID 0000.0001)                 3.007982711627968E+05,      /* J = 18 */
(PID.TID 0000.0001)                 2.991142470004740E+05,      /* J = 19 */
(PID.TID 0000.0001)                 2.963038832565530E+05,      /* J = 20 */
(PID.TID 0000.0001)                 2.923599955312932E+05,      /* J = 21 */
(PID.TID 0000.0001)                 2.872689479506990E+05,      /* J = 22 */
(PID.TID 0000.0001)                 2.810065951609633E+05,      /* J = 23 */
(PID.TID 0000.0001)                 2.735321911346108E+05,      /* J = 24 */
(PID.TID 0000.0001)                 2.647791839299727E+05,      /* J = 25 */
(PID.TID 0000.0001)                 2.546408290696998E+05,      /* J = 26 */
(PID.TID 0000.0001)                 2.429464709770498E+05,      /* J = 27 */
(PID.TID 0000.0001)                 2.294195678257306E+05,      /* J = 28 */
(PID.TID 0000.0001)                 2.135964483342134E+05,      /* J = 29 */
(PID.TID 0000.0001)                 1.946503699269892E+05,      /* J = 30 */
(PID.TID 0000.0001)                 1.709574999026266E+05,      /* J = 31 */
(PID.TID 0000.0001)                 1.391343389937106E+05       /* J = 32 */
(PID.TID 0000.0001)     ;
(PID.TID 0000.0001) dxV =  /* dxV(:,1,:,1) ( units: m ) */
(PID.TID 0000.0001)                 8.015229982413632E+04,      /* I =  1 */
(PID.TID 0000.0001)                 1.333130744933864E+05,      /* I =  2 */
(PID.TID 0000.0001)                 1.691744868129062E+05,      /* I =  3 */
(PID.TID 0000.0001)                 1.937548202849060E+05,      /* I =  4 */
(PID.TID 0000.0001)                 2.130490056267208E+05,      /* I =  5 */
(PID.TID 0000.0001)                 2.290479919481738E+05,      /* I =  6 */
(PID.TID 0000.0001)                 2.426774358027003E+05,      /* I =  7 */
(PID.TID 0000.0001)                 2.544372984215561E+05,      /* I =  8 */
(PID.TID 0000.0001)                 2.646201463834826E+05,      /* I =  9 */
(PID.TID 0000.0001)                 2.734046499619031E+05,      /* I = 10 */
(PID.TID 0000.0001)                 2.809019351693761E+05,      /* I = 11 */
(PID.TID 0000.0001)                 2.871811105274442E+05,      /* I = 12 */
(PID.TID 0000.0001)                 2.922844849381675E+05,      /* I = 13 */
(PID.TID 0000.0001)                 2.962371870847826E+05,      /* I = 14 */
(PID.TID 0000.0001)                 2.990534755671296E+05,      /* I = 15 */
(PID.TID 0000.0001)                 3.007409169495504E+05,      /* I = 16 */
(PID.TID 0000.0001)                 3.013031486919771E+05,      /* I = 17 */
(PID.TID 0000.0001)                 3.007409169495504E+05,      /* I = 18 */
(PID.TID 0000.0001)                 2.990534755671296E+05,      /* I = 19 */
(PID.TID 0000.0001)                 2.962371870847826E+05,      /* I = 20 */
(PID.TID 0000.0001)                 2.922844849381675E+05,      /* I = 21 */
(PID.TID 0000.0001)                 2.871811105274442E+05,      /* I = 22 */
(PID.TID 0000.0001)                 2.809019351693761E+05,      /* I = 23 */
(PID.TID 0000.0001)                 2.734046499619031E+05,      /* I = 24 */
(PID.TID 0000.0001)                 2.646201463834826E+05,      /* I = 25 */
(PID.TID 0000.0001)                 2.544372984215561E+05,      /* I = 26 */
(PID.TID 0000.0001)                 2.426774358027003E+05,      /* I = 27 */
(PID.TID 0000.0001)                 2.290479919481738E+05,      /* I = 28 */
(PID.TID 0000.0001)                 2.130490056267208E+05,      /* I = 29 */
(PID.TID 0000.0001)                 1.937548202849060E+05,      /* I = 30 */
(PID.TID 0000.0001)                 1.691744868129062E+05,      /* I = 31 */
(PID.TID 0000.0001)                 1.333130744933864E+05       /* I = 32 */
(PID.TID 0000.0001)     ;
(PID.TID 0000.0001) dxV =  /* dxV(1,:,1,:) ( units: m ) */
(PID.TID 0000.0001)                 8.015229982413632E+04,      /* J =  1 */
(PID.TID 0000.0001)                 1.362652340208229E+05,      /* J =  2 */
(PID.TID 0000.0001)                 1.701080315742101E+05,      /* J =  3 */
(PID.TID 0000.0001)                 1.942331448101592E+05,      /* J =  4 */
(PID.TID 0000.0001)                 2.133486626971531E+05,      /* J =  5 */
(PID.TID 0000.0001)                 2.292584591272880E+05,      /* J =  6 */
(PID.TID 0000.0001)                 2.428369969078989E+05,      /* J =  7 */
(PID.TID 0000.0001)                 2.545652950875683E+05,      /* J =  8 */
(PID.TID 0000.0001)                 2.647274964828301E+05,      /* J =  9 */
(PID.TID 0000.0001)                 2.734980225206389E+05,      /* J = 10 */
(PID.TID 0000.0001)                 2.809856491525217E+05,      /* J = 11 */
(PID.TID 0000.0001)                 2.872580915202295E+05,      /* J = 12 */
(PID.TID 0000.0001)                 2.923567890694162E+05,      /* J = 13 */
(PID.TID 0000.0001)                 2.963063101754721E+05,      /* J = 14 */
(PID.TID 0000.0001)                 2.991205495886625E+05,      /* J = 15 */
(PID.TID 0000.0001)                 3.008068453676764E+05,      /* J = 16 */
(PID.TID 0000.0001)                 3.013686170436881E+05,      /* J = 17 */
(PID.TID 0000.0001)                 3.008068453676764E+05,      /* J = 18 */
(PID.TID 0000.0001)                 2.991205495886625E+05,      /* J = 19 */
(PID.TID 0000.0001)                 2.963063101754721E+05,      /* J = 20 */
(PID.TID 0000.0001)                 2.923567890694162E+05,      /* J = 21 */
(PID.TID 0000.0001)                 2.872580915202295E+05,      /* J = 22 */
(PID.TID 0000.0001)                 2.809856491525217E+05,      /* J = 23 */
(PID.TID 0000.0001)                 2.734980225206389E+05,      /* J = 24 */
(PID.TID 0000.0001)                 2.647274964828301E+05,      /* J = 25 */
(PID.TID 0000.0001)                 2.545652950875683E+05,      /* J = 26 */
(PID.TID 0000.0001)                 2.428369969078989E+05,      /* J = 27 */
(PID.TID 0000.0001)                 2.292584591272880E+05,      /* J = 28 */
(PID.TID 0000.0001)                 2.133486626971531E+05,      /* J = 29 */
(PID.TID 0000.0001)                 1.942331448101592E+05,      /* J = 30 */
(PID.TID 0000.0001)                 1.701080315742101E+05,      /* J = 31 */
(PID.TID 0000.0001)                 1.362652340208229E+05       /* J = 32 */
(PID.TID 0000.0001)     ;
(PID.TID 0000.0001) dyU =  /* dyU(:,1,:,1) ( units: m ) */
(PID.TID 0000.0001)                 8.015229982413632E+04,      /* I =  1 */
(PID.TID 0000.0001)                 1.362652340208229E+05,      /* I =  2 */
(PID.TID 0000.0001)                 1.701080315742101E+05,      /* I =  3 */
(PID.TID 0000.0001)                 1.942331448101592E+05,      /* I =  4 */
(PID.TID 0000.0001)                 2.133486626971531E+05,      /* I =  5 */
(PID.TID 0000.0001)                 2.292584591272880E+05,      /* I =  6 */
(PID.TID 0000.0001)                 2.428369969078989E+05,      /* I =  7 */
(PID.TID 0000.0001)                 2.545652950875683E+05,      /* I =  8 */
(PID.TID 0000.0001)                 2.647274964828301E+05,      /* I =  9 */
(PID.TID 0000.0001)                 2.734980225206389E+05,      /* I = 10 */
(PID.TID 0000.0001)                 2.809856491525217E+05,      /* I = 11 */
(PID.TID 0000.0001)                 2.872580915202295E+05,      /* I = 12 */
(PID.TID 0000.0001)                 2.923567890694162E+05,      /* I = 13 */
(PID.TID 0000.0001)                 2.963063101754721E+05,      /* I = 14 */
(PID.TID 0000.0001)                 2.991205495886625E+05,      /* I = 15 */
(PID.TID 0000.0001)                 3.008068453676764E+05,      /* I = 16 */
(PID.TID 0000.0001)                 3.013686170436881E+05,      /* I = 17 */
(PID.TID 0000.0001)                 3.008068453676764E+05,      /* I = 18 */
(PID.TID 0000.0001)                 2.991205495886625E+05,      /* I = 19 */
(PID.TID 0000.0001)                 2.963063101754721E+05,      /* I = 20 */
(PID.TID 0000.0001)                 2.923567890694162E+05,      /* I = 21 */
(PID.TID 0000.0001)                 2.872580915202295E+05,      /* I = 22 */
(PID.TID 0000.0001)                 2.809856491525217E+05,      /* I = 23 */
(PID.TID 0000.0001)                 2.734980225206389E+05,      /* I = 24 */
(PID.TID 0000.0001)                 2.647274964828301E+05,      /* I = 25 */
(PID.TID 0000.0001)                 2.545652950875683E+05,      /* I = 26 */
(PID.TID 0000.0001)                 2.428369969078989E+05,      /* I = 27 */
(PID.TID 0000.0001)                 2.292584591272880E+05,      /* I = 28 */
(PID.TID 0000.0001)                 2.133486626971531E+05,      /* I = 29 */
(PID.TID 0000.0001)                 1.942331448101592E+05,      /* I = 30 */
(PID.TID 0000.0001)                 1.701080315742101E+05,      /* I = 31 */
(PID.TID 0000.0001)                 1.362652340208229E+05       /* I = 32 */
(PID.TID 0000.0001)     ;
(PID.TID 0000.0001) dyU =  /* dyU(1,:,1,:) ( units: m ) */
(PID.TID 0000.0001)                 8.015229982413632E+04,      /* J =  1 */
(PID.TID 0000.0001)                 1.333130744933864E+05,      /* J =  2 */
(PID.TID 0000.0001)                 1.691744868129062E+05,      /* J =  3 */
(PID.TID 0000.0001)                 1.937548202849060E+05,      /* J =  4 */
(PID.TID 0000.0001)                 2.130490056267208E+05,      /* J =  5 */
(PID.TID 0000.0001)                 2.290479919481738E+05,      /* J =  6 */
(PID.TID 0000.0001)                 2.426774358027003E+05,      /* J =  7 */
(PID.TID 0000.0001)                 2.544372984215561E+05,      /* J =  8 */
(PID.TID 0000.0001)                 2.646201463834826E+05,      /* J =  9 */
(PID.TID 0000.0001)                 2.734046499619031E+05,      /* J = 10 */
(PID.TID 0000.0001)                 2.809019351693761E+05,      /* J = 11 */
(PID.TID 0000.0001)                 2.871811105274442E+05,      /* J = 12 */
(PID.TID 0000.0001)                 2.922844849381675E+05,      /* J = 13 */
(PID.TID 0000.0001)                 2.962371870847826E+05,      /* J = 14 */
(PID.TID 0000.0001)                 2.990534755671296E+05,      /* J = 15 */
(PID.TID 0000.0001)                 3.007409169495504E+05,      /* J = 16 */
(PID.TID 0000.0001)                 3.013031486919771E+05,      /* J = 17 */
(PID.TID 0000.0001)                 3.007409169495504E+05,      /* J = 18 */
(PID.TID 0000.0001)                 2.990534755671296E+05,      /* J = 19 */
(PID.TID 0000.0001)                 2.962371870847826E+05,      /* J = 20 */
(PID.TID 0000.0001)                 2.922844849381675E+05,      /* J = 21 */
(PID.TID 0000.0001)                 2.871811105274442E+05,      /* J = 22 */
(PID.TID 0000.0001)                 2.809019351693761E+05,      /* J = 23 */
(PID.TID 0000.0001)                 2.734046499619031E+05,      /* J = 24 */
(PID.TID 0000.0001)                 2.646201463834826E+05,      /* J = 25 */
(PID.TID 0000.0001)                 2.544372984215561E+05,      /* J = 26 */
(PID.TID 0000.0001)                 2.426774358027003E+05,      /* J = 27 */
(PID.TID 0000.0001)                 2.290479919481738E+05,      /* J = 28 */
(PID.TID 0000.0001)                 2.130490056267208E+05,      /* J = 29 */
(PID.TID 0000.0001)                 1.937548202849060E+05,      /* J = 30 */
(PID.TID 0000.0001)                 1.691744868129062E+05,      /* J = 31 */
(PID.TID 0000.0001)                 1.333130744933864E+05       /* J = 32 */
(PID.TID 0000.0001)     ;
(PID.TID 0000.0001) rA  =  /* rA (:,1,:,1) ( units: m^2 ) */
(PID.TID 0000.0001)                 1.401900702255611E+10,      /* I =  1 */
(PID.TID 0000.0001)                 2.459906945574446E+10,      /* I =  2 */
(PID.TID 0000.0001)                 3.378518544307869E+10,      /* I =  3 */
(PID.TID 0000.0001)                 4.192037169898667E+10,      /* I =  4 */
(PID.TID 0000.0001)                 4.925938996118163E+10,      /* I =  5 */
(PID.TID 0000.0001)                 5.594154126607553E+10,      /* I =  6 */
(PID.TID 0000.0001)                 6.203683527772523E+10,      /* I =  7 */
(PID.TID 0000.0001)                 6.757541173817516E+10,      /* I =  8 */
(PID.TID 0000.0001)                 7.256353271748119E+10,      /* I =  9 */
(PID.TID 0000.0001)                 7.699293007098555E+10,      /* I = 10 */
(PID.TID 0000.0001)                 8.084683449728902E+10,      /* I = 11 */
(PID.TID 0000.0001)                 8.410423102796223E+10,      /* I = 12 */
(PID.TID 0000.0001)                 8.674306976737517E+10,      /* I = 13 */
(PID.TID 0000.0001)                 8.874277443041928E+10,      /* I = 14 */
(PID.TID 0000.0001)                 9.008620045350865E+10,      /* I = 15 */
(PID.TID 0000.0001)                 9.076111290418457E+10,      /* I = 16 */
(PID.TID 0000.0001)                 9.076111290422060E+10,      /* I = 17 */
(PID.TID 0000.0001)                 9.008620045354469E+10,      /* I = 18 */
(PID.TID 0000.0001)                 8.874277443041928E+10,      /* I = 19 */
(PID.TID 0000.0001)                 8.674306976741121E+10,      /* I = 20 */
(PID.TID 0000.0001)                 8.410423102799828E+10,      /* I = 21 */
(PID.TID 0000.0001)                 8.084683449728902E+10,      /* I = 22 */
(PID.TID 0000.0001)                 7.699293007098555E+10,      /* I = 23 */
(PID.TID 0000.0001)                 7.256353271748119E+10,      /* I = 24 */
(PID.TID 0000.0001)                 6.757541173817516E+10,      /* I = 25 */
(PID.TID 0000.0001)                 6.203683527772523E+10,      /* I = 26 */
(PID.TID 0000.0001)                 5.594154126611156E+10,      /* I = 27 */
(PID.TID 0000.0001)                 4.925938996118163E+10,      /* I = 28 */
(PID.TID 0000.0001)                 4.192037169898667E+10,      /* I = 29 */
(PID.TID 0000.0001)                 3.378518544304265E+10,      /* I = 30 */
(PID.TID 0000.0001)                 2.459906945574446E+10,      /* I = 31 */
(PID.TID 0000.0001)                 1.401900702259215E+10       /* I = 32 */
(PID.TID 0000.0001)     ;
(PID.TID 0000.0001) rA  =  /* rA (1,:,1,:) ( units: m^2 ) */
(PID.TID 0000.0001)                 1.401900702255611E+10,      /* J =  1 */
(PID.TID 0000.0001)                 2.459906945574446E+10,      /* J =  2 */
(PID.TID 0000.0001)                 3.378518544307869E+10,      /* J =  3 */
(PID.TID 0000.0001)                 4.192037169898667E+10,      /* J =  4 */
(PID.TID 0000.0001)                 4.925938996118163E+10,      /* J =  5 */
(PID.TID 0000.0001)                 5.594154126607553E+10,      /* J =  6 */
(PID.TID 0000.0001)                 6.203683527776127E+10,      /* J =  7 */
(PID.TID 0000.0001)                 6.757541173817516E+10,      /* J =  8 */
(PID.TID 0000.0001)                 7.256353271748119E+10,      /* J =  9 */
(PID.TID 0000.0001)                 7.699293007098555E+10,      /* J = 10 */
(PID.TID 0000.0001)                 8.084683449728902E+10,      /* J = 11 */
(PID.TID 0000.0001)                 8.410423102799828E+10,      /* J = 12 */
(PID.TID 0000.0001)                 8.674306976737517E+10,      /* J = 13 */
(PID.TID 0000.0001)                 8.874277443041928E+10,      /* J = 14 */
(PID.TID 0000.0001)                 9.008620045350865E+10,      /* J = 15 */
(PID.TID 0000.0001)                 9.076111290418457E+10,      /* J = 16 */
(PID.TID 0000.0001)                 9.076111290422060E+10,      /* J = 17 */
(PID.TID 0000.0001)                 9.008620045354469E+10,      /* J = 18 */
(PID.TID 0000.0001)                 8.874277443041928E+10,      /* J = 19 */
(PID.TID 0000.0001)                 8.674306976737517E+10,      /* J = 20 */
(PID.TID 0000.0001)                 8.410423102799828E+10,      /* J = 21 */
(PID.TID 0000.0001)                 8.084683449728902E+10,      /* J = 22 */
(PID.TID 0000.0001)                 7.699293007098555E+10,      /* J = 23 */
(PID.TID 0000.0001)                 7.256353271748119E+10,      /* J = 24 */
(PID.TID 0000.0001)                 6.757541173817516E+10,      /* J = 25 */
(PID.TID 0000.0001)                 6.203683527772523E+10,      /* J = 26 */
(PID.TID 0000.0001)                 5.594154126607553E+10,      /* J = 27 */
(PID.TID 0000.0001)                 4.925938996118163E+10,      /* J = 28 */
(PID.TID 0000.0001)                 4.192037169898667E+10,      /* J = 29 */
(PID.TID 0000.0001)                 3.378518544307869E+10,      /* J = 30 */
(PID.TID 0000.0001)                 2.459906945574446E+10,      /* J = 31 */
(PID.TID 0000.0001)                 1.401900702259215E+10       /* J = 32 */
(PID.TID 0000.0001)     ;
(PID.TID 0000.0001) rAw =  /* rAw(:,1,:,1) ( units: m^2 ) */
(PID.TID 0000.0001)                 1.216690346714270E+10,      /* I =  1 */
(PID.TID 0000.0001)                 1.974052138506315E+10,      /* I =  2 */
(PID.TID 0000.0001)                 2.943712825252015E+10,      /* I =  3 */
(PID.TID 0000.0001)                 3.801790263324359E+10,      /* I =  4 */
(PID.TID 0000.0001)                 4.571243814189866E+10,      /* I =  5 */
(PID.TID 0000.0001)                 5.269930713599979E+10,      /* I =  6 */
(PID.TID 0000.0001)                 5.907428494299063E+10,      /* I =  7 */
(PID.TID 0000.0001)                 6.488320895111514E+10,      /* I =  8 */
(PID.TID 0000.0001)                 7.014205907741882E+10,      /* I =  9 */
(PID.TID 0000.0001)                 7.484854821847499E+10,      /* I = 10 */
(PID.TID 0000.0001)                 7.898934631431560E+10,      /* I = 11 */
(PID.TID 0000.0001)                 8.254500894894537E+10,      /* I = 12 */
(PID.TID 0000.0001)                 8.549360686473492E+10,      /* I = 13 */
(PID.TID 0000.0001)                 8.781353403175085E+10,      /* I = 14 */
(PID.TID 0000.0001)                 8.948571540392021E+10,      /* I = 15 */
(PID.TID 0000.0001)                 9.049530583086168E+10,      /* I = 16 */
(PID.TID 0000.0001)                 9.083293515008307E+10,      /* I = 17 */
(PID.TID 0000.0001)                 9.049530583087070E+10,      /* I = 18 */
(PID.TID 0000.0001)                 8.948571540391121E+10,      /* I = 19 */
(PID.TID 0000.0001)                 8.781353403174185E+10,      /* I = 20 */
(PID.TID 0000.0001)                 8.549360686467184E+10,      /* I = 21 */
(PID.TID 0000.0001)                 8.254500894890933E+10,      /* I = 22 */
(PID.TID 0000.0001)                 7.898934631434262E+10,      /* I = 23 */
(PID.TID 0000.0001)                 7.484854821844795E+10,      /* I = 24 */
(PID.TID 0000.0001)                 7.014205907742783E+10,      /* I = 25 */
(PID.TID 0000.0001)                 6.488320895111514E+10,      /* I = 26 */
(PID.TID 0000.0001)                 5.907428494299063E+10,      /* I = 27 */
(PID.TID 0000.0001)                 5.269930713599078E+10,      /* I = 28 */
(PID.TID 0000.0001)                 4.571243814190767E+10,      /* I = 29 */
(PID.TID 0000.0001)                 3.801790263325260E+10,      /* I = 30 */
(PID.TID 0000.0001)                 2.943712825251114E+10,      /* I = 31 */
(PID.TID 0000.0001)                 1.974052138509018E+10       /* I = 32 */
(PID.TID 0000.0001)     ;
(PID.TID 0000.0001) rAw =  /* rAw(1,:,1,:) ( units: m^2 ) */
(PID.TID 0000.0001)                 1.216690346714270E+10,      /* J =  1 */
(PID.TID 0000.0001)                 2.390126200743558E+10,      /* J =  2 */
(PID.TID 0000.0001)                 3.341968103208270E+10,      /* J =  3 */
(PID.TID 0000.0001)                 4.168532893152940E+10,      /* J =  4 */
(PID.TID 0000.0001)                 4.909074590409593E+10,      /* J =  5 */
(PID.TID 0000.0001)                 5.581203765722643E+10,      /* J =  6 */
(PID.TID 0000.0001)                 6.193257577506788E+10,      /* J =  7 */
(PID.TID 0000.0001)                 6.748840226738273E+10,      /* J =  8 */
(PID.TID 0000.0001)                 7.248875782324815E+10,      /* J =  9 */
(PID.TID 0000.0001)                 7.692702995909871E+10,      /* J = 10 */
(PID.TID 0000.0001)                 8.078743937057304E+10,      /* J = 11 */
(PID.TID 0000.0001)                 8.404959656062837E+10,      /* J = 12 */
(PID.TID 0000.0001)                 8.669186205742538E+10,      /* J = 13 */
(PID.TID 0000.0001)                 8.869393350723613E+10,      /* J = 14 */
(PID.TID 0000.0001)                 9.003884657168852E+10,      /* J = 15 */
(PID.TID 0000.0001)     2 @  9.071447638299399E+10,             /* J = 16: 17 */
(PID.TID 0000.0001)                 9.003884657168852E+10,      /* J = 18 */
(PID.TID 0000.0001)                 8.869393350723613E+10,      /* J = 19 */
(PID.TID 0000.0001)                 8.669186205742538E+10,      /* J = 20 */
(PID.TID 0000.0001)                 8.404959656062837E+10,      /* J = 21 */
(PID.TID 0000.0001)                 8.078743937057304E+10,      /* J = 22 */
(PID.TID 0000.0001)                 7.692702995909871E+10,      /* J = 23 */
(PID.TID 0000.0001)                 7.248875782324815E+10,      /* J = 24 */
(PID.TID 0000.0001)                 6.748840226738273E+10,      /* J = 25 */
(PID.TID 0000.0001)                 6.193257577506788E+10,      /* J = 26 */
(PID.TID 0000.0001)                 5.581203765722643E+10,      /* J = 27 */
(PID.TID 0000.0001)                 4.909074590409593E+10,      /* J = 28 */
(PID.TID 0000.0001)                 4.168532893152940E+10,      /* J = 29 */
(PID.TID 0000.0001)                 3.341968103208270E+10,      /* J = 30 */
(PID.TID 0000.0001)                 2.390126200743558E+10,      /* J = 31 */
(PID.TID 0000.0001)                 1.216690346714270E+10       /* J = 32 */
(PID.TID 0000.0001)     ;
(PID.TID 0000.0001) rAs =  /* rAs(:,1,:,1) ( units: m^2 ) */
(PID.TID 0000.0001)                 1.216690346714270E+10,      /* I =  1 */
(PID.TID 0000.0001)                 2.390126200743558E+10,      /* I =  2 */
(PID.TID 0000.0001)                 3.341968103208270E+10,      /* I =  3 */
(PID.TID 0000.0001)                 4.168532893152940E+10,      /* I =  4 */
(PID.TID 0000.0001)                 4.909074590409593E+10,      /* I =  5 */
(PID.TID 0000.0001)                 5.581203765722643E+10,      /* I =  6 */
(PID.TID 0000.0001)                 6.193257577506788E+10,      /* I =  7 */
(PID.TID 0000.0001)                 6.748840226738273E+10,      /* I =  8 */
(PID.TID 0000.0001)                 7.248875782324815E+10,      /* I =  9 */
(PID.TID 0000.0001)                 7.692702995909871E+10,      /* I = 10 */
(PID.TID 0000.0001)                 8.078743937057304E+10,      /* I = 11 */
(PID.TID 0000.0001)                 8.404959656062837E+10,      /* I = 12 */
(PID.TID 0000.0001)                 8.669186205742538E+10,      /* I = 13 */
(PID.TID 0000.0001)                 8.869393350723613E+10,      /* I = 14 */
(PID.TID 0000.0001)                 9.003884657168852E+10,      /* I = 15 */
(PID.TID 0000.0001)     2 @  9.071447638299399E+10,             /* I = 16: 17 */
(PID.TID 0000.0001)                 9.003884657168852E+10,      /* I = 18 */
(PID.TID 0000.0001)                 8.869393350723613E+10,      /* I = 19 */
(PID.TID 0000.0001)                 8.669186205742538E+10,      /* I = 20 */
(PID.TID 0000.0001)                 8.404959656062837E+10,      /* I = 21 */
(PID.TID 0000.0001)                 8.078743937057304E+10,      /* I = 22 */
(PID.TID 0000.0001)                 7.692702995909871E+10,      /* I = 23 */
(PID.TID 0000.0001)                 7.248875782324815E+10,      /* I = 24 */
(PID.TID 0000.0001)                 6.748840226738273E+10,      /* I = 25 */
(PID.TID 0000.0001)                 6.193257577506788E+10,      /* I = 26 */
(PID.TID 0000.0001)                 5.581203765722643E+10,      /* I = 27 */
(PID.TID 0000.0001)                 4.909074590409593E+10,      /* I = 28 */
(PID.TID 0000.0001)                 4.168532893152940E+10,      /* I = 29 */
(PID.TID 0000.0001)                 3.341968103208270E+10,      /* I = 30 */
(PID.TID 0000.0001)                 2.390126200743558E+10,      /* I = 31 */
(PID.TID 0000.0001)                 1.216690346714270E+10       /* I = 32 */
(PID.TID 0000.0001)     ;
(PID.TID 0000.0001) rAs =  /* rAs(1,:,1,:) ( units: m^2 ) */
(PID.TID 0000.0001)                 1.216690346714270E+10,      /* J =  1 */
(PID.TID 0000.0001)                 1.974052138506315E+10,      /* J =  2 */
(PID.TID 0000.0001)                 2.943712825252015E+10,      /* J =  3 */
(PID.TID 0000.0001)                 3.801790263324359E+10,      /* J =  4 */
(PID.TID 0000.0001)                 4.571243814189866E+10,      /* J =  5 */
(PID.TID 0000.0001)                 5.269930713599979E+10,      /* J =  6 */
(PID.TID 0000.0001)                 5.907428494299063E+10,      /* J =  7 */
(PID.TID 0000.0001)                 6.488320895111514E+10,      /* J =  8 */
(PID.TID 0000.0001)                 7.014205907741882E+10,      /* J =  9 */
(PID.TID 0000.0001)                 7.484854821847499E+10,      /* J = 10 */
(PID.TID 0000.0001)                 7.898934631431560E+10,      /* J = 11 */
(PID.TID 0000.0001)                 8.254500894894537E+10,      /* J = 12 */
(PID.TID 0000.0001)                 8.549360686473492E+10,      /* J = 13 */
(PID.TID 0000.0001)                 8.781353403175085E+10,      /* J = 14 */
(PID.TID 0000.0001)                 8.948571540392021E+10,      /* J = 15 */
(PID.TID 0000.0001)                 9.049530583086168E+10,      /* J = 16 */
(PID.TID 0000.0001)                 9.083293515008307E+10,      /* J = 17 */
(PID.TID 0000.0001)                 9.049530583087070E+10,      /* J = 18 */
(PID.TID 0000.0001)                 8.948571540391121E+10,      /* J = 19 */
(PID.TID 0000.0001)                 8.781353403174185E+10,      /* J = 20 */
(PID.TID 0000.0001)                 8.549360686467184E+10,      /* J = 21 */
(PID.TID 0000.0001)                 8.254500894890933E+10,      /* J = 22 */
(PID.TID 0000.0001)                 7.898934631434262E+10,      /* J = 23 */
(PID.TID 0000.0001)                 7.484854821844795E+10,      /* J = 24 */
(PID.TID 0000.0001)                 7.014205907742783E+10,      /* J = 25 */
(PID.TID 0000.0001)                 6.488320895111514E+10,      /* J = 26 */
(PID.TID 0000.0001)                 5.907428494299063E+10,      /* J = 27 */
(PID.TID 0000.0001)                 5.269930713599078E+10,      /* J = 28 */
(PID.TID 0000.0001)                 4.571243814190767E+10,      /* J = 29 */
(PID.TID 0000.0001)                 3.801790263325260E+10,      /* J = 30 */
(PID.TID 0000.0001)                 2.943712825251114E+10,      /* J = 31 */
(PID.TID 0000.0001)                 1.974052138509018E+10       /* J = 32 */
(PID.TID 0000.0001)     ;
(PID.TID 0000.0001) globalArea = /* Integrated horizontal Area (m^2) */
(PID.TID 0000.0001)                 3.638867375081598E+14
(PID.TID 0000.0001)     ;
(PID.TID 0000.0001) hasWetCSCorners = /* Domain contains CS corners (True/False) */
(PID.TID 0000.0001)                   T
(PID.TID 0000.0001)     ;
(PID.TID 0000.0001) // =======================================================
(PID.TID 0000.0001) // End of Model config. summary
(PID.TID 0000.0001) // =======================================================
(PID.TID 0000.0001) 
(PID.TID 0000.0001) DEBUG_MSG: CALLING S/R PACKAGES_CHECK
(PID.TID 0000.0001) == Packages configuration : Check & print summary ==
(PID.TID 0000.0001) 
(PID.TID 0000.0001) GMREDI_CHECK: #define GMREDI
(PID.TID 0000.0001) GM_AdvForm =     /* if FALSE => use SkewFlux Form */
(PID.TID 0000.0001)                   F
(PID.TID 0000.0001)     ;
(PID.TID 0000.0001) GM_InMomAsStress = /* if TRUE => apply as Eddy Stress */
(PID.TID 0000.0001)                   F
(PID.TID 0000.0001)     ;
(PID.TID 0000.0001) GM_AdvSeparate = /* Calc Bolus & Euler Adv. separately */
(PID.TID 0000.0001)                   F
(PID.TID 0000.0001)     ;
(PID.TID 0000.0001) GM_ExtraDiag =   /* Tensor Extra Diag (line 1&2) non 0 */
(PID.TID 0000.0001)                   F
(PID.TID 0000.0001)     ;
(PID.TID 0000.0001) GM_isopycK =    /* Background Isopyc. Diffusivity [m^2/s] */
(PID.TID 0000.0001)                 8.000000000000000E+02
(PID.TID 0000.0001)     ;
(PID.TID 0000.0001) GM_skewflx*K =  /* Background GM_SkewFlx Diffusivity [m^2/s] */
(PID.TID 0000.0001)                 8.000000000000000E+02
(PID.TID 0000.0001)     ;
(PID.TID 0000.0001) GM_advec*K =    /* Backg. GM-Advec(=Bolus) Diffusivity [m^2/s]*/
(PID.TID 0000.0001)                 0.000000000000000E+00
(PID.TID 0000.0001)     ;
(PID.TID 0000.0001) GM_Kmin_horiz = /* Minimum Horizontal Diffusivity [m^2/s] */
(PID.TID 0000.0001)                 5.000000000000000E+01
(PID.TID 0000.0001)     ;
(PID.TID 0000.0001) GM_Visbeck_alpha = /* Visbeck alpha coeff. [-] */
(PID.TID 0000.0001)                 0.000000000000000E+00
(PID.TID 0000.0001)     ;
(PID.TID 0000.0001) GM_Small_Number =  /* epsilon used in slope calc */
(PID.TID 0000.0001)                 9.999999999999999E-21
(PID.TID 0000.0001)     ;
(PID.TID 0000.0001) GM_slopeSqCutoff = /* Slope^2 cut-off value */
(PID.TID 0000.0001)                 1.000000000000000E+48
(PID.TID 0000.0001)     ;
(PID.TID 0000.0001) GM_taper_scheme =  /* Type of Tapering/Clipping scheme */
(PID.TID 0000.0001)               'gkw91                                   '
(PID.TID 0000.0001)     ;
(PID.TID 0000.0001) GM_maxSlope =  /* Maximum Slope (Tapering/Clipping) */
(PID.TID 0000.0001)                 1.000000000000000E-02
(PID.TID 0000.0001)     ;
(PID.TID 0000.0001) GM_facTrL2dz = /* Minimum Trans.Layer Thick. (factor of dz) */
(PID.TID 0000.0001)                 1.000000000000000E+00
(PID.TID 0000.0001)     ;
(PID.TID 0000.0001) GM_facTrL2ML = /* Max.Trans.Layer Thick. (factor of MxL Depth)*/
(PID.TID 0000.0001)                 5.000000000000000E+00
(PID.TID 0000.0001)     ;
(PID.TID 0000.0001) GM_maxTransLay = /* Maximum Transition Layer Thickness [m] */
(PID.TID 0000.0001)                 5.000000000000000E+02
(PID.TID 0000.0001)     ;
(PID.TID 0000.0001) GM_UseBVP = /* if TRUE => use bvp a la Ferrari et al. (2010) */
(PID.TID 0000.0001)                   F
(PID.TID 0000.0001)     ;
(PID.TID 0000.0001) GM_BVP_ModeNumber = /* Vertical mode number for BVP wave speed */
(PID.TID 0000.0001)                       1
(PID.TID 0000.0001)     ;
(PID.TID 0000.0001) GM_BVP_cMin = /* Minimum wave speed for BVP [m/s] */
(PID.TID 0000.0001)                 1.000000000000000E-01
(PID.TID 0000.0001)     ;
(PID.TID 0000.0001) GM_useSubMeso = /* if TRUE => use Sub-Meso param. (B.Fox-Kemper) */
(PID.TID 0000.0001)                   F
(PID.TID 0000.0001)     ;
(PID.TID 0000.0001) subMeso_Ceff = /* efficiency coeff. of Mixed-Layer Eddies [-] */
(PID.TID 0000.0001)                 7.000000000000001E-02
(PID.TID 0000.0001)     ;
(PID.TID 0000.0001) subMeso_invTau = /* inverse of Sub-Meso mixing time-scale [/s] */
(PID.TID 0000.0001)                 2.000000000000000E-06
(PID.TID 0000.0001)     ;
(PID.TID 0000.0001) subMeso_LfMin = /* minimum length-scale "Lf" [m] */
(PID.TID 0000.0001)                 1.000000000000000E+03
(PID.TID 0000.0001)     ;
(PID.TID 0000.0001) subMeso_Lmax = /* maximum grid-scale length [m] */
(PID.TID 0000.0001)                 1.100000000000000E+05
(PID.TID 0000.0001)     ;
(PID.TID 0000.0001) GAD_CHECK: #define ALLOW_GENERIC_ADVDIFF
(PID.TID 0000.0001) DEBUG_MSG: CALLING S/R CONFIG_CHECK
(PID.TID 0000.0001) // =======================================================
(PID.TID 0000.0001) // Check Model config. (CONFIG_CHECK):
(PID.TID 0000.0001) // CONFIG_CHECK : Normal End
(PID.TID 0000.0001) // =======================================================
(PID.TID 0000.0001) 
(PID.TID 0000.0001) DEBUG_MSG: CALLING S/R WRITE_GRID
(PID.TID 0000.0001)  MDS_WRITE_FIELD: it,rec,kS,kL,kH=      -1     1   1   1   1 file=XC
(PID.TID 0000.0001)  MDS_WRITE_FIELD: it,rec,kS,kL,kH=      -1     1   1   1   1 file=YC
(PID.TID 0000.0001)  MDS_WRITE_FIELD: it,rec,kS,kL,kH=      -1     1   1   1   1 file=XG
(PID.TID 0000.0001)  MDS_WRITE_FIELD: it,rec,kS,kL,kH=      -1     1   1   1   1 file=YG
(PID.TID 0000.0001)  MDS_WRITE_FIELD: it,rec,kS,kL,kH=      -1     1   1   1   1 file=RAC
(PID.TID 0000.0001)  MDS_WRITE_FIELD: it,rec,kS,kL,kH=      -1     1   1   1   1 file=RAW
(PID.TID 0000.0001)  MDS_WRITE_FIELD: it,rec,kS,kL,kH=      -1     1   1   1   1 file=RAS
(PID.TID 0000.0001)  MDS_WRITE_FIELD: it,rec,kS,kL,kH=      -1     1   1   1   1 file=RAZ
(PID.TID 0000.0001)  MDS_WRITE_FIELD: it,rec,kS,kL,kH=      -1     1   1   1   1 file=DXG
(PID.TID 0000.0001)  MDS_WRITE_FIELD: it,rec,kS,kL,kH=      -1     1   1   1   1 file=DYG
(PID.TID 0000.0001)  MDS_WRITE_FIELD: it,rec,kS,kL,kH=      -1     1   1   1   1 file=DXC
(PID.TID 0000.0001)  MDS_WRITE_FIELD: it,rec,kS,kL,kH=      -1     1   1   1   1 file=DYC
(PID.TID 0000.0001)  MDS_WRITE_FIELD: it,rec,kS,kL,kH=      -1     1   1   1   1 file=AngleCS
(PID.TID 0000.0001)  MDS_WRITE_FIELD: it,rec,kS,kL,kH=      -1     1   1   1   1 file=AngleSN
(PID.TID 0000.0001)  MDS_WRITE_FIELD: it,rec,kS,kL,kH=      -1     1   1   1   1 file=U2zonDir
(PID.TID 0000.0001)  MDS_WRITE_FIELD: it,rec,kS,kL,kH=      -1     1   1   1   1 file=V2zonDir
(PID.TID 0000.0001)  MDS_WRITE_FIELD: it,rec,kS,kL,kH=      -1     1   1   1   1 file=Depth
(PID.TID 0000.0001)  MDS_WRITE_FIELD: it,rec,kS,kL,kH=      -1     1   1   1   1 file=rLowC
(PID.TID 0000.0001)  MDS_WRITE_FIELD: it,rec,kS,kL,kH=      -1     1   1   1   1 file=rLowW
(PID.TID 0000.0001)  MDS_WRITE_FIELD: it,rec,kS,kL,kH=      -1     1   1   1   1 file=rLowS
(PID.TID 0000.0001)  MDS_WRITE_FIELD: it,rec,kS,kL,kH=      -1     1   1   1   1 file=rSurfC
(PID.TID 0000.0001)  MDS_WRITE_FIELD: it,rec,kS,kL,kH=      -1     1   1   1   1 file=rSurfW
(PID.TID 0000.0001)  MDS_WRITE_FIELD: it,rec,kS,kL,kH=      -1     1   1   1   1 file=rSurfS
(PID.TID 0000.0001)  MDS_WRITE_FIELD: it,rec,kS,kL,kH=       0     1  16   1  16 file=hFacC
(PID.TID 0000.0001)  MDS_WRITE_FIELD: it,rec,kS,kL,kH=       0     1  16   1  16 file=hFacW
(PID.TID 0000.0001)  MDS_WRITE_FIELD: it,rec,kS,kL,kH=       0     1  16   1  16 file=hFacS
(PID.TID 0000.0001)  MDS_WRITEVEC_LOC: open file: RC.data
(PID.TID 0000.0001)  MDS_WR_REC_RS: iRec,Dim =         1         16
(PID.TID 0000.0001)  MDS_WRITEVEC_LOC: open file: RF.data
(PID.TID 0000.0001)  MDS_WR_REC_RS: iRec,Dim =         1         17
(PID.TID 0000.0001)  MDS_WRITEVEC_LOC: open file: DRC.data
(PID.TID 0000.0001)  MDS_WR_REC_RS: iRec,Dim =         1         17
(PID.TID 0000.0001)  MDS_WRITEVEC_LOC: open file: DRF.data
(PID.TID 0000.0001)  MDS_WR_REC_RS: iRec,Dim =         1         16
(PID.TID 0000.0001)  MDS_WRITEVEC_LOC: open file: PHrefF.data
(PID.TID 0000.0001)  MDS_WR_REC_RS: iRec,Dim =         1         17
(PID.TID 0000.0001)  MDS_WRITEVEC_LOC: open file: PHrefC.data
(PID.TID 0000.0001)  MDS_WR_REC_RS: iRec,Dim =         1         16
(PID.TID 0000.0001) DEBUG_MSG: LEAVING S/R INITIALISE_FIXED
(PID.TID 0000.0001) DEBUG_MSG: ENTERED S/R INITIALISE_VARIA
(PID.TID 0000.0001) DEBUG_MSG: ENTERED S/R INI_NLFS_VARS
(PID.TID 0000.0001) DEBUG_MSG: LEAVING S/R INI_NLFS_VARS
(PID.TID 0000.0001) DEBUG_MSG: CALLING S/R INI_DYNVARS
(PID.TID 0000.0001) DEBUG_MSG: CALLING S/R INI_FIELDS
(PID.TID 0000.0001) // =======================================================
(PID.TID 0000.0001) // Field Initial Temperature at iteration          1
(PID.TID 0000.0001) // CMIN =          2.000000000000000E+01
(PID.TID 0000.0001) // CMAX =          2.000000000000000E+01
(PID.TID 0000.0001) // CINT =          0.000000000000000E+00
(PID.TID 0000.0001) // SYMBOLS (CMIN->CMAX): -abcdefghijklmnopqrstuvwxyz+
(PID.TID 0000.0001) //                  0.0: .
(PID.TID 0000.0001) // RANGE I (Lo:Hi:Step):(     1:    32:     1)
(PID.TID 0000.0001) // RANGE J (Lo:Hi:Step):(    32:     1:    -1)
(PID.TID 0000.0001) // RANGE K (Lo:Hi:Step):(   1:   1:   1)
(PID.TID 0000.0001) // =======================================================
(PID.TID 0000.0001) // =======================================================
(PID.TID 0000.0001) // END OF FIELD                                          =
(PID.TID 0000.0001) // =======================================================
(PID.TID 0000.0001) 
(PID.TID 0000.0001) // =======================================================
(PID.TID 0000.0001) // Field Initial Salinity at iteration          1
(PID.TID 0000.0001) // CMIN =          3.500000000000000E+01
(PID.TID 0000.0001) // CMAX =          3.500000000000000E+01
(PID.TID 0000.0001) // CINT =          0.000000000000000E+00
(PID.TID 0000.0001) // SYMBOLS (CMIN->CMAX): -abcdefghijklmnopqrstuvwxyz+
(PID.TID 0000.0001) //                  0.0: .
(PID.TID 0000.0001) // RANGE I (Lo:Hi:Step):(     1:    32:     1)
(PID.TID 0000.0001) // RANGE J (Lo:Hi:Step):(    32:     1:    -1)
(PID.TID 0000.0001) // RANGE K (Lo:Hi:Step):(   1:   1:   1)
(PID.TID 0000.0001) // =======================================================
(PID.TID 0000.0001) // =======================================================
(PID.TID 0000.0001) // END OF FIELD                                          =
(PID.TID 0000.0001) // =======================================================
(PID.TID 0000.0001) 
(PID.TID 0000.0001) Start initial hydrostatic pressure computation
(PID.TID 0000.0001) Pressure is predetermined for buoyancyRelation OCEANIC
(PID.TID 0000.0001) 
(PID.TID 0000.0001) DEBUG_MSG: CALLING S/R INI_MIXING
(PID.TID 0000.0001) DEBUG_MSG: CALLING S/R INI_FORCING
(PID.TID 0000.0001) DEBUG_MSG: CALLING S/R PACKAGES_INIT_VARIABLES
(PID.TID 0000.0001) DEBUG_MSG: ENTERED S/R PACKAGES_INIT_VARIABLES
(PID.TID 0000.0001)  write diagnostics summary to file ioUnit:     36
Iter.Nb:         0 ; Time(s):  0.0000000000000E+00
------------------------------------------------------------------------
2D/3D diagnostics: Number of lists:    11
------------------------------------------------------------------------
listId=    1 ; file name: oceTAUX
 nFlds, nActive,       freq     &     phase        , nLev               
    1  |    1  |     -3600.000000      1800.000000 |   1
 levels:   1
 diag# | name   |   ipt  |  iMate | kLev|   count |   mate.C|           
    81 |oceTAUX |      1 |      2 |   1 |       0 |       0 |
------------------------------------------------------------------------
listId=    2 ; file name: oceTAUY
 nFlds, nActive,       freq     &     phase        , nLev               
    1  |    1  |     -3600.000000      1800.000000 |   1
 levels:   1
 diag# | name   |   ipt  |  iMate | kLev|   count |   mate.C|           
    82 |oceTAUY |      2 |      1 |   1 |       0 |       0 |
------------------------------------------------------------------------
listId=    3 ; file name: oceFWflx
 nFlds, nActive,       freq     &     phase        , nLev               
    1  |    1  |     -3600.000000      1800.000000 |   1
 levels:   1
 diag# | name   |   ipt  |  iMate | kLev|   count |   mate.C|           
    85 |oceFWflx|      3 |      0 |   1 |       0 |
------------------------------------------------------------------------
listId=    4 ; file name: oceSflux
 nFlds, nActive,       freq     &     phase        , nLev               
    1  |    1  |     -3600.000000      1800.000000 |   1
 levels:   1
 diag# | name   |   ipt  |  iMate | kLev|   count |   mate.C|           
    86 |oceSflux|      4 |      0 |   1 |       0 |
------------------------------------------------------------------------
listId=    5 ; file name: oceQnet
 nFlds, nActive,       freq     &     phase        , nLev               
    1  |    1  |     -3600.000000      1800.000000 |   1
 levels:   1
 diag# | name   |   ipt  |  iMate | kLev|   count |   mate.C|           
    87 |oceQnet |      5 |      0 |   1 |       0 |
------------------------------------------------------------------------
listId=    6 ; file name: oceQsw
 nFlds, nActive,       freq     &     phase        , nLev               
    1  |    1  |     -3600.000000      1800.000000 |   1
 levels:   1
 diag# | name   |   ipt  |  iMate | kLev|   count |   mate.C|           
    88 |oceQsw  |      6 |      0 |   1 |       0 |
------------------------------------------------------------------------
listId=    7 ; file name: SSS
 nFlds, nActive,       freq     &     phase        , nLev               
    1  |    1  |     -3600.000000      1800.000000 |   1
 levels:   1
 diag# | name   |   ipt  |  iMate | kLev|   count |   mate.C|           
    27 |SALT    |      7 |      0 |  16 |       0 |
------------------------------------------------------------------------
listId=    8 ; file name: SST
 nFlds, nActive,       freq     &     phase        , nLev               
    1  |    1  |     -3600.000000      1800.000000 |   1
 levels:   1
 diag# | name   |   ipt  |  iMate | kLev|   count |   mate.C|           
    26 |THETA   |     23 |      0 |  16 |       0 |
------------------------------------------------------------------------
listId=    9 ; file name: UVEL1
 nFlds, nActive,       freq     &     phase        , nLev               
    1  |    1  |     -3600.000000      1800.000000 |   1
 levels:   1
 diag# | name   |   ipt  |  iMate | kLev|   count |   mate.C|           
    45 |UVELMASS|     39 |     55 |  16 |       0 |       0 |
------------------------------------------------------------------------
listId=   10 ; file name: VVEL1
 nFlds, nActive,       freq     &     phase        , nLev               
    1  |    1  |     -3600.000000      1800.000000 |   1
 levels:   1
 diag# | name   |   ipt  |  iMate | kLev|   count |   mate.C|           
    46 |VVELMASS|     55 |     39 |  16 |       0 |       0 |
------------------------------------------------------------------------
listId=   11 ; file name: atmPload
 nFlds, nActive,       freq     &     phase        , nLev               
    1  |    1  |     -3600.000000      1800.000000 |   1
 levels:   1
 diag# | name   |   ipt  |  iMate | kLev|   count |   mate.C|           
    83 |atmPload|     71 |      0 |   1 |       0 |
------------------------------------------------------------------------
Global & Regional Statistics diagnostics: Number of lists:     0
------------------------------------------------------------------------
(PID.TID 0000.0001) DEBUG_MSG: CALLING S/R GAD_INIT_VARIA
(PID.TID 0000.0001) DEBUG_MSG: CALLING S/R GMREDI_INIT_VARIA
(PID.TID 0000.0001) DEBUG_MSG: LEAVING S/R PACKAGES_INIT_VARIABLES
(PID.TID 0000.0001) DEBUG_MSG: ENTERED S/R CALC_R_STAR
(PID.TID 0000.0001) DEBUG_MSG: LEAVING S/R CALC_R_STAR
(PID.TID 0000.0001) DEBUG_MSG: CALLING S/R INTEGR_CONTINUITY
(PID.TID 0000.0001) DEBUG_MSG: CALLING S/R UPDATE_ETAH
(PID.TID 0000.0001) DEBUG_MSG: ENTERED S/R CALC_R_STAR
(PID.TID 0000.0001) DEBUG_MSG: LEAVING S/R CALC_R_STAR
(PID.TID 0000.0001) DEBUG_MSG: CALLING S/R STATE_SUMMARY
(PID.TID 0000.0001) // =======================================================
(PID.TID 0000.0001) // Model current state
(PID.TID 0000.0001) // =======================================================
(PID.TID 0000.0001) 
(PID.TID 0000.0001) DEBUG_MSG: CALLING S/R MONITOR
(PID.TID 0000.0001) // =======================================================
(PID.TID 0000.0001) // Begin MONITOR dynamic field statistics
(PID.TID 0000.0001) // =======================================================
(PID.TID 0000.0001) %MON time_tsnumber                =                     0
(PID.TID 0000.0001) %MON time_secondsf                =   0.0000000000000E+00
(PID.TID 0000.0001) %MON dynstat_eta_max              =   0.0000000000000E+00
(PID.TID 0000.0001) %MON dynstat_eta_min              =   0.0000000000000E+00
(PID.TID 0000.0001) %MON dynstat_eta_mean             =   0.0000000000000E+00
(PID.TID 0000.0001) %MON dynstat_eta_sd               =   0.0000000000000E+00
(PID.TID 0000.0001) %MON dynstat_eta_del2             =   0.0000000000000E+00
(PID.TID 0000.0001) %MON dynstat_uvel_max             =   0.0000000000000E+00
(PID.TID 0000.0001) %MON dynstat_uvel_min             =   0.0000000000000E+00
(PID.TID 0000.0001) %MON dynstat_uvel_mean            =   0.0000000000000E+00
(PID.TID 0000.0001) %MON dynstat_uvel_sd              =   0.0000000000000E+00
(PID.TID 0000.0001) %MON dynstat_uvel_del2            =   0.0000000000000E+00
(PID.TID 0000.0001) %MON dynstat_vvel_max             =   0.0000000000000E+00
(PID.TID 0000.0001) %MON dynstat_vvel_min             =   0.0000000000000E+00
(PID.TID 0000.0001) %MON dynstat_vvel_mean            =   0.0000000000000E+00
(PID.TID 0000.0001) %MON dynstat_vvel_sd              =   0.0000000000000E+00
(PID.TID 0000.0001) %MON dynstat_vvel_del2            =   0.0000000000000E+00
(PID.TID 0000.0001) %MON dynstat_wvel_max             =   0.0000000000000E+00
(PID.TID 0000.0001) %MON dynstat_wvel_min             =   0.0000000000000E+00
(PID.TID 0000.0001) %MON dynstat_wvel_mean            =   0.0000000000000E+00
(PID.TID 0000.0001) %MON dynstat_wvel_sd              =   0.0000000000000E+00
(PID.TID 0000.0001) %MON dynstat_wvel_del2            =   0.0000000000000E+00
(PID.TID 0000.0001) %MON dynstat_theta_max            =   2.0000000000000E+01
(PID.TID 0000.0001) %MON dynstat_theta_min            =   2.0000000000000E+01
(PID.TID 0000.0001) %MON dynstat_theta_mean           =   2.0000000000000E+01
(PID.TID 0000.0001) %MON dynstat_theta_sd             =   5.3290705182007E-14
(PID.TID 0000.0001) %MON dynstat_theta_del2           =   0.0000000000000E+00
(PID.TID 0000.0001) %MON dynstat_salt_max             =   3.5000000000000E+01
(PID.TID 0000.0001) %MON dynstat_salt_min             =   3.5000000000000E+01
(PID.TID 0000.0001) %MON dynstat_salt_mean            =   3.5000000000000E+01
(PID.TID 0000.0001) %MON dynstat_salt_sd              =   1.2079226507922E-13
(PID.TID 0000.0001) %MON dynstat_salt_del2            =   0.0000000000000E+00
(PID.TID 0000.0001) %MON dynstat_sst_max              =   2.0000000000000E+01
(PID.TID 0000.0001) %MON dynstat_sst_min              =   2.0000000000000E+01
(PID.TID 0000.0001) %MON dynstat_sst_mean             =   2.0000000000000E+01
(PID.TID 0000.0001) %MON dynstat_sst_sd               =   7.1054273576010E-15
(PID.TID 0000.0001) %MON dynstat_sst_del2             =   0.0000000000000E+00
(PID.TID 0000.0001) %MON dynstat_sss_max              =   3.5000000000000E+01
(PID.TID 0000.0001) %MON dynstat_sss_min              =   3.5000000000000E+01
(PID.TID 0000.0001) %MON dynstat_sss_mean             =   3.5000000000000E+01
(PID.TID 0000.0001) %MON dynstat_sss_sd               =   2.1316282072803E-14
(PID.TID 0000.0001) %MON dynstat_sss_del2             =   0.0000000000000E+00
(PID.TID 0000.0001) %MON forcing_qnet_max             =   0.0000000000000E+00
(PID.TID 0000.0001) %MON forcing_qnet_min             =   0.0000000000000E+00
(PID.TID 0000.0001) %MON forcing_qnet_mean            =   0.0000000000000E+00
(PID.TID 0000.0001) %MON forcing_qnet_sd              =   0.0000000000000E+00
(PID.TID 0000.0001) %MON forcing_qnet_del2            =   0.0000000000000E+00
(PID.TID 0000.0001) %MON forcing_qsw_max              =   0.0000000000000E+00
(PID.TID 0000.0001) %MON forcing_qsw_min              =   0.0000000000000E+00
(PID.TID 0000.0001) %MON forcing_qsw_mean             =   0.0000000000000E+00
(PID.TID 0000.0001) %MON forcing_qsw_sd               =   0.0000000000000E+00
(PID.TID 0000.0001) %MON forcing_qsw_del2             =   0.0000000000000E+00
(PID.TID 0000.0001) %MON forcing_empmr_max            =   0.0000000000000E+00
(PID.TID 0000.0001) %MON forcing_empmr_min            =   0.0000000000000E+00
(PID.TID 0000.0001) %MON forcing_empmr_mean           =   0.0000000000000E+00
(PID.TID 0000.0001) %MON forcing_empmr_sd             =   0.0000000000000E+00
(PID.TID 0000.0001) %MON forcing_empmr_del2           =   0.0000000000000E+00
(PID.TID 0000.0001) %MON forcing_fu_max               =   0.0000000000000E+00
(PID.TID 0000.0001) %MON forcing_fu_min               =   0.0000000000000E+00
(PID.TID 0000.0001) %MON forcing_fu_mean              =   0.0000000000000E+00
(PID.TID 0000.0001) %MON forcing_fu_sd                =   0.0000000000000E+00
(PID.TID 0000.0001) %MON forcing_fu_del2              =   0.0000000000000E+00
(PID.TID 0000.0001) %MON forcing_fv_max               =   0.0000000000000E+00
(PID.TID 0000.0001) %MON forcing_fv_min               =   0.0000000000000E+00
(PID.TID 0000.0001) %MON forcing_fv_mean              =   0.0000000000000E+00
(PID.TID 0000.0001) %MON forcing_fv_sd                =   0.0000000000000E+00
(PID.TID 0000.0001) %MON forcing_fv_del2              =   0.0000000000000E+00
(PID.TID 0000.0001) %MON trAdv_CFL_u_max              =   0.0000000000000E+00
(PID.TID 0000.0001) %MON trAdv_CFL_v_max              =   0.0000000000000E+00
(PID.TID 0000.0001) %MON trAdv_CFL_w_max              =   0.0000000000000E+00
(PID.TID 0000.0001) %MON advcfl_uvel_max              =   0.0000000000000E+00
(PID.TID 0000.0001) %MON advcfl_vvel_max              =   0.0000000000000E+00
(PID.TID 0000.0001) %MON advcfl_wvel_max              =   0.0000000000000E+00
(PID.TID 0000.0001) %MON advcfl_W_hf_max              =   0.0000000000000E+00
(PID.TID 0000.0001) %MON pe_b_mean                    =   0.0000000000000E+00
(PID.TID 0000.0001) %MON ke_max                       =   0.0000000000000E+00
(PID.TID 0000.0001) %MON ke_mean                      =   0.0000000000000E+00
(PID.TID 0000.0001) %MON ke_vol                       =   1.3398024453628E+18
(PID.TID 0000.0001) %MON vort_r_min                   =   0.0000000000000E+00
(PID.TID 0000.0001) %MON vort_r_max                   =   0.0000000000000E+00
(PID.TID 0000.0001) %MON vort_a_mean                  =  -2.0549865324846E-05
(PID.TID 0000.0001) %MON vort_a_sd                    =   7.5259258474424E-05
(PID.TID 0000.0001) %MON vort_p_mean                  =  -2.4783522345033E-05
(PID.TID 0000.0001) %MON vort_p_sd                    =   1.2810783121880E-04
(PID.TID 0000.0001) %MON surfExpan_theta_mean         =   0.0000000000000E+00
(PID.TID 0000.0001) %MON surfExpan_salt_mean          =   0.0000000000000E+00
(PID.TID 0000.0001) // =======================================================
(PID.TID 0000.0001) // End MONITOR dynamic field statistics
(PID.TID 0000.0001) // =======================================================
(PID.TID 0000.0001) DEBUG_MSG: CALLING S/R DO_STATEVARS_TAVE
(PID.TID 0000.0001) DEBUG_MSG: CALLING S/R DO_THE_MODEL_IO
(PID.TID 0000.0001)  MDS_WRITE_FIELD: it,rec,kS,kL,kH=       0     1  16   1  16 file=U.0000000000
(PID.TID 0000.0001)  MDS_WRITE_FIELD: it,rec,kS,kL,kH=       0     1  16   1  16 file=V.0000000000
(PID.TID 0000.0001)  MDS_WRITE_FIELD: it,rec,kS,kL,kH=       0     1  16   1  16 file=T.0000000000
(PID.TID 0000.0001)  MDS_WRITE_FIELD: it,rec,kS,kL,kH=       0     1  16   1  16 file=S.0000000000
(PID.TID 0000.0001)  MDS_WRITE_FIELD: it,rec,kS,kL,kH=       0     1   1   1   1 file=Eta.0000000000
(PID.TID 0000.0001)  MDS_WRITE_FIELD: it,rec,kS,kL,kH=       0     1  16   1  16 file=W.0000000000
(PID.TID 0000.0001) DEBUG_MSG: LEAVING S/R INITIALISE_VARIA
(PID.TID 0000.0001) DEBUG_MSG: ENTERED S/R FORWARD_STEP
(PID.TID 0000.0001) DEBUG_MSG: CALLING S/R LOAD_FIELDS_DRIVER
(PID.TID 0000.0001) DEBUG_MSG: ENTERED S/R LOAD_FIELDS_DRIVER
(PID.TID 0000.0001) DEBUG_MSG: CALLING S/R EXTERNAL_FIELDS_LOAD
(PID.TID 0000.0001) DEBUG_MSG: LEAVING S/R LOAD_FIELDS_DRIVER
(PID.TID 0000.0001) DEBUG_MSG: CALLING S/R DO_ATMOSPHERIC_PHYS
(PID.TID 0000.0001) DEBUG_MSG: ENTERED S/R DO_ATMOSPHERIC_PHYS
(PID.TID 0000.0001) DEBUG_MSG: LEAVING S/R DO_ATMOSPHERIC_PHYS
(PID.TID 0000.0001) DEBUG_MSG: CALLING S/R DO_OCEANIC_PHYS
(PID.TID 0000.0001) DEBUG_MSG: ENTERED S/R DO_OCEANIC_PHYS
(PID.TID 0000.0001) DEBUG_MSG: CALLING S/R EXTERNAL_FORCING_SURF
(PID.TID 0000.0001) DEBUG_MSG: CALLING S/R FIND_RHO_2D (xNr)
(PID.TID 0000.0001) DEBUG_MSG:                  ENTERING UPWARD K LOOP (bi=   1, bj=   1)
(PID.TID 0000.0001) DEBUG_MSG: CALLING S/R GRAD_SIGMA
(PID.TID 0000.0001) DEBUG_MSG: CALLING S/R CALC_IVDC
(PID.TID 0000.0001) DEBUG_MSG: CALLING S/R GRAD_SIGMA
(PID.TID 0000.0001) DEBUG_MSG: CALLING S/R CALC_IVDC
(PID.TID 0000.0001) DEBUG_MSG: CALLING S/R GRAD_SIGMA
(PID.TID 0000.0001) DEBUG_MSG: CALLING S/R CALC_IVDC
(PID.TID 0000.0001) DEBUG_MSG: CALLING S/R GRAD_SIGMA
(PID.TID 0000.0001) DEBUG_MSG: CALLING S/R CALC_IVDC
(PID.TID 0000.0001) DEBUG_MSG: CALLING S/R GRAD_SIGMA
(PID.TID 0000.0001) DEBUG_MSG: CALLING S/R CALC_IVDC
(PID.TID 0000.0001) DEBUG_MSG: CALLING S/R GRAD_SIGMA
(PID.TID 0000.0001) DEBUG_MSG: CALLING S/R CALC_IVDC
(PID.TID 0000.0001) DEBUG_MSG: CALLING S/R GRAD_SIGMA
(PID.TID 0000.0001) DEBUG_MSG: CALLING S/R CALC_IVDC
(PID.TID 0000.0001) DEBUG_MSG: CALLING S/R GRAD_SIGMA
(PID.TID 0000.0001) DEBUG_MSG: CALLING S/R CALC_IVDC
(PID.TID 0000.0001) DEBUG_MSG: CALLING S/R GRAD_SIGMA
(PID.TID 0000.0001) DEBUG_MSG: CALLING S/R CALC_IVDC
(PID.TID 0000.0001) DEBUG_MSG: CALLING S/R GRAD_SIGMA
(PID.TID 0000.0001) DEBUG_MSG: CALLING S/R CALC_IVDC
(PID.TID 0000.0001) DEBUG_MSG: CALLING S/R GRAD_SIGMA
(PID.TID 0000.0001) DEBUG_MSG: CALLING S/R CALC_IVDC
(PID.TID 0000.0001) DEBUG_MSG: CALLING S/R GRAD_SIGMA
(PID.TID 0000.0001) DEBUG_MSG: CALLING S/R CALC_IVDC
(PID.TID 0000.0001) DEBUG_MSG: CALLING S/R GRAD_SIGMA
(PID.TID 0000.0001) DEBUG_MSG: CALLING S/R CALC_IVDC
(PID.TID 0000.0001) DEBUG_MSG: CALLING S/R GRAD_SIGMA
(PID.TID 0000.0001) DEBUG_MSG: CALLING S/R CALC_IVDC
(PID.TID 0000.0001) DEBUG_MSG: CALLING S/R GRAD_SIGMA
(PID.TID 0000.0001) DEBUG_MSG: CALLING S/R CALC_IVDC
(PID.TID 0000.0001) DEBUG_MSG: CALLING S/R GRAD_SIGMA
(PID.TID 0000.0001) DEBUG_MSG: CALLING S/R GMREDI_CALC_TENSOR
(PID.TID 0000.0001) DEBUG_MSG: LEAVING S/R DO_OCEANIC_PHYS
(PID.TID 0000.0001) DEBUG_MSG: CALLING S/R DYNAMICS
(PID.TID 0000.0001) DEBUG_MSG: ENTERED S/R DYNAMICS
DEBUG_STATS_RL:                EtaN (DYNAMICS)  min=  0.00000000000000E+00
DEBUG_STATS_RL:                EtaN (DYNAMICS)  max=  0.00000000000000E+00
DEBUG_STATS_RL:                EtaN (DYNAMICS) mean=  0.00000000000000E+00
DEBUG_STATS_RL:                EtaN (DYNAMICS) S.D.=  0.00000000000000E+00
DEBUG_STATS_RL:                Uvel (DYNAMICS)  min=  0.00000000000000E+00
DEBUG_STATS_RL:                Uvel (DYNAMICS)  max=  0.00000000000000E+00
DEBUG_STATS_RL:                Uvel (DYNAMICS) mean=  0.00000000000000E+00
DEBUG_STATS_RL:                Uvel (DYNAMICS) S.D.=  0.00000000000000E+00
DEBUG_STATS_RL:                Vvel (DYNAMICS)  min=  0.00000000000000E+00
DEBUG_STATS_RL:                Vvel (DYNAMICS)  max=  0.00000000000000E+00
DEBUG_STATS_RL:                Vvel (DYNAMICS) mean=  0.00000000000000E+00
DEBUG_STATS_RL:                Vvel (DYNAMICS) S.D.=  0.00000000000000E+00
DEBUG_STATS_RL:                Wvel (DYNAMICS)  min=  0.00000000000000E+00
DEBUG_STATS_RL:                Wvel (DYNAMICS)  max=  0.00000000000000E+00
DEBUG_STATS_RL:                Wvel (DYNAMICS) mean=  0.00000000000000E+00
DEBUG_STATS_RL:                Wvel (DYNAMICS) S.D.=  0.00000000000000E+00
DEBUG_STATS_RL:               Theta (DYNAMICS)  min=  2.00000000000000E+01
DEBUG_STATS_RL:               Theta (DYNAMICS)  max=  2.00000000000000E+01
DEBUG_STATS_RL:               Theta (DYNAMICS) mean=  2.00000000000000E+01
DEBUG_STATS_RL:               Theta (DYNAMICS) S.D.=  0.00000000000000E+00
DEBUG_STATS_RL:                Salt (DYNAMICS)  min=  3.50000000000000E+01
DEBUG_STATS_RL:                Salt (DYNAMICS)  max=  3.50000000000000E+01
DEBUG_STATS_RL:                Salt (DYNAMICS) mean=  3.50000000000000E+01
DEBUG_STATS_RL:                Salt (DYNAMICS) S.D.=  0.00000000000000E+00
DEBUG_STATS_RL:                  Gu (DYNAMICS)  min= -1.65959296652159E-02
DEBUG_STATS_RL:                  Gu (DYNAMICS)  max=  1.75284927999716E-02
DEBUG_STATS_RL:                  Gu (DYNAMICS) mean= -6.77519706334129E-05
DEBUG_STATS_RL:                  Gu (DYNAMICS) S.D.=  1.50730330189873E-03
DEBUG_STATS_RL:                  Gv (DYNAMICS)  min= -1.83583557669098E-02
DEBUG_STATS_RL:                  Gv (DYNAMICS)  max=  9.67088800505708E-03
DEBUG_STATS_RL:                  Gv (DYNAMICS) mean= -1.65112207182250E-04
DEBUG_STATS_RL:                  Gv (DYNAMICS) S.D.=  1.41992296561047E-03
DEBUG_STATS_RL:               GuNm1 (DYNAMICS)  min= -1.84399218502399E-05
DEBUG_STATS_RL:               GuNm1 (DYNAMICS)  max=  1.94761031110795E-05
DEBUG_STATS_RL:               GuNm1 (DYNAMICS) mean= -2.14152356059805E-07
DEBUG_STATS_RL:               GuNm1 (DYNAMICS) S.D.=  2.81947989404508E-06
DEBUG_STATS_RL:               GvNm1 (DYNAMICS)  min= -2.03981730743442E-05
DEBUG_STATS_RL:               GvNm1 (DYNAMICS)  max=  1.07454311167301E-05
DEBUG_STATS_RL:               GvNm1 (DYNAMICS) mean= -5.26488068743022E-07
DEBUG_STATS_RL:               GvNm1 (DYNAMICS) S.D.=  2.63868488994365E-06
DEBUG_STATS_RL:               GtNm1 (DYNAMICS)  min=  0.00000000000000E+00
DEBUG_STATS_RL:               GtNm1 (DYNAMICS)  max=  0.00000000000000E+00
DEBUG_STATS_RL:               GtNm1 (DYNAMICS) mean=  0.00000000000000E+00
DEBUG_STATS_RL:               GtNm1 (DYNAMICS) S.D.=  0.00000000000000E+00
DEBUG_STATS_RL:               GsNm1 (DYNAMICS)  min=  0.00000000000000E+00
DEBUG_STATS_RL:               GsNm1 (DYNAMICS)  max=  0.00000000000000E+00
DEBUG_STATS_RL:               GsNm1 (DYNAMICS) mean=  0.00000000000000E+00
DEBUG_STATS_RL:               GsNm1 (DYNAMICS) S.D.=  0.00000000000000E+00
(PID.TID 0000.0001) DEBUG_MSG: LEAVING S/R DYNAMICS
(PID.TID 0000.0001) SOLVE_FOR_PRESSURE: putPmEinXvector =    F
(PID.TID 0000.0001) SOLVE_FOR_PRESSURE: zeroPsNH=    F , zeroMeanPnh=    F
(PID.TID 0000.0001) SOLVE_FOR_PRESSURE: oldFreeSurfTerm =    F
DEBUG_STATS_RL:    cg2d_b (SOLVE_FOR_PRESSURE)  min= -8.89289836179641E+05
DEBUG_STATS_RL:    cg2d_b (SOLVE_FOR_PRESSURE)  max=  1.18641012536697E+05
DEBUG_STATS_RL:    cg2d_b (SOLVE_FOR_PRESSURE) mean= -1.09480427646826E+03
DEBUG_STATS_RL:    cg2d_b (SOLVE_FOR_PRESSURE) S.D.=  2.84949024548839E+04
 cg2d: Sum(rhs),rhsMax =  -5.44145980884934E+00  1.70357377991199E+02
(PID.TID 0000.0001)  cg2d: iter=     1 ; resid.=  2.61968601450925E-02
(PID.TID 0000.0001)  cg2d: iter=     2 ; resid.=  3.86536794678408E-03
(PID.TID 0000.0001)  cg2d: iter=     3 ; resid.=  6.93076106624070E-04
(PID.TID 0000.0001)  cg2d: iter=     4 ; resid.=  1.30021849023913E-04
(PID.TID 0000.0001)  cg2d: iter=     5 ; resid.=  2.30275282406253E-05
(PID.TID 0000.0001)  cg2d: iter=     6 ; resid.=  4.11980481641499E-06
(PID.TID 0000.0001)  cg2d: iter=     7 ; resid.=  9.54652728087919E-07
(PID.TID 0000.0001)  cg2d: iter=     8 ; resid.=  3.21863314813162E-07
(PID.TID 0000.0001)  cg2d: iter=     9 ; resid.=  8.11432567409312E-08
DEBUG_STATS_RL:    cg2d_x (SOLVE_FOR_PRESSURE)  min= -1.04441244077092E+01
DEBUG_STATS_RL:    cg2d_x (SOLVE_FOR_PRESSURE)  max=  8.27720298698110E+01
DEBUG_STATS_RL:    cg2d_x (SOLVE_FOR_PRESSURE) mean=  1.08733385340509E-01
DEBUG_STATS_RL:    cg2d_x (SOLVE_FOR_PRESSURE) S.D.=  2.70077579923192E+00
(PID.TID 0000.0001)      cg2d_init_res =   2.13184336457286E+00
(PID.TID 0000.0001)      cg2d_iters(min,last) =      -1       9
(PID.TID 0000.0001)      cg2d_last_res =   8.11432567409312E-08
(PID.TID 0000.0001) DEBUG_MSG: CALLING S/R UPDATE_ETAH
(PID.TID 0000.0001) DEBUG_MSG: ENTERED S/R CALC_R_STAR
(PID.TID 0000.0001) DEBUG_MSG: LEAVING S/R CALC_R_STAR
(PID.TID 0000.0001) DEBUG_MSG: CALLING S/R DO_STAGGER_FIELDS_EXCH.
(PID.TID 0000.0001) DEBUG_MSG: CALLING S/R THERMODYNAMICS
(PID.TID 0000.0001) DEBUG_MSG: ENTERED S/R THERMODYNAMICS
(PID.TID 0000.0001) DEBUG_MSG: CALLING S/R TEMP_INTEGRATE
(PID.TID 0000.0001) DEBUG_MSG: CALLING S/R SALT_INTEGRATE
DEBUG_STATS_RL:          Uvel (THERMODYNAMICS)  min= -2.12395584499968E-01
DEBUG_STATS_RL:          Uvel (THERMODYNAMICS)  max=  2.72083515686397E-01
DEBUG_STATS_RL:          Uvel (THERMODYNAMICS) mean=  6.41634385480434E-05
DEBUG_STATS_RL:          Uvel (THERMODYNAMICS) S.D.=  5.09189043343542E-03
DEBUG_STATS_RL:          Vvel (THERMODYNAMICS)  min= -2.39739027118666E-01
DEBUG_STATS_RL:          Vvel (THERMODYNAMICS)  max=  2.68495158437472E-01
DEBUG_STATS_RL:          Vvel (THERMODYNAMICS) mean= -1.21165757686337E-05
DEBUG_STATS_RL:          Vvel (THERMODYNAMICS) S.D.=  5.28708989330620E-03
DEBUG_STATS_RL:          Wvel (THERMODYNAMICS)  min= -9.52447624022258E-03
DEBUG_STATS_RL:          Wvel (THERMODYNAMICS)  max=  1.20927101172111E-03
DEBUG_STATS_RL:          Wvel (THERMODYNAMICS) mean= -2.81772159323114E-06
DEBUG_STATS_RL:          Wvel (THERMODYNAMICS) S.D.=  1.33815428902060E-04
DEBUG_STATS_RL:         Theta (THERMODYNAMICS)  min=  1.25238963659057E+01
DEBUG_STATS_RL:         Theta (THERMODYNAMICS)  max=  2.05413445310945E+01
DEBUG_STATS_RL:         Theta (THERMODYNAMICS) mean=  1.99759792725728E+01
DEBUG_STATS_RL:         Theta (THERMODYNAMICS) S.D.=  1.75294306919923E-01
DEBUG_STATS_RL:          Salt (THERMODYNAMICS)  min=  3.43624204931349E+01
DEBUG_STATS_RL:          Salt (THERMODYNAMICS)  max=  3.53366697722889E+01
DEBUG_STATS_RL:          Salt (THERMODYNAMICS) mean=  3.49992443937665E+01
DEBUG_STATS_RL:          Salt (THERMODYNAMICS) S.D.=  1.92758218130393E-02
DEBUG_STATS_RL:         GtNm1 (THERMODYNAMICS)  min= -8.60404978825723E-19
DEBUG_STATS_RL:         GtNm1 (THERMODYNAMICS)  max=  3.30870610577071E-19
DEBUG_STATS_RL:         GtNm1 (THERMODYNAMICS) mean= -5.94821838051301E-23
DEBUG_STATS_RL:         GtNm1 (THERMODYNAMICS) S.D.=  6.06753127153561E-21
DEBUG_STATS_RL:         GsNm1 (THERMODYNAMICS)  min= -1.05093823379511E-18
DEBUG_STATS_RL:         GsNm1 (THERMODYNAMICS)  max=  9.25975476926234E-19
DEBUG_STATS_RL:         GsNm1 (THERMODYNAMICS) mean= -3.30765382605079E-23
DEBUG_STATS_RL:         GsNm1 (THERMODYNAMICS) S.D.=  9.98054232859189E-21
(PID.TID 0000.0001) DEBUG_MSG: LEAVING S/R THERMODYNAMICS
(PID.TID 0000.0001) // =======================================================
(PID.TID 0000.0001) // Begin MONITOR dynamic field statistics
(PID.TID 0000.0001) // =======================================================
(PID.TID 0000.0001) %MON time_tsnumber                =                     1
(PID.TID 0000.0001) %MON time_secondsf                =   9.0000000000000E+02
(PID.TID 0000.0001) %MON dynstat_eta_max              =   8.4375157939127E+00
(PID.TID 0000.0001) %MON dynstat_eta_min              =  -1.0646406135999E+00
(PID.TID 0000.0001) %MON dynstat_eta_mean             =   1.0771533740011E-02
(PID.TID 0000.0001) %MON dynstat_eta_sd               =   2.6955060474027E-01
(PID.TID 0000.0001) %MON dynstat_eta_del2             =   9.1318639350163E-03
(PID.TID 0000.0001) %MON dynstat_uvel_max             =   2.7208351568640E-01
(PID.TID 0000.0001) %MON dynstat_uvel_min             =  -2.1239558449997E-01
(PID.TID 0000.0001) %MON dynstat_uvel_mean            =   9.2187086526560E-06
(PID.TID 0000.0001) %MON dynstat_uvel_sd              =   2.1936313648247E-03
(PID.TID 0000.0001) %MON dynstat_uvel_del2            =   4.9255633267263E-05
(PID.TID 0000.0001) %MON dynstat_vvel_max             =   2.6849515843747E-01
(PID.TID 0000.0001) %MON dynstat_vvel_min             =  -2.3973902711867E-01
(PID.TID 0000.0001) %MON dynstat_vvel_mean            =  -2.9406680129136E-06
(PID.TID 0000.0001) %MON dynstat_vvel_sd              =   2.3266080081658E-03
(PID.TID 0000.0001) %MON dynstat_vvel_del2            =   5.5928918334975E-05
(PID.TID 0000.0001) %MON dynstat_wvel_max             =   1.2092710117211E-03
(PID.TID 0000.0001) %MON dynstat_wvel_min             =  -9.5244762402226E-03
(PID.TID 0000.0001) %MON dynstat_wvel_mean            =  -5.6130416177909E-07
(PID.TID 0000.0001) %MON dynstat_wvel_sd              =   5.0206895369316E-05
(PID.TID 0000.0001) %MON dynstat_wvel_del2            =   1.1917419320189E-06
(PID.TID 0000.0001) %MON dynstat_theta_max            =   2.0541344531094E+01
(PID.TID 0000.0001) %MON dynstat_theta_min            =   1.2523896365906E+01
(PID.TID 0000.0001) %MON dynstat_theta_mean           =   1.9997702311461E+01
(PID.TID 0000.0001) %MON dynstat_theta_sd             =   5.5277598800825E-02
(PID.TID 0000.0001) %MON dynstat_theta_del2           =   5.2547787875841E-04
(PID.TID 0000.0001) %MON dynstat_salt_max             =   3.5336669772289E+01
(PID.TID 0000.0001) %MON dynstat_salt_min             =   3.4362420493135E+01
(PID.TID 0000.0001) %MON dynstat_salt_mean            =   3.4999916691914E+01
(PID.TID 0000.0001) %MON dynstat_salt_sd              =   5.7946234737472E-03
(PID.TID 0000.0001) %MON dynstat_salt_del2            =   8.4288385846224E-05
(PID.TID 0000.0001) %MON dynstat_sst_max              =   2.0541344531094E+01
(PID.TID 0000.0001) %MON dynstat_sst_min              =   1.2523896365906E+01
(PID.TID 0000.0001) %MON dynstat_sst_mean             =   1.9661618223808E+01
(PID.TID 0000.0001) %MON dynstat_sst_sd               =   5.7991067775944E-01
(PID.TID 0000.0001) %MON dynstat_sst_del2             =   7.1262884578394E-03
(PID.TID 0000.0001) %MON dynstat_sss_max              =   3.5336669772289E+01
(PID.TID 0000.0001) %MON dynstat_sss_min              =   3.4362420493135E+01
(PID.TID 0000.0001) %MON dynstat_sss_mean             =   3.4987731174247E+01
(PID.TID 0000.0001) %MON dynstat_sss_sd               =   6.9251070089258E-02
(PID.TID 0000.0001) %MON dynstat_sss_del2             =   1.1430801854788E-03
(PID.TID 0000.0001) %MON forcing_qnet_max             =   9.5491375000000E+05
(PID.TID 0000.0001) %MON forcing_qnet_min             =  -6.2163777343750E+04
(PID.TID 0000.0001) %MON forcing_qnet_mean            =   3.8944147748449E+04
(PID.TID 0000.0001) %MON forcing_qnet_sd              =   6.7479164675963E+04
(PID.TID 0000.0001) %MON forcing_qnet_del2            =   9.1591438547553E+02
(PID.TID 0000.0001) %MON forcing_qsw_max              =   0.0000000000000E+00
(PID.TID 0000.0001) %MON forcing_qsw_min              =   0.0000000000000E+00
(PID.TID 0000.0001) %MON forcing_qsw_mean             =   0.0000000000000E+00
(PID.TID 0000.0001) %MON forcing_qsw_sd               =   0.0000000000000E+00
(PID.TID 0000.0001) %MON forcing_qsw_del2             =   0.0000000000000E+00
(PID.TID 0000.0001) %MON forcing_empmr_max            =   1.2515954971313E+00
(PID.TID 0000.0001) %MON forcing_empmr_min            =  -9.8578329086304E+00
(PID.TID 0000.0001) %MON forcing_empmr_mean           =  -1.2387263801013E-02
(PID.TID 0000.0001) %MON forcing_empmr_sd             =   3.2568029393379E-01
(PID.TID 0000.0001) %MON forcing_empmr_del2           =   1.1360903611562E-02
(PID.TID 0000.0001) %MON forcing_fu_max               =   5.0394416799918E-01
(PID.TID 0000.0001) %MON forcing_fu_min               =  -4.7713297787496E-01
(PID.TID 0000.0001) %MON forcing_fu_mean              =  -5.5690217709486E-03
(PID.TID 0000.0001) %MON forcing_fu_sd                =   7.3532839210981E-02
(PID.TID 0000.0001) %MON forcing_fu_del2              =   7.3910548905014E-04
(PID.TID 0000.0001) %MON forcing_fv_max               =   2.7803803014539E-01
(PID.TID 0000.0001) %MON forcing_fv_min               =  -5.2780272829866E-01
(PID.TID 0000.0001) %MON forcing_fv_mean              =  -1.4712056918441E-02
(PID.TID 0000.0001) %MON forcing_fv_sd                =   6.9084526055315E-02
(PID.TID 0000.0001) %MON forcing_fv_del2              =   6.1366562127215E-04
(PID.TID 0000.0001) %MON trAdv_CFL_u_max              =   1.3086905880830E-03
(PID.TID 0000.0001) %MON trAdv_CFL_v_max              =   1.6289390636452E-03
(PID.TID 0000.0001) %MON trAdv_CFL_w_max              =   3.1537164246262E-01
(PID.TID 0000.0001) %MON advcfl_uvel_max              =   9.0733502949248E-04
(PID.TID 0000.0001) %MON advcfl_vvel_max              =   8.7619764102611E-04
(PID.TID 0000.0001) %MON advcfl_wvel_max              =   6.8576228929603E-01
(PID.TID 0000.0001) %MON advcfl_W_hf_max              =   3.1537164246262E-01
(PID.TID 0000.0001) %MON pe_b_mean                    =   9.6947822802376E-05
(PID.TID 0000.0001) %MON ke_max                       =   4.1352554578814E-02
(PID.TID 0000.0001) %MON ke_mean                      =   4.7218340787485E-06
(PID.TID 0000.0001) %MON ke_vol                       =   1.3398024453628E+18
(PID.TID 0000.0001) %MON vort_r_min                   =  -9.2129421989596E-07
(PID.TID 0000.0001) %MON vort_r_max                   =   9.6356004269986E-07
(PID.TID 0000.0001) %MON vort_a_mean                  =  -2.0549865324846E-05
(PID.TID 0000.0001) %MON vort_a_sd                    =   7.5259260399974E-05
(PID.TID 0000.0001) %MON vort_p_mean                  =  -2.4783522345033E-05
(PID.TID 0000.0001) %MON vort_p_sd                    =   1.2810783506722E-04
(PID.TID 0000.0001) %MON surfExpan_theta_mean         =   4.5023405658280E-05
(PID.TID 0000.0001) %MON surfExpan_salt_mean          =   4.5505120338782E-06
(PID.TID 0000.0001) // =======================================================
(PID.TID 0000.0001) // End MONITOR dynamic field statistics
(PID.TID 0000.0001) // =======================================================
(PID.TID 0000.0001) DEBUG_MSG: LEAVING S/R FORWARD_STEP
(PID.TID 0000.0001) DEBUG_MSG: ENTERED S/R FORWARD_STEP
(PID.TID 0000.0001) DEBUG_MSG: CALLING S/R LOAD_FIELDS_DRIVER
(PID.TID 0000.0001) DEBUG_MSG: ENTERED S/R LOAD_FIELDS_DRIVER
(PID.TID 0000.0001) DEBUG_MSG: CALLING S/R EXTERNAL_FIELDS_LOAD
(PID.TID 0000.0001) DEBUG_MSG: LEAVING S/R LOAD_FIELDS_DRIVER
(PID.TID 0000.0001) DEBUG_MSG: CALLING S/R DO_ATMOSPHERIC_PHYS
(PID.TID 0000.0001) DEBUG_MSG: ENTERED S/R DO_ATMOSPHERIC_PHYS
(PID.TID 0000.0001) DEBUG_MSG: LEAVING S/R DO_ATMOSPHERIC_PHYS
(PID.TID 0000.0001) DEBUG_MSG: CALLING S/R DO_OCEANIC_PHYS
(PID.TID 0000.0001) DEBUG_MSG: ENTERED S/R DO_OCEANIC_PHYS
(PID.TID 0000.0001) DEBUG_MSG: CALLING S/R EXTERNAL_FORCING_SURF
(PID.TID 0000.0001) DEBUG_MSG: CALLING S/R FIND_RHO_2D (xNr)
(PID.TID 0000.0001) DEBUG_MSG:                  ENTERING UPWARD K LOOP (bi=   1, bj=   1)
(PID.TID 0000.0001) DEBUG_MSG: CALLING S/R GRAD_SIGMA
(PID.TID 0000.0001) DEBUG_MSG: CALLING S/R CALC_IVDC
(PID.TID 0000.0001) DEBUG_MSG: CALLING S/R GRAD_SIGMA
(PID.TID 0000.0001) DEBUG_MSG: CALLING S/R CALC_IVDC
(PID.TID 0000.0001) DEBUG_MSG: CALLING S/R GRAD_SIGMA
(PID.TID 0000.0001) DEBUG_MSG: CALLING S/R CALC_IVDC
(PID.TID 0000.0001) DEBUG_MSG: CALLING S/R GRAD_SIGMA
(PID.TID 0000.0001) DEBUG_MSG: CALLING S/R CALC_IVDC
(PID.TID 0000.0001) DEBUG_MSG: CALLING S/R GRAD_SIGMA
(PID.TID 0000.0001) DEBUG_MSG: CALLING S/R CALC_IVDC
(PID.TID 0000.0001) DEBUG_MSG: CALLING S/R GRAD_SIGMA
(PID.TID 0000.0001) DEBUG_MSG: CALLING S/R CALC_IVDC
(PID.TID 0000.0001) DEBUG_MSG: CALLING S/R GRAD_SIGMA
(PID.TID 0000.0001) DEBUG_MSG: CALLING S/R CALC_IVDC
(PID.TID 0000.0001) DEBUG_MSG: CALLING S/R GRAD_SIGMA
(PID.TID 0000.0001) DEBUG_MSG: CALLING S/R CALC_IVDC
(PID.TID 0000.0001) DEBUG_MSG: CALLING S/R GRAD_SIGMA
(PID.TID 0000.0001) DEBUG_MSG: CALLING S/R CALC_IVDC
(PID.TID 0000.0001) DEBUG_MSG: CALLING S/R GRAD_SIGMA
(PID.TID 0000.0001) DEBUG_MSG: CALLING S/R CALC_IVDC
(PID.TID 0000.0001) DEBUG_MSG: CALLING S/R GRAD_SIGMA
(PID.TID 0000.0001) DEBUG_MSG: CALLING S/R CALC_IVDC
(PID.TID 0000.0001) DEBUG_MSG: CALLING S/R GRAD_SIGMA
(PID.TID 0000.0001) DEBUG_MSG: CALLING S/R CALC_IVDC
(PID.TID 0000.0001) DEBUG_MSG: CALLING S/R GRAD_SIGMA
(PID.TID 0000.0001) DEBUG_MSG: CALLING S/R CALC_IVDC
(PID.TID 0000.0001) DEBUG_MSG: CALLING S/R GRAD_SIGMA
(PID.TID 0000.0001) DEBUG_MSG: CALLING S/R CALC_IVDC
(PID.TID 0000.0001) DEBUG_MSG: CALLING S/R GRAD_SIGMA
(PID.TID 0000.0001) DEBUG_MSG: CALLING S/R CALC_IVDC
(PID.TID 0000.0001) DEBUG_MSG: CALLING S/R GRAD_SIGMA
(PID.TID 0000.0001) DEBUG_MSG: CALLING S/R GMREDI_CALC_TENSOR
(PID.TID 0000.0001) DEBUG_MSG: LEAVING S/R DO_OCEANIC_PHYS
(PID.TID 0000.0001) DEBUG_MSG: CALLING S/R DYNAMICS
(PID.TID 0000.0001) DEBUG_MSG: ENTERED S/R DYNAMICS
DEBUG_STATS_RL:                EtaN (DYNAMICS)  min= -1.06464061359986E+00
DEBUG_STATS_RL:                EtaN (DYNAMICS)  max=  8.43751579391272E+00
DEBUG_STATS_RL:                EtaN (DYNAMICS) mean=  1.10839310279948E-02
DEBUG_STATS_RL:                EtaN (DYNAMICS) S.D.=  2.75308440277257E-01
DEBUG_STATS_RL:                Uvel (DYNAMICS)  min= -2.12395584499968E-01
DEBUG_STATS_RL:                Uvel (DYNAMICS)  max=  2.72083515686397E-01
DEBUG_STATS_RL:                Uvel (DYNAMICS) mean=  6.41634385480434E-05
DEBUG_STATS_RL:                Uvel (DYNAMICS) S.D.=  5.09189043343542E-03
DEBUG_STATS_RL:                Vvel (DYNAMICS)  min= -2.39739027118666E-01
DEBUG_STATS_RL:                Vvel (DYNAMICS)  max=  2.68495158437472E-01
DEBUG_STATS_RL:                Vvel (DYNAMICS) mean= -1.21165757686337E-05
DEBUG_STATS_RL:                Vvel (DYNAMICS) S.D.=  5.28708989330620E-03
DEBUG_STATS_RL:                Wvel (DYNAMICS)  min= -9.52447624022258E-03
DEBUG_STATS_RL:                Wvel (DYNAMICS)  max=  1.20927101172111E-03
DEBUG_STATS_RL:                Wvel (DYNAMICS) mean= -2.81772159323114E-06
DEBUG_STATS_RL:                Wvel (DYNAMICS) S.D.=  1.33815428902060E-04
DEBUG_STATS_RL:               Theta (DYNAMICS)  min=  1.25238963659057E+01
DEBUG_STATS_RL:               Theta (DYNAMICS)  max=  2.05413445310945E+01
DEBUG_STATS_RL:               Theta (DYNAMICS) mean=  1.99759792725728E+01
DEBUG_STATS_RL:               Theta (DYNAMICS) S.D.=  1.75294306919923E-01
DEBUG_STATS_RL:                Salt (DYNAMICS)  min=  3.43624204931349E+01
DEBUG_STATS_RL:                Salt (DYNAMICS)  max=  3.53366697722889E+01
DEBUG_STATS_RL:                Salt (DYNAMICS) mean=  3.49992443937665E+01
DEBUG_STATS_RL:                Salt (DYNAMICS) S.D.=  1.92758218130393E-02
DEBUG_STATS_RL:                  Gu (DYNAMICS)  min= -1.96994421597662E-01
DEBUG_STATS_RL:                  Gu (DYNAMICS)  max=  2.83052302906307E-01
DEBUG_STATS_RL:                  Gu (DYNAMICS) mean=  6.33634124779953E-05
DEBUG_STATS_RL:                  Gu (DYNAMICS) S.D.=  5.25957779870624E-03
DEBUG_STATS_RL:                  Gv (DYNAMICS)  min= -2.35454001808312E-01
DEBUG_STATS_RL:                  Gv (DYNAMICS)  max=  2.49378232112222E-01
DEBUG_STATS_RL:                  Gv (DYNAMICS) mean= -4.85684495722009E-05
DEBUG_STATS_RL:                  Gv (DYNAMICS) S.D.=  5.19580842832014E-03
DEBUG_STATS_RL:               GuNm1 (DYNAMICS)  min= -2.01657084040686E-05
DEBUG_STATS_RL:               GuNm1 (DYNAMICS)  max=  2.69876731888816E-05
DEBUG_STATS_RL:               GuNm1 (DYNAMICS) mean= -6.58910839548835E-09
DEBUG_STATS_RL:               GuNm1 (DYNAMICS) S.D.=  1.03357903734745E-06
DEBUG_STATS_RL:               GvNm1 (DYNAMICS)  min= -2.44540657487316E-05
DEBUG_STATS_RL:               GvNm1 (DYNAMICS)  max=  1.66791127739989E-05
DEBUG_STATS_RL:               GvNm1 (DYNAMICS) mean= -4.01947932694092E-08
DEBUG_STATS_RL:               GvNm1 (DYNAMICS) S.D.=  9.53634131363565E-07
DEBUG_STATS_RL:               GtNm1 (DYNAMICS)  min= -8.60404978825723E-19
DEBUG_STATS_RL:               GtNm1 (DYNAMICS)  max=  3.30870610577071E-19
DEBUG_STATS_RL:               GtNm1 (DYNAMICS) mean= -5.94821838051301E-23
DEBUG_STATS_RL:               GtNm1 (DYNAMICS) S.D.=  6.06753127153561E-21
DEBUG_STATS_RL:               GsNm1 (DYNAMICS)  min= -1.05093823379511E-18
DEBUG_STATS_RL:               GsNm1 (DYNAMICS)  max=  9.25975476926234E-19
DEBUG_STATS_RL:               GsNm1 (DYNAMICS) mean= -3.30765382605079E-23
DEBUG_STATS_RL:               GsNm1 (DYNAMICS) S.D.=  9.98054232859189E-21
(PID.TID 0000.0001) DEBUG_MSG: LEAVING S/R DYNAMICS
DEBUG_STATS_RL:    cg2d_b (SOLVE_FOR_PRESSURE)  min= -9.21062877108090E+05
DEBUG_STATS_RL:    cg2d_b (SOLVE_FOR_PRESSURE)  max=  1.21885144205679E+05
DEBUG_STATS_RL:    cg2d_b (SOLVE_FOR_PRESSURE) mean= -1.21250125365685E+03
DEBUG_STATS_RL:    cg2d_b (SOLVE_FOR_PRESSURE) S.D.=  2.77393891219474E+04
 cg2d: Sum(rhs),rhsMax =  -5.81855557786676E+00  1.76444000960635E+02
(PID.TID 0000.0001)  cg2d: iter=     1 ; resid.=  1.37572658710885E-02
(PID.TID 0000.0001)  cg2d: iter=     2 ; resid.=  2.40323426643207E-03
(PID.TID 0000.0001)  cg2d: iter=     3 ; resid.=  4.63430274473844E-04
(PID.TID 0000.0001)  cg2d: iter=     4 ; resid.=  8.34000689350345E-05
(PID.TID 0000.0001)  cg2d: iter=     5 ; resid.=  1.37834257705312E-05
(PID.TID 0000.0001)  cg2d: iter=     6 ; resid.=  2.44336843946867E-06
(PID.TID 0000.0001)  cg2d: iter=     7 ; resid.=  6.09430781402960E-07
(PID.TID 0000.0001)  cg2d: iter=     8 ; resid.=  2.30950262440939E-07
(PID.TID 0000.0001)  cg2d: iter=     9 ; resid.=  5.23844672955612E-08
DEBUG_STATS_RL:    cg2d_x (SOLVE_FOR_PRESSURE)  min= -1.07351128313058E+01
DEBUG_STATS_RL:    cg2d_x (SOLVE_FOR_PRESSURE)  max=  8.52567990803164E+01
DEBUG_STATS_RL:    cg2d_x (SOLVE_FOR_PRESSURE) mean=  1.20383762483315E-01
DEBUG_STATS_RL:    cg2d_x (SOLVE_FOR_PRESSURE) S.D.=  2.64752875825567E+00
(PID.TID 0000.0001)      cg2d_init_res =   2.63678577125802E-01
(PID.TID 0000.0001)      cg2d_iters(min,last) =      -1       9
(PID.TID 0000.0001)      cg2d_last_res =   5.23844672955612E-08
(PID.TID 0000.0001) DEBUG_MSG: CALLING S/R UPDATE_ETAH
(PID.TID 0000.0001) DEBUG_MSG: ENTERED S/R CALC_R_STAR
(PID.TID 0000.0001) DEBUG_MSG: LEAVING S/R CALC_R_STAR
(PID.TID 0000.0001) DEBUG_MSG: CALLING S/R DO_STAGGER_FIELDS_EXCH.
(PID.TID 0000.0001) DEBUG_MSG: CALLING S/R THERMODYNAMICS
(PID.TID 0000.0001) DEBUG_MSG: ENTERED S/R THERMODYNAMICS
(PID.TID 0000.0001) DEBUG_MSG: CALLING S/R TEMP_INTEGRATE
(PID.TID 0000.0001) DEBUG_MSG: CALLING S/R SALT_INTEGRATE
DEBUG_STATS_RL:          Uvel (THERMODYNAMICS)  min= -3.65914603375134E-01
DEBUG_STATS_RL:          Uvel (THERMODYNAMICS)  max=  5.56083594350030E-01
DEBUG_STATS_RL:          Uvel (THERMODYNAMICS) mean=  1.45114425091574E-04
DEBUG_STATS_RL:          Uvel (THERMODYNAMICS) S.D.=  9.61596854900110E-03
DEBUG_STATS_RL:          Vvel (THERMODYNAMICS)  min= -4.72097353225398E-01
DEBUG_STATS_RL:          Vvel (THERMODYNAMICS)  max=  5.23238215844854E-01
DEBUG_STATS_RL:          Vvel (THERMODYNAMICS) mean= -2.57088870009274E-05
DEBUG_STATS_RL:          Vvel (THERMODYNAMICS) S.D.=  9.85889928019437E-03
DEBUG_STATS_RL:          Wvel (THERMODYNAMICS)  min= -6.96545102545932E-04
DEBUG_STATS_RL:          Wvel (THERMODYNAMICS)  max=  7.54973594693170E-05
DEBUG_STATS_RL:          Wvel (THERMODYNAMICS) mean= -6.43391753193210E-07
DEBUG_STATS_RL:          Wvel (THERMODYNAMICS) S.D.=  1.31365830283460E-05
DEBUG_STATS_RL:         Theta (THERMODYNAMICS)  min=  1.63823665739254E+01
DEBUG_STATS_RL:         Theta (THERMODYNAMICS)  max=  2.02971441915796E+01
DEBUG_STATS_RL:         Theta (THERMODYNAMICS) mean=  1.99853508875845E+01
DEBUG_STATS_RL:         Theta (THERMODYNAMICS) S.D.=  6.74419685782930E-02
DEBUG_STATS_RL:          Salt (THERMODYNAMICS)  min=  3.43106722821824E+01
DEBUG_STATS_RL:          Salt (THERMODYNAMICS)  max=  3.51033899392733E+01
DEBUG_STATS_RL:          Salt (THERMODYNAMICS) mean=  3.49994429011450E+01
DEBUG_STATS_RL:          Salt (THERMODYNAMICS) S.D.=  1.05542089766899E-02
DEBUG_STATS_RL:         GtNm1 (THERMODYNAMICS)  min= -6.44263834123258E-05
DEBUG_STATS_RL:         GtNm1 (THERMODYNAMICS)  max=  4.37139628885565E-07
DEBUG_STATS_RL:         GtNm1 (THERMODYNAMICS) mean= -1.10145743936300E-08
DEBUG_STATS_RL:         GtNm1 (THERMODYNAMICS) S.D.=  6.04238852153750E-07
DEBUG_STATS_RL:         GsNm1 (THERMODYNAMICS)  min= -7.58598888092686E-06
DEBUG_STATS_RL:         GsNm1 (THERMODYNAMICS)  max=  3.67228612404371E-07
DEBUG_STATS_RL:         GsNm1 (THERMODYNAMICS) mean= -1.29740105414126E-09
DEBUG_STATS_RL:         GsNm1 (THERMODYNAMICS) S.D.=  6.08295702450545E-08
(PID.TID 0000.0001) DEBUG_MSG: LEAVING S/R THERMODYNAMICS
(PID.TID 0000.0001) // =======================================================
(PID.TID 0000.0001) // Begin MONITOR dynamic field statistics
(PID.TID 0000.0001) // =======================================================
(PID.TID 0000.0001) %MON time_tsnumber                =                     2
(PID.TID 0000.0001) %MON time_secondsf                =   1.8000000000000E+03
(PID.TID 0000.0001) %MON dynstat_eta_max              =   8.6908052092459E+00
(PID.TID 0000.0001) %MON dynstat_eta_min              =  -1.0943030411105E+00
(PID.TID 0000.0001) %MON dynstat_eta_mean             =   1.1929527902195E-02
(PID.TID 0000.0001) %MON dynstat_eta_sd               =   2.6500729088902E-01
(PID.TID 0000.0001) %MON dynstat_eta_del2             =   8.5994926307156E-03
(PID.TID 0000.0001) %MON dynstat_uvel_max             =   5.5608359435003E-01
(PID.TID 0000.0001) %MON dynstat_uvel_min             =  -3.6591460337513E-01
(PID.TID 0000.0001) %MON dynstat_uvel_mean            =   2.9332443569812E-05
(PID.TID 0000.0001) %MON dynstat_uvel_sd              =   4.0127832962004E-03
(PID.TID 0000.0001) %MON dynstat_uvel_del2            =   8.9203479295332E-05
(PID.TID 0000.0001) %MON dynstat_vvel_max             =   5.2323821584485E-01
(PID.TID 0000.0001) %MON dynstat_vvel_min             =  -4.7209735322540E-01
(PID.TID 0000.0001) %MON dynstat_vvel_mean            =  -4.6917364169756E-06
(PID.TID 0000.0001) %MON dynstat_vvel_sd              =   4.2564435546806E-03
(PID.TID 0000.0001) %MON dynstat_vvel_del2            =   1.0350615907462E-04
(PID.TID 0000.0001) %MON dynstat_wvel_max             =   7.5497359469317E-05
(PID.TID 0000.0001) %MON dynstat_wvel_min             =  -6.9654510254593E-04
(PID.TID 0000.0001) %MON dynstat_wvel_mean            =  -3.8083261194867E-07
(PID.TID 0000.0001) %MON dynstat_wvel_sd              =   1.0210534331505E-05
(PID.TID 0000.0001) %MON dynstat_wvel_del2            =   1.1293913533329E-07
(PID.TID 0000.0001) %MON dynstat_theta_max            =   2.0297144191580E+01
(PID.TID 0000.0001) %MON dynstat_theta_min            =   1.6382366573925E+01
(PID.TID 0000.0001) %MON dynstat_theta_mean           =   1.9997732076119E+01
(PID.TID 0000.0001) %MON dynstat_theta_sd             =   2.3860644139813E-02
(PID.TID 0000.0001) %MON dynstat_theta_del2           =   3.3843199833879E-04
(PID.TID 0000.0001) %MON dynstat_salt_max             =   3.5103389939273E+01
(PID.TID 0000.0001) %MON dynstat_salt_min             =   3.4310672282182E+01
(PID.TID 0000.0001) %MON dynstat_salt_mean            =   3.4999912453535E+01
(PID.TID 0000.0001) %MON dynstat_salt_sd              =   3.4035791800167E-03
(PID.TID 0000.0001) %MON dynstat_salt_del2            =   9.1121421610470E-05
(PID.TID 0000.0001) %MON dynstat_sst_max              =   2.0297144191580E+01
(PID.TID 0000.0001) %MON dynstat_sst_min              =   1.6382366573925E+01
(PID.TID 0000.0001) %MON dynstat_sst_mean             =   1.9923166564346E+01
(PID.TID 0000.0001) %MON dynstat_sst_sd               =   1.7142055945492E-01
(PID.TID 0000.0001) %MON dynstat_sst_del2             =   3.2616394316172E-03
(PID.TID 0000.0001) %MON dynstat_sss_max              =   3.5103389939273E+01
(PID.TID 0000.0001) %MON dynstat_sss_min              =   3.4310672282182E+01
(PID.TID 0000.0001) %MON dynstat_sss_mean             =   3.4995663818373E+01
(PID.TID 0000.0001) %MON dynstat_sss_sd               =   3.4303348490575E-02
(PID.TID 0000.0001) %MON dynstat_sss_del2             =   1.1855225236542E-03
(PID.TID 0000.0001) %MON forcing_qnet_max             =   1.6728020312500E+05
(PID.TID 0000.0001) %MON forcing_qnet_min             =  -2.9682074218750E+04
(PID.TID 0000.0001) %MON forcing_qnet_mean            =  -6.1419040228456E+02
(PID.TID 0000.0001) %MON forcing_qnet_sd              =   4.8280453182560E+03
(PID.TID 0000.0001) %MON forcing_qnet_del2            =   2.0408706143184E+02
(PID.TID 0000.0001) %MON forcing_qsw_max              =   0.0000000000000E+00
(PID.TID 0000.0001) %MON forcing_qsw_min              =   0.0000000000000E+00
(PID.TID 0000.0001) %MON forcing_qsw_mean             =   0.0000000000000E+00
(PID.TID 0000.0001) %MON forcing_qsw_sd               =   0.0000000000000E+00
(PID.TID 0000.0001) %MON forcing_qsw_del2             =   0.0000000000000E+00
(PID.TID 0000.0001) %MON forcing_empmr_max            =   7.8139767050743E-02
(PID.TID 0000.0001) %MON forcing_empmr_min            =  -6.1679571866989E-01
(PID.TID 0000.0001) %MON forcing_empmr_mean           =  -1.3316932865114E-03
(PID.TID 0000.0001) %MON forcing_empmr_sd             =   2.1538337658547E-02
(PID.TID 0000.0001) %MON forcing_empmr_del2           =   7.6909709093442E-04
(PID.TID 0000.0001) %MON forcing_fu_max               =   6.8125935157209E-01
(PID.TID 0000.0001) %MON forcing_fu_min               =  -5.2424908655928E-01
(PID.TID 0000.0001) %MON forcing_fu_mean              =  -4.7457285651286E-03
(PID.TID 0000.0001) %MON forcing_fu_sd                =   9.5349914292696E-02
(PID.TID 0000.0001) %MON forcing_fu_del2              =   8.9020393008715E-04
(PID.TID 0000.0001) %MON forcing_fv_max               =   4.2387860620526E-01
(PID.TID 0000.0001) %MON forcing_fv_min               =  -6.5032773769605E-01
(PID.TID 0000.0001) %MON forcing_fv_mean              =  -1.2469556568373E-02
(PID.TID 0000.0001) %MON forcing_fv_sd                =   8.6761367565305E-02
(PID.TID 0000.0001) %MON forcing_fv_del2              =   7.7164321329109E-04
(PID.TID 0000.0001) %MON trAdv_CFL_u_max              =   2.3887175371287E-03
(PID.TID 0000.0001) %MON trAdv_CFL_v_max              =   2.9893974071038E-03
(PID.TID 0000.0001) %MON trAdv_CFL_w_max              =   1.8179235937641E-02
(PID.TID 0000.0001) %MON advcfl_uvel_max              =   1.8544090155812E-03
(PID.TID 0000.0001) %MON advcfl_vvel_max              =   1.7075171600338E-03
(PID.TID 0000.0001) %MON advcfl_wvel_max              =   4.2907528255297E-02
(PID.TID 0000.0001) %MON advcfl_W_hf_max              =   1.8179235937641E-02
(PID.TID 0000.0001) %MON pe_b_mean                    =   9.3747138969411E-05
(PID.TID 0000.0001) %MON ke_max                       =   1.5275564352068E-01
(PID.TID 0000.0001) %MON ke_mean                      =   1.5802640543953E-05
(PID.TID 0000.0001) %MON ke_vol                       =   1.3398063649810E+18
(PID.TID 0000.0001) %MON vort_r_min                   =  -1.8142251096208E-06
(PID.TID 0000.0001) %MON vort_r_max                   =   1.8488626162345E-06
(PID.TID 0000.0001) %MON vort_a_mean                  =  -2.0549865324846E-05
(PID.TID 0000.0001) %MON vort_a_sd                    =   7.5259263916090E-05
(PID.TID 0000.0001) %MON vort_p_mean                  =  -2.4783469791786E-05
(PID.TID 0000.0001) %MON vort_p_sd                    =   1.2810647171216E-04
(PID.TID 0000.0001) %MON surfExpan_theta_mean         =   1.0564358651671E-06
(PID.TID 0000.0001) %MON surfExpan_salt_mean          =   2.5580272932616E-07
(PID.TID 0000.0001) // =======================================================
(PID.TID 0000.0001) // End MONITOR dynamic field statistics
(PID.TID 0000.0001) // =======================================================
(PID.TID 0000.0001) DEBUG_MSG: LEAVING S/R FORWARD_STEP
(PID.TID 0000.0001) DEBUG_MSG: ENTERED S/R FORWARD_STEP
(PID.TID 0000.0001) DEBUG_MSG: CALLING S/R LOAD_FIELDS_DRIVER
(PID.TID 0000.0001) DEBUG_MSG: ENTERED S/R LOAD_FIELDS_DRIVER
(PID.TID 0000.0001) DEBUG_MSG: CALLING S/R EXTERNAL_FIELDS_LOAD
(PID.TID 0000.0001) DEBUG_MSG: LEAVING S/R LOAD_FIELDS_DRIVER
(PID.TID 0000.0001) DEBUG_MSG: CALLING S/R DO_ATMOSPHERIC_PHYS
(PID.TID 0000.0001) DEBUG_MSG: ENTERED S/R DO_ATMOSPHERIC_PHYS
(PID.TID 0000.0001) DEBUG_MSG: LEAVING S/R DO_ATMOSPHERIC_PHYS
(PID.TID 0000.0001) DEBUG_MSG: CALLING S/R DO_OCEANIC_PHYS
(PID.TID 0000.0001) DEBUG_MSG: ENTERED S/R DO_OCEANIC_PHYS
(PID.TID 0000.0001) DEBUG_MSG: CALLING S/R EXTERNAL_FORCING_SURF
(PID.TID 0000.0001) DEBUG_MSG: CALLING S/R FIND_RHO_2D (xNr)
(PID.TID 0000.0001) DEBUG_MSG:                  ENTERING UPWARD K LOOP (bi=   1, bj=   1)
(PID.TID 0000.0001) DEBUG_MSG: CALLING S/R GRAD_SIGMA
(PID.TID 0000.0001) DEBUG_MSG: CALLING S/R CALC_IVDC
(PID.TID 0000.0001) DEBUG_MSG: CALLING S/R GRAD_SIGMA
(PID.TID 0000.0001) DEBUG_MSG: CALLING S/R CALC_IVDC
(PID.TID 0000.0001) DEBUG_MSG: CALLING S/R GRAD_SIGMA
(PID.TID 0000.0001) DEBUG_MSG: CALLING S/R CALC_IVDC
(PID.TID 0000.0001) DEBUG_MSG: CALLING S/R GRAD_SIGMA
(PID.TID 0000.0001) DEBUG_MSG: CALLING S/R CALC_IVDC
(PID.TID 0000.0001) DEBUG_MSG: CALLING S/R GRAD_SIGMA
(PID.TID 0000.0001) DEBUG_MSG: CALLING S/R CALC_IVDC
(PID.TID 0000.0001) DEBUG_MSG: CALLING S/R GRAD_SIGMA
(PID.TID 0000.0001) DEBUG_MSG: CALLING S/R CALC_IVDC
(PID.TID 0000.0001) DEBUG_MSG: CALLING S/R GRAD_SIGMA
(PID.TID 0000.0001) DEBUG_MSG: CALLING S/R CALC_IVDC
(PID.TID 0000.0001) DEBUG_MSG: CALLING S/R GRAD_SIGMA
(PID.TID 0000.0001) DEBUG_MSG: CALLING S/R CALC_IVDC
(PID.TID 0000.0001) DEBUG_MSG: CALLING S/R GRAD_SIGMA
(PID.TID 0000.0001) DEBUG_MSG: CALLING S/R CALC_IVDC
(PID.TID 0000.0001) DEBUG_MSG: CALLING S/R GRAD_SIGMA
(PID.TID 0000.0001) DEBUG_MSG: CALLING S/R CALC_IVDC
(PID.TID 0000.0001) DEBUG_MSG: CALLING S/R GRAD_SIGMA
(PID.TID 0000.0001) DEBUG_MSG: CALLING S/R CALC_IVDC
(PID.TID 0000.0001) DEBUG_MSG: CALLING S/R GRAD_SIGMA
(PID.TID 0000.0001) DEBUG_MSG: CALLING S/R CALC_IVDC
(PID.TID 0000.0001) DEBUG_MSG: CALLING S/R GRAD_SIGMA
(PID.TID 0000.0001) DEBUG_MSG: CALLING S/R CALC_IVDC
(PID.TID 0000.0001) DEBUG_MSG: CALLING S/R GRAD_SIGMA
(PID.TID 0000.0001) DEBUG_MSG: CALLING S/R CALC_IVDC
(PID.TID 0000.0001) DEBUG_MSG: CALLING S/R GRAD_SIGMA
(PID.TID 0000.0001) DEBUG_MSG: CALLING S/R CALC_IVDC
(PID.TID 0000.0001) DEBUG_MSG: CALLING S/R GRAD_SIGMA
(PID.TID 0000.0001) DEBUG_MSG: CALLING S/R GMREDI_CALC_TENSOR
(PID.TID 0000.0001) DEBUG_MSG: LEAVING S/R DO_OCEANIC_PHYS
(PID.TID 0000.0001) DEBUG_MSG: CALLING S/R DYNAMICS
(PID.TID 0000.0001) DEBUG_MSG: ENTERED S/R DYNAMICS
DEBUG_STATS_RL:                EtaN (DYNAMICS)  min= -1.09430304111053E+00
DEBUG_STATS_RL:                EtaN (DYNAMICS)  max=  8.69080520924589E+00
DEBUG_STATS_RL:                EtaN (DYNAMICS) mean=  1.22715360345126E-02
DEBUG_STATS_RL:                EtaN (DYNAMICS) S.D.=  2.69880607445737E-01
DEBUG_STATS_RL:                Uvel (DYNAMICS)  min= -3.65914603375134E-01
DEBUG_STATS_RL:                Uvel (DYNAMICS)  max=  5.56083594350030E-01
DEBUG_STATS_RL:                Uvel (DYNAMICS) mean=  1.45114425091574E-04
DEBUG_STATS_RL:                Uvel (DYNAMICS) S.D.=  9.61596854900110E-03
DEBUG_STATS_RL:                Vvel (DYNAMICS)  min= -4.72097353225398E-01
DEBUG_STATS_RL:                Vvel (DYNAMICS)  max=  5.23238215844854E-01
DEBUG_STATS_RL:                Vvel (DYNAMICS) mean= -2.57088870009274E-05
DEBUG_STATS_RL:                Vvel (DYNAMICS) S.D.=  9.85889928019437E-03
DEBUG_STATS_RL:                Wvel (DYNAMICS)  min= -6.96545102545932E-04
DEBUG_STATS_RL:                Wvel (DYNAMICS)  max=  7.54973594693170E-05
DEBUG_STATS_RL:                Wvel (DYNAMICS) mean= -6.43391753193210E-07
DEBUG_STATS_RL:                Wvel (DYNAMICS) S.D.=  1.31365830283460E-05
DEBUG_STATS_RL:               Theta (DYNAMICS)  min=  1.63823665739254E+01
DEBUG_STATS_RL:               Theta (DYNAMICS)  max=  2.02971441915796E+01
DEBUG_STATS_RL:               Theta (DYNAMICS) mean=  1.99853508875845E+01
DEBUG_STATS_RL:               Theta (DYNAMICS) S.D.=  6.74419685782930E-02
DEBUG_STATS_RL:                Salt (DYNAMICS)  min=  3.43106722821824E+01
DEBUG_STATS_RL:                Salt (DYNAMICS)  max=  3.51033899392733E+01
DEBUG_STATS_RL:                Salt (DYNAMICS) mean=  3.49994429011450E+01
DEBUG_STATS_RL:                Salt (DYNAMICS) S.D.=  1.05542089766899E-02
DEBUG_STATS_RL:                  Gu (DYNAMICS)  min= -3.44035346209063E-01
DEBUG_STATS_RL:                  Gu (DYNAMICS)  max=  5.74647521940873E-01
DEBUG_STATS_RL:                  Gu (DYNAMICS) mean=  1.50132657798966E-04
DEBUG_STATS_RL:                  Gu (DYNAMICS) S.D.=  9.73745493744685E-03
DEBUG_STATS_RL:                  Gv (DYNAMICS)  min= -4.68552321141469E-01
DEBUG_STATS_RL:                  Gv (DYNAMICS)  max=  4.93738611867843E-01
DEBUG_STATS_RL:                  Gv (DYNAMICS) mean= -6.54908850762656E-05
DEBUG_STATS_RL:                  Gv (DYNAMICS) S.D.=  9.63836992271311E-03
DEBUG_STATS_RL:               GuNm1 (DYNAMICS)  min= -2.12969584622408E-05
DEBUG_STATS_RL:               GuNm1 (DYNAMICS)  max=  3.32883890881570E-05
DEBUG_STATS_RL:               GuNm1 (DYNAMICS) mean=  1.02611632890527E-09
DEBUG_STATS_RL:               GuNm1 (DYNAMICS) S.D.=  1.18343339295914E-06
DEBUG_STATS_RL:               GvNm1 (DYNAMICS)  min= -4.22544084393796E-05
DEBUG_STATS_RL:               GvNm1 (DYNAMICS)  max=  2.11972683391779E-05
DEBUG_STATS_RL:               GvNm1 (DYNAMICS) mean= -4.28662720939731E-08
DEBUG_STATS_RL:               GvNm1 (DYNAMICS) S.D.=  1.10427440597516E-06
DEBUG_STATS_RL:               GtNm1 (DYNAMICS)  min= -6.44263834123258E-05
DEBUG_STATS_RL:               GtNm1 (DYNAMICS)  max=  4.37139628885565E-07
DEBUG_STATS_RL:               GtNm1 (DYNAMICS) mean= -1.10145743936300E-08
DEBUG_STATS_RL:               GtNm1 (DYNAMICS) S.D.=  6.04238852153750E-07
DEBUG_STATS_RL:               GsNm1 (DYNAMICS)  min= -7.58598888092686E-06
DEBUG_STATS_RL:               GsNm1 (DYNAMICS)  max=  3.67228612404371E-07
DEBUG_STATS_RL:               GsNm1 (DYNAMICS) mean= -1.29740105414126E-09
DEBUG_STATS_RL:               GsNm1 (DYNAMICS) S.D.=  6.08295702450545E-08
(PID.TID 0000.0001) DEBUG_MSG: LEAVING S/R DYNAMICS
DEBUG_STATS_RL:    cg2d_b (SOLVE_FOR_PRESSURE)  min= -8.87136066313297E+05
DEBUG_STATS_RL:    cg2d_b (SOLVE_FOR_PRESSURE)  max=  1.16167384221956E+05
DEBUG_STATS_RL:    cg2d_b (SOLVE_FOR_PRESSURE) mean= -1.27747839644990E+03
DEBUG_STATS_RL:    cg2d_b (SOLVE_FOR_PRESSURE) S.D.=  2.51023810983115E+04
 cg2d: Sum(rhs),rhsMax =  -6.36481226129574E+00  1.69944789685003E+02
(PID.TID 0000.0001)  cg2d: iter=     1 ; resid.=  1.49511316709526E-02
(PID.TID 0000.0001)  cg2d: iter=     2 ; resid.=  2.75021640357906E-03
(PID.TID 0000.0001)  cg2d: iter=     3 ; resid.=  5.62007089322757E-04
(PID.TID 0000.0001)  cg2d: iter=     4 ; resid.=  9.37225491547760E-05
(PID.TID 0000.0001)  cg2d: iter=     5 ; resid.=  1.54059077438982E-05
(PID.TID 0000.0001)  cg2d: iter=     6 ; resid.=  3.10611771755785E-06
(PID.TID 0000.0001)  cg2d: iter=     7 ; resid.=  1.04718598782053E-06
(PID.TID 0000.0001)  cg2d: iter=     8 ; resid.=  3.30578579979162E-07
(PID.TID 0000.0001)  cg2d: iter=     9 ; resid.=  5.83845493927713E-08
DEBUG_STATS_RL:    cg2d_x (SOLVE_FOR_PRESSURE)  min= -1.02373523828253E+01
DEBUG_STATS_RL:    cg2d_x (SOLVE_FOR_PRESSURE)  max=  8.15318168308581E+01
DEBUG_STATS_RL:    cg2d_x (SOLVE_FOR_PRESSURE) mean=  1.26688824523266E-01
DEBUG_STATS_RL:    cg2d_x (SOLVE_FOR_PRESSURE) S.D.=  2.40750476131437E+00
(PID.TID 0000.0001)      cg2d_init_res =   3.86989128269756E-01
(PID.TID 0000.0001)      cg2d_iters(min,last) =      -1       9
(PID.TID 0000.0001)      cg2d_last_res =   5.83845493927713E-08
(PID.TID 0000.0001) DEBUG_MSG: CALLING S/R UPDATE_ETAH
(PID.TID 0000.0001) DEBUG_MSG: ENTERED S/R CALC_R_STAR
(PID.TID 0000.0001) DEBUG_MSG: LEAVING S/R CALC_R_STAR
(PID.TID 0000.0001) DEBUG_MSG: CALLING S/R DO_STAGGER_FIELDS_EXCH.
(PID.TID 0000.0001) DEBUG_MSG: CALLING S/R THERMODYNAMICS
(PID.TID 0000.0001) DEBUG_MSG: ENTERED S/R THERMODYNAMICS
(PID.TID 0000.0001) DEBUG_MSG: CALLING S/R TEMP_INTEGRATE
(PID.TID 0000.0001) DEBUG_MSG: CALLING S/R SALT_INTEGRATE
DEBUG_STATS_RL:          Uvel (THERMODYNAMICS)  min= -4.44112401813309E-01
DEBUG_STATS_RL:          Uvel (THERMODYNAMICS)  max=  8.26034423989598E-01
DEBUG_STATS_RL:          Uvel (THERMODYNAMICS) mean=  2.27793714481926E-04
DEBUG_STATS_RL:          Uvel (THERMODYNAMICS) S.D.=  1.31780489935943E-02
DEBUG_STATS_RL:          Vvel (THERMODYNAMICS)  min= -6.93584014134601E-01
DEBUG_STATS_RL:          Vvel (THERMODYNAMICS)  max=  7.52418206830921E-01
DEBUG_STATS_RL:          Vvel (THERMODYNAMICS) mean= -4.53738698274760E-05
DEBUG_STATS_RL:          Vvel (THERMODYNAMICS) S.D.=  1.34780473199639E-02
DEBUG_STATS_RL:          Wvel (THERMODYNAMICS)  min= -9.01112790959879E-04
DEBUG_STATS_RL:          Wvel (THERMODYNAMICS)  max=  1.79100451101566E-04
DEBUG_STATS_RL:          Wvel (THERMODYNAMICS) mean= -6.73224630790427E-07
DEBUG_STATS_RL:          Wvel (THERMODYNAMICS) S.D.=  1.31040668263137E-05
DEBUG_STATS_RL:         Theta (THERMODYNAMICS)  min=  1.64579934636272E+01
DEBUG_STATS_RL:         Theta (THERMODYNAMICS)  max=  2.02926056391167E+01
DEBUG_STATS_RL:         Theta (THERMODYNAMICS) mean=  1.99879597689952E+01
DEBUG_STATS_RL:         Theta (THERMODYNAMICS) S.D.=  5.81515860364457E-02
DEBUG_STATS_RL:          Salt (THERMODYNAMICS)  min=  3.39805506292542E+01
DEBUG_STATS_RL:          Salt (THERMODYNAMICS)  max=  3.51026184776196E+01
DEBUG_STATS_RL:          Salt (THERMODYNAMICS) mean=  3.49994526199152E+01
DEBUG_STATS_RL:          Salt (THERMODYNAMICS) S.D.=  1.29131682696355E-02
DEBUG_STATS_RL:         GtNm1 (THERMODYNAMICS)  min= -1.10056499390697E-05
DEBUG_STATS_RL:         GtNm1 (THERMODYNAMICS)  max=  4.08055198943672E-07
DEBUG_STATS_RL:         GtNm1 (THERMODYNAMICS) mean= -2.89353643345622E-09
DEBUG_STATS_RL:         GtNm1 (THERMODYNAMICS) S.D.=  1.17053614443567E-07
DEBUG_STATS_RL:         GsNm1 (THERMODYNAMICS)  min= -2.04297007091012E-06
DEBUG_STATS_RL:         GsNm1 (THERMODYNAMICS)  max=  2.78004751446442E-07
DEBUG_STATS_RL:         GsNm1 (THERMODYNAMICS) mean= -6.70738613132789E-10
DEBUG_STATS_RL:         GsNm1 (THERMODYNAMICS) S.D.=  2.44872232081325E-08
(PID.TID 0000.0001) DEBUG_MSG: LEAVING S/R THERMODYNAMICS
(PID.TID 0000.0001) // =======================================================
(PID.TID 0000.0001) // Begin MONITOR dynamic field statistics
(PID.TID 0000.0001) // =======================================================
(PID.TID 0000.0001) %MON time_tsnumber                =                     3
(PID.TID 0000.0001) %MON time_secondsf                =   2.7000000000000E+03
(PID.TID 0000.0001) %MON dynstat_eta_max              =   8.3110924377017E+00
(PID.TID 0000.0001) %MON dynstat_eta_min              =  -1.0435629337023E+00
(PID.TID 0000.0001) %MON dynstat_eta_mean             =   1.2568823437450E-02
(PID.TID 0000.0001) %MON dynstat_eta_sd               =   2.4184266549671E-01
(PID.TID 0000.0001) %MON dynstat_eta_del2             =   7.4621789043797E-03
(PID.TID 0000.0001) %MON dynstat_uvel_max             =   8.2603442398960E-01
(PID.TID 0000.0001) %MON dynstat_uvel_min             =  -4.4411240181331E-01
(PID.TID 0000.0001) %MON dynstat_uvel_mean            =   5.6769601377855E-05
(PID.TID 0000.0001) %MON dynstat_uvel_sd              =   5.2673881305728E-03
(PID.TID 0000.0001) %MON dynstat_uvel_del2            =   1.1696403821121E-04
(PID.TID 0000.0001) %MON dynstat_vvel_max             =   7.5241820683092E-01
(PID.TID 0000.0001) %MON dynstat_vvel_min             =  -6.9358401413460E-01
(PID.TID 0000.0001) %MON dynstat_vvel_mean            =  -6.0386883829222E-06
(PID.TID 0000.0001) %MON dynstat_vvel_sd              =   5.6164234284547E-03
(PID.TID 0000.0001) %MON dynstat_vvel_del2            =   1.4120446114380E-04
(PID.TID 0000.0001) %MON dynstat_wvel_max             =   1.7910045110157E-04
(PID.TID 0000.0001) %MON dynstat_wvel_min             =  -9.0111279095988E-04
(PID.TID 0000.0001) %MON dynstat_wvel_mean            =  -5.2820669929554E-07
(PID.TID 0000.0001) %MON dynstat_wvel_sd              =   1.2507498471737E-05
(PID.TID 0000.0001) %MON dynstat_wvel_del2            =   1.1424871021584E-07
(PID.TID 0000.0001) %MON dynstat_theta_max            =   2.0292605639117E+01
(PID.TID 0000.0001) %MON dynstat_theta_min            =   1.6457993463627E+01
(PID.TID 0000.0001) %MON dynstat_theta_mean           =   1.9997638381163E+01
(PID.TID 0000.0001) %MON dynstat_theta_sd             =   2.1638601347862E-02
(PID.TID 0000.0001) %MON dynstat_theta_del2           =   3.4866424898888E-04
(PID.TID 0000.0001) %MON dynstat_salt_max             =   3.5102618477620E+01
(PID.TID 0000.0001) %MON dynstat_salt_min             =   3.3980550629254E+01
(PID.TID 0000.0001) %MON dynstat_salt_mean            =   3.4999903791638E+01
(PID.TID 0000.0001) %MON dynstat_salt_sd              =   4.1444761779380E-03
(PID.TID 0000.0001) %MON dynstat_salt_del2            =   1.2876804984395E-04
(PID.TID 0000.0001) %MON dynstat_sst_max              =   2.0292605639117E+01
(PID.TID 0000.0001) %MON dynstat_sst_min              =   1.6457993463627E+01
(PID.TID 0000.0001) %MON dynstat_sst_mean             =   1.9957598252454E+01
(PID.TID 0000.0001) %MON dynstat_sst_sd               =   1.3838215148882E-01
(PID.TID 0000.0001) %MON dynstat_sst_del2             =   3.2228003572519E-03
(PID.TID 0000.0001) %MON dynstat_sss_max              =   3.5102618477620E+01
(PID.TID 0000.0001) %MON dynstat_sss_min              =   3.3980550629254E+01
(PID.TID 0000.0001) %MON dynstat_sss_mean             =   3.4995981449109E+01
(PID.TID 0000.0001) %MON dynstat_sss_sd               =   4.4746831578429E-02
(PID.TID 0000.0001) %MON dynstat_sss_del2             =   1.7085868710059E-03
(PID.TID 0000.0001) %MON forcing_qnet_max             =   2.7809222656250E+04
(PID.TID 0000.0001) %MON forcing_qnet_min             =  -1.9011500000000E+04
(PID.TID 0000.0001) %MON forcing_qnet_mean            =   1.5834321398673E+03
(PID.TID 0000.0001) %MON forcing_qnet_sd              =   4.0490044101757E+03
(PID.TID 0000.0001) %MON forcing_qnet_del2            =   4.5404829770549E+01
(PID.TID 0000.0001) %MON forcing_qsw_max              =   0.0000000000000E+00
(PID.TID 0000.0001) %MON forcing_qsw_min              =   0.0000000000000E+00
(PID.TID 0000.0001) %MON forcing_qsw_mean             =   0.0000000000000E+00
(PID.TID 0000.0001) %MON forcing_qsw_sd               =   0.0000000000000E+00
(PID.TID 0000.0001) %MON forcing_qsw_del2             =   0.0000000000000E+00
(PID.TID 0000.0001) %MON forcing_empmr_max            =   3.9444744586945E-02
(PID.TID 0000.0001) %MON forcing_empmr_min            =  -1.5616573393345E-01
(PID.TID 0000.0001) %MON forcing_empmr_mean           =  -7.3518986554386E-04
(PID.TID 0000.0001) %MON forcing_empmr_sd             =   7.3041223025600E-03
(PID.TID 0000.0001) %MON forcing_empmr_del2           =   3.0009792950824E-04
(PID.TID 0000.0001) %MON forcing_fu_max               =   8.2970246135020E-01
(PID.TID 0000.0001) %MON forcing_fu_min               =  -5.6404536792660E-01
(PID.TID 0000.0001) %MON forcing_fu_mean              =  -3.8208167712183E-03
(PID.TID 0000.0001) %MON forcing_fu_sd                =   1.0393145390277E-01
(PID.TID 0000.0001) %MON forcing_fu_del2              =   9.5981337028462E-04
(PID.TID 0000.0001) %MON forcing_fv_max               =   4.7041037635655E-01
(PID.TID 0000.0001) %MON forcing_fv_min               =  -6.4990335949920E-01
(PID.TID 0000.0001) %MON forcing_fv_mean              =  -1.1306790118436E-02
(PID.TID 0000.0001) %MON forcing_fv_sd                =   9.1796782636941E-02
(PID.TID 0000.0001) %MON forcing_fv_del2              =   8.2087607273489E-04
(PID.TID 0000.0001) %MON trAdv_CFL_u_max              =   3.0272197538679E-03
(PID.TID 0000.0001) %MON trAdv_CFL_v_max              =   4.1855157380214E-03
(PID.TID 0000.0001) %MON trAdv_CFL_w_max              =   8.2050182021447E-03
(PID.TID 0000.0001) %MON advcfl_uvel_max              =   2.7546320348061E-03
(PID.TID 0000.0001) %MON advcfl_vvel_max              =   2.4554150686627E-03
(PID.TID 0000.0001) %MON advcfl_wvel_max              =   1.0863703230153E-02
(PID.TID 0000.0001) %MON advcfl_W_hf_max              =   8.2050182021447E-03
(PID.TID 0000.0001) %MON pe_b_mean                    =   7.8126856826650E-05
(PID.TID 0000.0001) %MON ke_max                       =   3.2618951626546E-01
(PID.TID 0000.0001) %MON ke_mean                      =   2.7381521062847E-05
(PID.TID 0000.0001) %MON ke_vol                       =   1.3398067863597E+18
(PID.TID 0000.0001) %MON vort_r_min                   =  -2.6145705985215E-06
(PID.TID 0000.0001) %MON vort_r_max                   =   2.6308924594468E-06
(PID.TID 0000.0001) %MON vort_a_mean                  =  -2.0549865324846E-05
(PID.TID 0000.0001) %MON vort_a_sd                    =   7.5259267195515E-05
(PID.TID 0000.0001) %MON vort_p_mean                  =  -2.4783462193429E-05
(PID.TID 0000.0001) %MON vort_p_sd                    =   1.2810634265993E-04
(PID.TID 0000.0001) %MON surfExpan_theta_mean         =   1.1043570946090E-06
(PID.TID 0000.0001) %MON surfExpan_salt_mean          =   3.2145260599157E-07
(PID.TID 0000.0001) // =======================================================
(PID.TID 0000.0001) // End MONITOR dynamic field statistics
(PID.TID 0000.0001) // =======================================================
 Computing Diagnostic #     81  oceTAUX      Counter:       1   Parms: UU      U1      
           Vector  Mate for  oceTAUX      Diagnostic #     82  oceTAUY  exists 
(PID.TID 0000.0001)  MDS_WRITE_FIELD: it,rec,kS,kL,kH=       2    -1  32   1   1 file=oceTAUX.0000000002
 Computing Diagnostic #     82  oceTAUY      Counter:       1   Parms: VV      U1      
           Vector  Mate for  oceTAUY      Diagnostic #     81  oceTAUX  exists 
(PID.TID 0000.0001)  MDS_WRITE_FIELD: it,rec,kS,kL,kH=       2    -1  32   1   1 file=oceTAUY.0000000002
 Computing Diagnostic #     85  oceFWflx     Counter:       1   Parms: SM      U1      
(PID.TID 0000.0001)  MDS_WRITE_FIELD: it,rec,kS,kL,kH=       2    -1  32   1   1 file=oceFWflx.0000000002
 Computing Diagnostic #     86  oceSflux     Counter:       1   Parms: SM      U1      
(PID.TID 0000.0001)  MDS_WRITE_FIELD: it,rec,kS,kL,kH=       2    -1  32   1   1 file=oceSflux.0000000002
 Computing Diagnostic #     87  oceQnet      Counter:       1   Parms: SM      U1      
(PID.TID 0000.0001)  MDS_WRITE_FIELD: it,rec,kS,kL,kH=       2    -1  32   1   1 file=oceQnet.0000000002
 Computing Diagnostic #     88  oceQsw       Counter:       1   Parms: SM      U1      
(PID.TID 0000.0001)  MDS_WRITE_FIELD: it,rec,kS,kL,kH=       2    -1  32   1   1 file=oceQsw.0000000002
 Computing Diagnostic #     27  SALT         Counter:       1   Parms: SMR     MR      
(PID.TID 0000.0001)  MDS_WRITE_FIELD: it,rec,kS,kL,kH=       2    -1  32   1   1 file=SSS.0000000002
 Computing Diagnostic #     26  THETA        Counter:       1   Parms: SMR     MR      
(PID.TID 0000.0001)  MDS_WRITE_FIELD: it,rec,kS,kL,kH=       2    -1  32   1   1 file=SST.0000000002
 Computing Diagnostic #     45  UVELMASS     Counter:       1   Parms: UUr     MR      
           Vector  Mate for  UVELMASS     Diagnostic #     46  VVELMASS exists 
(PID.TID 0000.0001)  MDS_WRITE_FIELD: it,rec,kS,kL,kH=       2    -1  32   1   1 file=UVEL1.0000000002
 Computing Diagnostic #     46  VVELMASS     Counter:       1   Parms: VVr     MR      
           Vector  Mate for  VVELMASS     Diagnostic #     45  UVELMASS exists 
(PID.TID 0000.0001)  MDS_WRITE_FIELD: it,rec,kS,kL,kH=       2    -1  32   1   1 file=VVEL1.0000000002
 Computing Diagnostic #     83  atmPload     Counter:       1   Parms: SM      U1      
(PID.TID 0000.0001)  MDS_WRITE_FIELD: it,rec,kS,kL,kH=       2    -1  32   1   1 file=atmPload.0000000002
(PID.TID 0000.0001)  write diagnostics summary to file: diagnostics_status.0000000003.txt
(PID.TID 0000.0001) DEBUG_MSG: LEAVING S/R FORWARD_STEP
(PID.TID 0000.0001) DEBUG_MSG: ENTERED S/R FORWARD_STEP
(PID.TID 0000.0001) DEBUG_MSG: CALLING S/R LOAD_FIELDS_DRIVER
(PID.TID 0000.0001) DEBUG_MSG: ENTERED S/R LOAD_FIELDS_DRIVER
(PID.TID 0000.0001) DEBUG_MSG: CALLING S/R EXTERNAL_FIELDS_LOAD
(PID.TID 0000.0001) DEBUG_MSG: LEAVING S/R LOAD_FIELDS_DRIVER
(PID.TID 0000.0001) DEBUG_MSG: CALLING S/R DO_ATMOSPHERIC_PHYS
(PID.TID 0000.0001) DEBUG_MSG: ENTERED S/R DO_ATMOSPHERIC_PHYS
(PID.TID 0000.0001) DEBUG_MSG: LEAVING S/R DO_ATMOSPHERIC_PHYS
(PID.TID 0000.0001) DEBUG_MSG: CALLING S/R DO_OCEANIC_PHYS
(PID.TID 0000.0001) DEBUG_MSG: ENTERED S/R DO_OCEANIC_PHYS
(PID.TID 0000.0001) DEBUG_MSG: CALLING S/R EXTERNAL_FORCING_SURF
(PID.TID 0000.0001) DEBUG_MSG: CALLING S/R FIND_RHO_2D (xNr)
(PID.TID 0000.0001) DEBUG_MSG:                  ENTERING UPWARD K LOOP (bi=   1, bj=   1)
(PID.TID 0000.0001) DEBUG_MSG: CALLING S/R GRAD_SIGMA
(PID.TID 0000.0001) DEBUG_MSG: CALLING S/R CALC_IVDC
(PID.TID 0000.0001) DEBUG_MSG: CALLING S/R GRAD_SIGMA
(PID.TID 0000.0001) DEBUG_MSG: CALLING S/R CALC_IVDC
(PID.TID 0000.0001) DEBUG_MSG: CALLING S/R GRAD_SIGMA
(PID.TID 0000.0001) DEBUG_MSG: CALLING S/R CALC_IVDC
(PID.TID 0000.0001) DEBUG_MSG: CALLING S/R GRAD_SIGMA
(PID.TID 0000.0001) DEBUG_MSG: CALLING S/R CALC_IVDC
(PID.TID 0000.0001) DEBUG_MSG: CALLING S/R GRAD_SIGMA
(PID.TID 0000.0001) DEBUG_MSG: CALLING S/R CALC_IVDC
(PID.TID 0000.0001) DEBUG_MSG: CALLING S/R GRAD_SIGMA
(PID.TID 0000.0001) DEBUG_MSG: CALLING S/R CALC_IVDC
(PID.TID 0000.0001) DEBUG_MSG: CALLING S/R GRAD_SIGMA
(PID.TID 0000.0001) DEBUG_MSG: CALLING S/R CALC_IVDC
(PID.TID 0000.0001) DEBUG_MSG: CALLING S/R GRAD_SIGMA
(PID.TID 0000.0001) DEBUG_MSG: CALLING S/R CALC_IVDC
(PID.TID 0000.0001) DEBUG_MSG: CALLING S/R GRAD_SIGMA
(PID.TID 0000.0001) DEBUG_MSG: CALLING S/R CALC_IVDC
(PID.TID 0000.0001) DEBUG_MSG: CALLING S/R GRAD_SIGMA
(PID.TID 0000.0001) DEBUG_MSG: CALLING S/R CALC_IVDC
(PID.TID 0000.0001) DEBUG_MSG: CALLING S/R GRAD_SIGMA
(PID.TID 0000.0001) DEBUG_MSG: CALLING S/R CALC_IVDC
(PID.TID 0000.0001) DEBUG_MSG: CALLING S/R GRAD_SIGMA
(PID.TID 0000.0001) DEBUG_MSG: CALLING S/R CALC_IVDC
(PID.TID 0000.0001) DEBUG_MSG: CALLING S/R GRAD_SIGMA
(PID.TID 0000.0001) DEBUG_MSG: CALLING S/R CALC_IVDC
(PID.TID 0000.0001) DEBUG_MSG: CALLING S/R GRAD_SIGMA
(PID.TID 0000.0001) DEBUG_MSG: CALLING S/R CALC_IVDC
(PID.TID 0000.0001) DEBUG_MSG: CALLING S/R GRAD_SIGMA
(PID.TID 0000.0001) DEBUG_MSG: CALLING S/R CALC_IVDC
(PID.TID 0000.0001) DEBUG_MSG: CALLING S/R GRAD_SIGMA
(PID.TID 0000.0001) DEBUG_MSG: CALLING S/R GMREDI_CALC_TENSOR
(PID.TID 0000.0001) DEBUG_MSG: LEAVING S/R DO_OCEANIC_PHYS
(PID.TID 0000.0001) DEBUG_MSG: CALLING S/R DYNAMICS
(PID.TID 0000.0001) DEBUG_MSG: ENTERED S/R DYNAMICS
DEBUG_STATS_RL:                EtaN (DYNAMICS)  min= -1.04356293370226E+00
DEBUG_STATS_RL:                EtaN (DYNAMICS)  max=  8.31109243770170E+00
DEBUG_STATS_RL:                EtaN (DYNAMICS) mean=  1.29142534351058E-02
DEBUG_STATS_RL:                EtaN (DYNAMICS) S.D.=  2.45413329395262E-01
DEBUG_STATS_RL:                Uvel (DYNAMICS)  min= -4.44112401813309E-01
DEBUG_STATS_RL:                Uvel (DYNAMICS)  max=  8.26034423989598E-01
DEBUG_STATS_RL:                Uvel (DYNAMICS) mean=  2.27793714481926E-04
DEBUG_STATS_RL:                Uvel (DYNAMICS) S.D.=  1.31780489935943E-02
DEBUG_STATS_RL:                Vvel (DYNAMICS)  min= -6.93584014134601E-01
DEBUG_STATS_RL:                Vvel (DYNAMICS)  max=  7.52418206830921E-01
DEBUG_STATS_RL:                Vvel (DYNAMICS) mean= -4.53738698274760E-05
DEBUG_STATS_RL:                Vvel (DYNAMICS) S.D.=  1.34780473199639E-02
DEBUG_STATS_RL:                Wvel (DYNAMICS)  min= -9.01112790959879E-04
DEBUG_STATS_RL:                Wvel (DYNAMICS)  max=  1.79100451101566E-04
DEBUG_STATS_RL:                Wvel (DYNAMICS) mean= -6.73224630790427E-07
DEBUG_STATS_RL:                Wvel (DYNAMICS) S.D.=  1.31040668263137E-05
DEBUG_STATS_RL:               Theta (DYNAMICS)  min=  1.64579934636272E+01
DEBUG_STATS_RL:               Theta (DYNAMICS)  max=  2.02926056391167E+01
DEBUG_STATS_RL:               Theta (DYNAMICS) mean=  1.99879597689952E+01
DEBUG_STATS_RL:               Theta (DYNAMICS) S.D.=  5.81515860364457E-02
DEBUG_STATS_RL:                Salt (DYNAMICS)  min=  3.39805506292542E+01
DEBUG_STATS_RL:                Salt (DYNAMICS)  max=  3.51026184776196E+01
DEBUG_STATS_RL:                Salt (DYNAMICS) mean=  3.49994526199152E+01
DEBUG_STATS_RL:                Salt (DYNAMICS) S.D.=  1.29131682696355E-02
DEBUG_STATS_RL:                  Gu (DYNAMICS)  min= -4.19260924735561E-01
DEBUG_STATS_RL:                  Gu (DYNAMICS)  max=  8.50545157653984E-01
DEBUG_STATS_RL:                  Gu (DYNAMICS) mean=  2.36542855697634E-04
DEBUG_STATS_RL:                  Gu (DYNAMICS) S.D.=  1.33300370181048E-02
DEBUG_STATS_RL:                  Gv (DYNAMICS)  min= -6.92174488336328E-01
DEBUG_STATS_RL:                  Gv (DYNAMICS)  max=  7.13185071177524E-01
DEBUG_STATS_RL:                  Gv (DYNAMICS) mean= -8.74780082271053E-05
DEBUG_STATS_RL:                  Gv (DYNAMICS) S.D.=  1.31801544848293E-02
DEBUG_STATS_RL:               GuNm1 (DYNAMICS)  min= -2.09370948751910E-05
DEBUG_STATS_RL:               GuNm1 (DYNAMICS)  max=  3.47438941696668E-05
DEBUG_STATS_RL:               GuNm1 (DYNAMICS) mean=  6.44439091183259E-09
DEBUG_STATS_RL:               GuNm1 (DYNAMICS) S.D.=  1.29305119881172E-06
DEBUG_STATS_RL:               GvNm1 (DYNAMICS)  min= -6.05890339269536E-05
DEBUG_STATS_RL:               GvNm1 (DYNAMICS)  max=  2.57272783111668E-05
DEBUG_STATS_RL:               GvNm1 (DYNAMICS) mean= -4.55216220521637E-08
DEBUG_STATS_RL:               GvNm1 (DYNAMICS) S.D.=  1.24719327057958E-06
DEBUG_STATS_RL:               GtNm1 (DYNAMICS)  min= -1.10056499390697E-05
DEBUG_STATS_RL:               GtNm1 (DYNAMICS)  max=  4.08055198943672E-07
DEBUG_STATS_RL:               GtNm1 (DYNAMICS) mean= -2.89353643345622E-09
DEBUG_STATS_RL:               GtNm1 (DYNAMICS) S.D.=  1.17053614443567E-07
DEBUG_STATS_RL:               GsNm1 (DYNAMICS)  min= -2.04297007091012E-06
DEBUG_STATS_RL:               GsNm1 (DYNAMICS)  max=  2.78004751446442E-07
DEBUG_STATS_RL:               GsNm1 (DYNAMICS) mean= -6.70738613132789E-10
DEBUG_STATS_RL:               GsNm1 (DYNAMICS) S.D.=  2.44872232081325E-08
(PID.TID 0000.0001) DEBUG_MSG: LEAVING S/R DYNAMICS
DEBUG_STATS_RL:    cg2d_b (SOLVE_FOR_PRESSURE)  min= -8.39216191805523E+05
DEBUG_STATS_RL:    cg2d_b (SOLVE_FOR_PRESSURE)  max=  1.08359569742738E+05
DEBUG_STATS_RL:    cg2d_b (SOLVE_FOR_PRESSURE) mean= -1.33377297930567E+03
DEBUG_STATS_RL:    cg2d_b (SOLVE_FOR_PRESSURE) S.D.=  2.27490314127757E+04
 cg2d: Sum(rhs),rhsMax =  -7.02474121221102E+00  1.60764988181950E+02
(PID.TID 0000.0001)  cg2d: iter=     1 ; resid.=  1.58497159903725E-02
(PID.TID 0000.0001)  cg2d: iter=     2 ; resid.=  2.94318667351768E-03
(PID.TID 0000.0001)  cg2d: iter=     3 ; resid.=  6.12541496636604E-04
(PID.TID 0000.0001)  cg2d: iter=     4 ; resid.=  9.65759500570918E-05
(PID.TID 0000.0001)  cg2d: iter=     5 ; resid.=  1.68088245672684E-05
(PID.TID 0000.0001)  cg2d: iter=     6 ; resid.=  4.36750358164480E-06
(PID.TID 0000.0001)  cg2d: iter=     7 ; resid.=  1.63446351030828E-06
(PID.TID 0000.0001)  cg2d: iter=     8 ; resid.=  3.76642883281853E-07
(PID.TID 0000.0001)  cg2d: iter=     9 ; resid.=  6.46716056114126E-08
DEBUG_STATS_RL:    cg2d_x (SOLVE_FOR_PRESSURE)  min= -9.55572812528840E+00
DEBUG_STATS_RL:    cg2d_x (SOLVE_FOR_PRESSURE)  max=  7.63665627790604E+01
DEBUG_STATS_RL:    cg2d_x (SOLVE_FOR_PRESSURE) mean=  1.32322155577721E-01
DEBUG_STATS_RL:    cg2d_x (SOLVE_FOR_PRESSURE) S.D.=  2.18254764685483E+00
(PID.TID 0000.0001)      cg2d_init_res =   4.10114817062218E-01
(PID.TID 0000.0001)      cg2d_iters(min,last) =      -1       9
(PID.TID 0000.0001)      cg2d_last_res =   6.46716056114126E-08
(PID.TID 0000.0001) DEBUG_MSG: CALLING S/R UPDATE_ETAH
(PID.TID 0000.0001) DEBUG_MSG: ENTERED S/R CALC_R_STAR
(PID.TID 0000.0001) DEBUG_MSG: LEAVING S/R CALC_R_STAR
(PID.TID 0000.0001) DEBUG_MSG: CALLING S/R DO_STAGGER_FIELDS_EXCH.
(PID.TID 0000.0001) DEBUG_MSG: CALLING S/R THERMODYNAMICS
(PID.TID 0000.0001) DEBUG_MSG: ENTERED S/R THERMODYNAMICS
(PID.TID 0000.0001) DEBUG_MSG: CALLING S/R TEMP_INTEGRATE
(PID.TID 0000.0001) DEBUG_MSG: CALLING S/R SALT_INTEGRATE
DEBUG_STATS_RL:          Uvel (THERMODYNAMICS)  min= -4.49554289086479E-01
DEBUG_STATS_RL:          Uvel (THERMODYNAMICS)  max=  1.07496988899473E+00
DEBUG_STATS_RL:          Uvel (THERMODYNAMICS) mean=  3.07250772638606E-04
DEBUG_STATS_RL:          Uvel (THERMODYNAMICS) S.D.=  1.59211599683701E-02
DEBUG_STATS_RL:          Vvel (THERMODYNAMICS)  min= -8.98953204353841E-01
DEBUG_STATS_RL:          Vvel (THERMODYNAMICS)  max=  9.52319844560715E-01
DEBUG_STATS_RL:          Vvel (THERMODYNAMICS) mean= -7.01574953343933E-05
DEBUG_STATS_RL:          Vvel (THERMODYNAMICS) S.D.=  1.62605337916040E-02
DEBUG_STATS_RL:          Wvel (THERMODYNAMICS)  min= -9.98187457898146E-04
DEBUG_STATS_RL:          Wvel (THERMODYNAMICS)  max=  2.02949455245937E-04
DEBUG_STATS_RL:          Wvel (THERMODYNAMICS) mean= -7.25868937155581E-07
DEBUG_STATS_RL:          Wvel (THERMODYNAMICS) S.D.=  1.43165578976627E-05
DEBUG_STATS_RL:         Theta (THERMODYNAMICS)  min=  1.64440072376530E+01
DEBUG_STATS_RL:         Theta (THERMODYNAMICS)  max=  2.03397216804875E+01
DEBUG_STATS_RL:         Theta (THERMODYNAMICS) mean=  1.99896311806482E+01
DEBUG_STATS_RL:         Theta (THERMODYNAMICS) S.D.=  5.45352976106161E-02
DEBUG_STATS_RL:          Salt (THERMODYNAMICS)  min=  3.36598663606176E+01
DEBUG_STATS_RL:          Salt (THERMODYNAMICS)  max=  3.50995426333286E+01
DEBUG_STATS_RL:          Salt (THERMODYNAMICS) mean=  3.49994361076846E+01
DEBUG_STATS_RL:          Salt (THERMODYNAMICS) S.D.=  1.59606176410240E-02
DEBUG_STATS_RL:         GtNm1 (THERMODYNAMICS)  min= -1.40591143490379E-05
DEBUG_STATS_RL:         GtNm1 (THERMODYNAMICS)  max=  6.06646613881139E-07
DEBUG_STATS_RL:         GtNm1 (THERMODYNAMICS) mean= -3.40798963122704E-09
DEBUG_STATS_RL:         GtNm1 (THERMODYNAMICS) S.D.=  1.48513849373715E-07
DEBUG_STATS_RL:         GsNm1 (THERMODYNAMICS)  min= -3.00560759714495E-06
DEBUG_STATS_RL:         GsNm1 (THERMODYNAMICS)  max=  4.06816684501456E-07
DEBUG_STATS_RL:         GsNm1 (THERMODYNAMICS) mean= -9.23170298650670E-10
DEBUG_STATS_RL:         GsNm1 (THERMODYNAMICS) S.D.=  3.56371701534403E-08
(PID.TID 0000.0001) DEBUG_MSG: LEAVING S/R THERMODYNAMICS
(PID.TID 0000.0001) // =======================================================
(PID.TID 0000.0001) // Begin MONITOR dynamic field statistics
(PID.TID 0000.0001) // =======================================================
(PID.TID 0000.0001) %MON time_tsnumber                =                     4
(PID.TID 0000.0001) %MON time_secondsf                =   3.6000000000000E+03
(PID.TID 0000.0001) %MON dynstat_eta_max              =   7.7845629723311E+00
(PID.TID 0000.0001) %MON dynstat_eta_min              =  -9.7408033867931E-01
(PID.TID 0000.0001) %MON dynstat_eta_mean             =   1.3122693212756E-02
(PID.TID 0000.0001) %MON dynstat_eta_sd               =   2.1991520302394E-01
(PID.TID 0000.0001) %MON dynstat_eta_del2             =   6.4596544579777E-03
(PID.TID 0000.0001) %MON dynstat_uvel_max             =   1.0749698889947E+00
(PID.TID 0000.0001) %MON dynstat_uvel_min             =  -4.4955428908648E-01
(PID.TID 0000.0001) %MON dynstat_uvel_mean            =   8.9742793174583E-05
(PID.TID 0000.0001) %MON dynstat_uvel_sd              =   6.0668305828589E-03
(PID.TID 0000.0001) %MON dynstat_uvel_del2            =   1.3545487131212E-04
(PID.TID 0000.0001) %MON dynstat_vvel_max             =   9.5231984456072E-01
(PID.TID 0000.0001) %MON dynstat_vvel_min             =  -8.9895320435384E-01
(PID.TID 0000.0001) %MON dynstat_vvel_mean            =  -7.2993942117351E-06
(PID.TID 0000.0001) %MON dynstat_vvel_sd              =   6.5042315008047E-03
(PID.TID 0000.0001) %MON dynstat_vvel_del2            =   1.7047333199604E-04
(PID.TID 0000.0001) %MON dynstat_wvel_max             =   2.0294945524594E-04
(PID.TID 0000.0001) %MON dynstat_wvel_min             =  -9.9818745789815E-04
(PID.TID 0000.0001) %MON dynstat_wvel_mean            =  -6.0359741083480E-07
(PID.TID 0000.0001) %MON dynstat_wvel_sd              =   1.3725669149514E-05
(PID.TID 0000.0001) %MON dynstat_wvel_del2            =   1.2216442366829E-07
(PID.TID 0000.0001) %MON dynstat_theta_max            =   2.0339721680488E+01
(PID.TID 0000.0001) %MON dynstat_theta_min            =   1.6444007237653E+01
(PID.TID 0000.0001) %MON dynstat_theta_mean           =   1.9997634800420E+01
(PID.TID 0000.0001) %MON dynstat_theta_sd             =   2.0502606237402E-02
(PID.TID 0000.0001) %MON dynstat_theta_del2           =   3.5424355401008E-04
(PID.TID 0000.0001) %MON dynstat_salt_max             =   3.5099542633329E+01
(PID.TID 0000.0001) %MON dynstat_salt_min             =   3.3659866360618E+01
(PID.TID 0000.0001) %MON dynstat_salt_mean            =   3.4999897687782E+01
(PID.TID 0000.0001) %MON dynstat_salt_sd              =   5.0561107591616E-03
(PID.TID 0000.0001) %MON dynstat_salt_del2            =   1.6638389960908E-04
(PID.TID 0000.0001) %MON dynstat_sst_max              =   2.0339721680488E+01
(PID.TID 0000.0001) %MON dynstat_sst_min              =   1.6444007237653E+01
(PID.TID 0000.0001) %MON dynstat_sst_mean             =   1.9973773848799E+01
(PID.TID 0000.0001) %MON dynstat_sst_sd               =   1.3119991689003E-01
(PID.TID 0000.0001) %MON dynstat_sst_del2             =   3.2884445657298E-03
(PID.TID 0000.0001) %MON dynstat_sss_max              =   3.5099542633329E+01
(PID.TID 0000.0001) %MON dynstat_sss_min              =   3.3659866360618E+01
(PID.TID 0000.0001) %MON dynstat_sss_mean             =   3.4995690273010E+01
(PID.TID 0000.0001) %MON dynstat_sss_sd               =   5.7171299141920E-02
(PID.TID 0000.0001) %MON dynstat_sss_del2             =   2.2274664361775E-03
(PID.TID 0000.0001) %MON forcing_qnet_max             =   1.3424925000000E+05
(PID.TID 0000.0001) %MON forcing_qnet_min             =  -1.5677450195312E+04
(PID.TID 0000.0001) %MON forcing_qnet_mean            =   5.8568252255759E+01
(PID.TID 0000.0001) %MON forcing_qnet_sd              =   2.9079429753803E+03
(PID.TID 0000.0001) %MON forcing_qnet_del2            =   1.1005097090268E+02
(PID.TID 0000.0001) %MON forcing_qsw_max              =   0.0000000000000E+00
(PID.TID 0000.0001) %MON forcing_qsw_min              =   0.0000000000000E+00
(PID.TID 0000.0001) %MON forcing_qsw_mean             =   0.0000000000000E+00
(PID.TID 0000.0001) %MON forcing_qsw_sd               =   0.0000000000000E+00
(PID.TID 0000.0001) %MON forcing_qsw_del2             =   0.0000000000000E+00
(PID.TID 0000.0001) %MON forcing_empmr_max            =   1.0755232535303E-02
(PID.TID 0000.0001) %MON forcing_empmr_min            =  -1.7035976052284E-01
(PID.TID 0000.0001) %MON forcing_empmr_mean           =  -6.3695024160109E-04
(PID.TID 0000.0001) %MON forcing_empmr_sd             =   7.1671635214653E-03
(PID.TID 0000.0001) %MON forcing_empmr_del2           =   2.9999051288751E-04
(PID.TID 0000.0001) %MON forcing_fu_max               =   8.6564349538821E-01
(PID.TID 0000.0001) %MON forcing_fu_min               =  -5.7337492622149E-01
(PID.TID 0000.0001) %MON forcing_fu_mean              =  -3.3990639422140E-03
(PID.TID 0000.0001) %MON forcing_fu_sd                =   1.0807629593206E-01
(PID.TID 0000.0001) %MON forcing_fu_del2              =   9.8985643409879E-04
(PID.TID 0000.0001) %MON forcing_fv_max               =   4.8506440597503E-01
(PID.TID 0000.0001) %MON forcing_fv_min               =  -6.1877921738742E-01
(PID.TID 0000.0001) %MON forcing_fv_mean              =  -1.0312096515824E-02
(PID.TID 0000.0001) %MON forcing_fv_sd                =   9.3946907527540E-02
(PID.TID 0000.0001) %MON forcing_fv_del2              =   8.4344142231838E-04
(PID.TID 0000.0001) %MON trAdv_CFL_u_max              =   3.3647728221103E-03
(PID.TID 0000.0001) %MON trAdv_CFL_v_max              =   5.1389645859988E-03
(PID.TID 0000.0001) %MON trAdv_CFL_w_max              =   1.0194920993593E-02
(PID.TID 0000.0001) %MON advcfl_uvel_max              =   3.5847737172684E-03
(PID.TID 0000.0001) %MON advcfl_vvel_max              =   3.1077670307443E-03
(PID.TID 0000.0001) %MON advcfl_wvel_max              =   1.1851113775502E-02
(PID.TID 0000.0001) %MON advcfl_W_hf_max              =   1.0194920993593E-02
(PID.TID 0000.0001) %MON pe_b_mean                    =   6.4657237271170E-05
(PID.TID 0000.0001) %MON ke_max                       =   5.4155497202646E-01
(PID.TID 0000.0001) %MON ke_mean                      =   3.6538754067872E-05
(PID.TID 0000.0001) %MON ke_vol                       =   1.3398070189909E+18
(PID.TID 0000.0001) %MON vort_r_min                   =  -3.2982898732125E-06
(PID.TID 0000.0001) %MON vort_r_max                   =   3.2978111485955E-06
(PID.TID 0000.0001) %MON vort_a_mean                  =  -2.0549865324846E-05
(PID.TID 0000.0001) %MON vort_a_sd                    =   7.5259269629699E-05
(PID.TID 0000.0001) %MON vort_p_mean                  =  -2.4783456313792E-05
(PID.TID 0000.0001) %MON vort_p_sd                    =   1.2810625843584E-04
(PID.TID 0000.0001) %MON surfExpan_theta_mean         =   1.3357110999489E-06
(PID.TID 0000.0001) %MON surfExpan_salt_mean          =   4.1333562385225E-07
(PID.TID 0000.0001) // =======================================================
(PID.TID 0000.0001) // End MONITOR dynamic field statistics
(PID.TID 0000.0001) // =======================================================
(PID.TID 0000.0001) DEBUG_MSG: LEAVING S/R FORWARD_STEP
(PID.TID 0000.0001) DEBUG_MSG: ENTERED S/R FORWARD_STEP
(PID.TID 0000.0001) DEBUG_MSG: CALLING S/R LOAD_FIELDS_DRIVER
(PID.TID 0000.0001) DEBUG_MSG: ENTERED S/R LOAD_FIELDS_DRIVER
(PID.TID 0000.0001) DEBUG_MSG: CALLING S/R EXTERNAL_FIELDS_LOAD
(PID.TID 0000.0001) DEBUG_MSG: LEAVING S/R LOAD_FIELDS_DRIVER
(PID.TID 0000.0001) DEBUG_MSG: CALLING S/R DO_ATMOSPHERIC_PHYS
(PID.TID 0000.0001) DEBUG_MSG: ENTERED S/R DO_ATMOSPHERIC_PHYS
(PID.TID 0000.0001) DEBUG_MSG: LEAVING S/R DO_ATMOSPHERIC_PHYS
(PID.TID 0000.0001) DEBUG_MSG: CALLING S/R DO_OCEANIC_PHYS
(PID.TID 0000.0001) DEBUG_MSG: ENTERED S/R DO_OCEANIC_PHYS
(PID.TID 0000.0001) DEBUG_MSG: CALLING S/R EXTERNAL_FORCING_SURF
(PID.TID 0000.0001) DEBUG_MSG: CALLING S/R FIND_RHO_2D (xNr)
(PID.TID 0000.0001) DEBUG_MSG:                  ENTERING UPWARD K LOOP (bi=   1, bj=   1)
(PID.TID 0000.0001) DEBUG_MSG: CALLING S/R GRAD_SIGMA
(PID.TID 0000.0001) DEBUG_MSG: CALLING S/R CALC_IVDC
(PID.TID 0000.0001) DEBUG_MSG: CALLING S/R GRAD_SIGMA
(PID.TID 0000.0001) DEBUG_MSG: CALLING S/R CALC_IVDC
(PID.TID 0000.0001) DEBUG_MSG: CALLING S/R GRAD_SIGMA
(PID.TID 0000.0001) DEBUG_MSG: CALLING S/R CALC_IVDC
(PID.TID 0000.0001) DEBUG_MSG: CALLING S/R GRAD_SIGMA
(PID.TID 0000.0001) DEBUG_MSG: CALLING S/R CALC_IVDC
(PID.TID 0000.0001) DEBUG_MSG: CALLING S/R GRAD_SIGMA
(PID.TID 0000.0001) DEBUG_MSG: CALLING S/R CALC_IVDC
(PID.TID 0000.0001) DEBUG_MSG: CALLING S/R GRAD_SIGMA
(PID.TID 0000.0001) DEBUG_MSG: CALLING S/R CALC_IVDC
(PID.TID 0000.0001) DEBUG_MSG: CALLING S/R GRAD_SIGMA
(PID.TID 0000.0001) DEBUG_MSG: CALLING S/R CALC_IVDC
(PID.TID 0000.0001) DEBUG_MSG: CALLING S/R GRAD_SIGMA
(PID.TID 0000.0001) DEBUG_MSG: CALLING S/R CALC_IVDC
(PID.TID 0000.0001) DEBUG_MSG: CALLING S/R GRAD_SIGMA
(PID.TID 0000.0001) DEBUG_MSG: CALLING S/R CALC_IVDC
(PID.TID 0000.0001) DEBUG_MSG: CALLING S/R GRAD_SIGMA
(PID.TID 0000.0001) DEBUG_MSG: CALLING S/R CALC_IVDC
(PID.TID 0000.0001) DEBUG_MSG: CALLING S/R GRAD_SIGMA
(PID.TID 0000.0001) DEBUG_MSG: CALLING S/R CALC_IVDC
(PID.TID 0000.0001) DEBUG_MSG: CALLING S/R GRAD_SIGMA
(PID.TID 0000.0001) DEBUG_MSG: CALLING S/R CALC_IVDC
(PID.TID 0000.0001) DEBUG_MSG: CALLING S/R GRAD_SIGMA
(PID.TID 0000.0001) DEBUG_MSG: CALLING S/R CALC_IVDC
(PID.TID 0000.0001) DEBUG_MSG: CALLING S/R GRAD_SIGMA
(PID.TID 0000.0001) DEBUG_MSG: CALLING S/R CALC_IVDC
(PID.TID 0000.0001) DEBUG_MSG: CALLING S/R GRAD_SIGMA
(PID.TID 0000.0001) DEBUG_MSG: CALLING S/R CALC_IVDC
(PID.TID 0000.0001) DEBUG_MSG: CALLING S/R GRAD_SIGMA
(PID.TID 0000.0001) DEBUG_MSG: CALLING S/R GMREDI_CALC_TENSOR
(PID.TID 0000.0001) DEBUG_MSG: LEAVING S/R DO_OCEANIC_PHYS
(PID.TID 0000.0001) DEBUG_MSG: CALLING S/R DYNAMICS
(PID.TID 0000.0001) DEBUG_MSG: ENTERED S/R DYNAMICS
DEBUG_STATS_RL:                EtaN (DYNAMICS)  min= -9.74080338679310E-01
DEBUG_STATS_RL:                EtaN (DYNAMICS)  max=  7.78456297233113E+00
DEBUG_STATS_RL:                EtaN (DYNAMICS) mean=  1.34884964862574E-02
DEBUG_STATS_RL:                EtaN (DYNAMICS) S.D.=  2.22481921244138E-01
DEBUG_STATS_RL:                Uvel (DYNAMICS)  min= -4.49554289086479E-01
DEBUG_STATS_RL:                Uvel (DYNAMICS)  max=  1.07496988899473E+00
DEBUG_STATS_RL:                Uvel (DYNAMICS) mean=  3.07250772638606E-04
DEBUG_STATS_RL:                Uvel (DYNAMICS) S.D.=  1.59211599683701E-02
DEBUG_STATS_RL:                Vvel (DYNAMICS)  min= -8.98953204353841E-01
DEBUG_STATS_RL:                Vvel (DYNAMICS)  max=  9.52319844560715E-01
DEBUG_STATS_RL:                Vvel (DYNAMICS) mean= -7.01574953343933E-05
DEBUG_STATS_RL:                Vvel (DYNAMICS) S.D.=  1.62605337916040E-02
DEBUG_STATS_RL:                Wvel (DYNAMICS)  min= -9.98187457898146E-04
DEBUG_STATS_RL:                Wvel (DYNAMICS)  max=  2.02949455245937E-04
DEBUG_STATS_RL:                Wvel (DYNAMICS) mean= -7.25868937155581E-07
DEBUG_STATS_RL:                Wvel (DYNAMICS) S.D.=  1.43165578976627E-05
DEBUG_STATS_RL:               Theta (DYNAMICS)  min=  1.64440072376530E+01
DEBUG_STATS_RL:               Theta (DYNAMICS)  max=  2.03397216804875E+01
DEBUG_STATS_RL:               Theta (DYNAMICS) mean=  1.99896311806482E+01
DEBUG_STATS_RL:               Theta (DYNAMICS) S.D.=  5.45352976106161E-02
DEBUG_STATS_RL:                Salt (DYNAMICS)  min=  3.36598663606176E+01
DEBUG_STATS_RL:                Salt (DYNAMICS)  max=  3.50995426333286E+01
DEBUG_STATS_RL:                Salt (DYNAMICS) mean=  3.49994361076846E+01
DEBUG_STATS_RL:                Salt (DYNAMICS) S.D.=  1.59606176410240E-02
DEBUG_STATS_RL:                  Gu (DYNAMICS)  min= -4.24253834647339E-01
DEBUG_STATS_RL:                  Gu (DYNAMICS)  max=  1.10417238160687E+00
DEBUG_STATS_RL:                  Gu (DYNAMICS) mean=  3.17986454387210E-04
DEBUG_STATS_RL:                  Gu (DYNAMICS) S.D.=  1.61115493281692E-02
DEBUG_STATS_RL:                  Gv (DYNAMICS)  min= -8.97839823285271E-01
DEBUG_STATS_RL:                  Gv (DYNAMICS)  max=  9.04378482992222E-01
DEBUG_STATS_RL:                  Gv (DYNAMICS) mean= -1.14408772424842E-04
DEBUG_STATS_RL:                  Gv (DYNAMICS) S.D.=  1.59121339003005E-02
DEBUG_STATS_RL:               GuNm1 (DYNAMICS)  min= -2.44266425906976E-05
DEBUG_STATS_RL:               GuNm1 (DYNAMICS)  max=  3.52061951909097E-05
DEBUG_STATS_RL:               GuNm1 (DYNAMICS) mean=  9.81721945203682E-09
DEBUG_STATS_RL:               GuNm1 (DYNAMICS) S.D.=  1.36960938140876E-06
DEBUG_STATS_RL:               GvNm1 (DYNAMICS)  min= -7.63765406279966E-05
DEBUG_STATS_RL:               GvNm1 (DYNAMICS)  max=  2.81850226050210E-05
DEBUG_STATS_RL:               GvNm1 (DYNAMICS) mean= -4.80433336258947E-08
DEBUG_STATS_RL:               GvNm1 (DYNAMICS) S.D.=  1.37704488320439E-06
DEBUG_STATS_RL:               GtNm1 (DYNAMICS)  min= -1.40591143490379E-05
DEBUG_STATS_RL:               GtNm1 (DYNAMICS)  max=  6.06646613881139E-07
DEBUG_STATS_RL:               GtNm1 (DYNAMICS) mean= -3.40798963122704E-09
DEBUG_STATS_RL:               GtNm1 (DYNAMICS) S.D.=  1.48513849373715E-07
DEBUG_STATS_RL:               GsNm1 (DYNAMICS)  min= -3.00560759714495E-06
DEBUG_STATS_RL:               GsNm1 (DYNAMICS)  max=  4.06816684501456E-07
DEBUG_STATS_RL:               GsNm1 (DYNAMICS) mean= -9.23170298650670E-10
DEBUG_STATS_RL:               GsNm1 (DYNAMICS) S.D.=  3.56371701534403E-08
(PID.TID 0000.0001) DEBUG_MSG: LEAVING S/R DYNAMICS
DEBUG_STATS_RL:    cg2d_b (SOLVE_FOR_PRESSURE)  min= -7.81731912364854E+05
DEBUG_STATS_RL:    cg2d_b (SOLVE_FOR_PRESSURE)  max=  1.34494040998204E+05
DEBUG_STATS_RL:    cg2d_b (SOLVE_FOR_PRESSURE) mean= -1.38691539955208E+03
DEBUG_STATS_RL:    cg2d_b (SOLVE_FOR_PRESSURE) S.D.=  2.09209800658017E+04
 cg2d: Sum(rhs),rhsMax =  -7.84177538240128E+00  1.49752975311887E+02
(PID.TID 0000.0001)  cg2d: iter=     1 ; resid.=  1.73581005721024E-02
(PID.TID 0000.0001)  cg2d: iter=     2 ; resid.=  3.21959497844101E-03
(PID.TID 0000.0001)  cg2d: iter=     3 ; resid.=  6.47984661441243E-04
(PID.TID 0000.0001)  cg2d: iter=     4 ; resid.=  1.13560956453352E-04
(PID.TID 0000.0001)  cg2d: iter=     5 ; resid.=  1.91907982256657E-05
(PID.TID 0000.0001)  cg2d: iter=     6 ; resid.=  6.26936645479338E-06
(PID.TID 0000.0001)  cg2d: iter=     7 ; resid.=  2.03334259198250E-06
(PID.TID 0000.0001)  cg2d: iter=     8 ; resid.=  3.96971797088332E-07
(PID.TID 0000.0001)  cg2d: iter=     9 ; resid.=  7.60703504775285E-08
DEBUG_STATS_RL:    cg2d_x (SOLVE_FOR_PRESSURE)  min= -9.35127007556916E+00
DEBUG_STATS_RL:    cg2d_x (SOLVE_FOR_PRESSURE)  max=  7.02047674402037E+01
DEBUG_STATS_RL:    cg2d_x (SOLVE_FOR_PRESSURE) mean=  1.37668159550728E-01
DEBUG_STATS_RL:    cg2d_x (SOLVE_FOR_PRESSURE) S.D.=  2.00096027279972E+00
(PID.TID 0000.0001)      cg2d_init_res =   4.04331964222699E-01
(PID.TID 0000.0001)      cg2d_iters(min,last) =      -1       9
(PID.TID 0000.0001)      cg2d_last_res =   7.60703504775285E-08
(PID.TID 0000.0001) DEBUG_MSG: CALLING S/R UPDATE_ETAH
(PID.TID 0000.0001) DEBUG_MSG: ENTERED S/R CALC_R_STAR
(PID.TID 0000.0001) DEBUG_MSG: LEAVING S/R CALC_R_STAR
(PID.TID 0000.0001) DEBUG_MSG: CALLING S/R DO_STAGGER_FIELDS_EXCH.
(PID.TID 0000.0001) DEBUG_MSG: CALLING S/R THERMODYNAMICS
(PID.TID 0000.0001) DEBUG_MSG: ENTERED S/R THERMODYNAMICS
(PID.TID 0000.0001) DEBUG_MSG: CALLING S/R TEMP_INTEGRATE
(PID.TID 0000.0001) DEBUG_MSG: CALLING S/R SALT_INTEGRATE
DEBUG_STATS_RL:          Uvel (THERMODYNAMICS)  min= -4.78662262278153E-01
DEBUG_STATS_RL:          Uvel (THERMODYNAMICS)  max=  1.29900265336371E+00
DEBUG_STATS_RL:          Uvel (THERMODYNAMICS) mean=  3.79617513845026E-04
DEBUG_STATS_RL:          Uvel (THERMODYNAMICS) S.D.=  1.80340655435578E-02
DEBUG_STATS_RL:          Vvel (THERMODYNAMICS)  min= -1.08273145455399E+00
DEBUG_STATS_RL:          Vvel (THERMODYNAMICS)  max=  1.12130875188082E+00
DEBUG_STATS_RL:          Vvel (THERMODYNAMICS) mean= -9.93277821524551E-05
DEBUG_STATS_RL:          Vvel (THERMODYNAMICS) S.D.=  1.83734019865617E-02
DEBUG_STATS_RL:          Wvel (THERMODYNAMICS)  min= -9.98766811886992E-04
DEBUG_STATS_RL:          Wvel (THERMODYNAMICS)  max=  1.86330414418944E-04
DEBUG_STATS_RL:          Wvel (THERMODYNAMICS) mean= -7.53839098065851E-07
DEBUG_STATS_RL:          Wvel (THERMODYNAMICS) S.D.=  1.43311856899932E-05
DEBUG_STATS_RL:         Theta (THERMODYNAMICS)  min=  1.64269300897737E+01
DEBUG_STATS_RL:         Theta (THERMODYNAMICS)  max=  2.03700832112972E+01
DEBUG_STATS_RL:         Theta (THERMODYNAMICS) mean=  1.99907872424418E+01
DEBUG_STATS_RL:         Theta (THERMODYNAMICS) S.D.=  5.30505348762839E-02
DEBUG_STATS_RL:          Salt (THERMODYNAMICS)  min=  3.33483156299683E+01
DEBUG_STATS_RL:          Salt (THERMODYNAMICS)  max=  3.51065838558912E+01
DEBUG_STATS_RL:          Salt (THERMODYNAMICS) mean=  3.49994063293989E+01
DEBUG_STATS_RL:          Salt (THERMODYNAMICS) S.D.=  1.91514325671344E-02
DEBUG_STATS_RL:         GtNm1 (THERMODYNAMICS)  min= -1.70675953954587E-05
DEBUG_STATS_RL:         GtNm1 (THERMODYNAMICS)  max=  8.01941949564686E-07
DEBUG_STATS_RL:         GtNm1 (THERMODYNAMICS) mean= -3.90727187101814E-09
DEBUG_STATS_RL:         GtNm1 (THERMODYNAMICS) S.D.=  1.77140191879039E-07
DEBUG_STATS_RL:         GsNm1 (THERMODYNAMICS)  min= -3.91893818435785E-06
DEBUG_STATS_RL:         GsNm1 (THERMODYNAMICS)  max=  5.85811416229304E-07
DEBUG_STATS_RL:         GsNm1 (THERMODYNAMICS) mean= -1.16936713760951E-09
DEBUG_STATS_RL:         GsNm1 (THERMODYNAMICS) S.D.=  4.64331131710647E-08
(PID.TID 0000.0001) DEBUG_MSG: LEAVING S/R THERMODYNAMICS
(PID.TID 0000.0001) // =======================================================
(PID.TID 0000.0001) // Begin MONITOR dynamic field statistics
(PID.TID 0000.0001) // =======================================================
(PID.TID 0000.0001) %MON time_tsnumber                =                     5
(PID.TID 0000.0001) %MON time_secondsf                =   4.5000000000000E+03
(PID.TID 0000.0001) %MON dynstat_eta_max              =   7.1564492790162E+00
(PID.TID 0000.0001) %MON dynstat_eta_min              =  -9.5323853265693E-01
(PID.TID 0000.0001) %MON dynstat_eta_mean             =   1.3645549567096E-02
(PID.TID 0000.0001) %MON dynstat_eta_sd               =   2.0192573255119E-01
(PID.TID 0000.0001) %MON dynstat_eta_del2             =   5.6758969356266E-03
(PID.TID 0000.0001) %MON dynstat_uvel_max             =   1.2990026533637E+00
(PID.TID 0000.0001) %MON dynstat_uvel_min             =  -4.7866226227815E-01
(PID.TID 0000.0001) %MON dynstat_uvel_mean            =   1.2576615730649E-04
(PID.TID 0000.0001) %MON dynstat_uvel_sd              =   6.5555180614499E-03
(PID.TID 0000.0001) %MON dynstat_uvel_del2            =   1.4742364427274E-04
(PID.TID 0000.0001) %MON dynstat_vvel_max             =   1.1213087518808E+00
(PID.TID 0000.0001) %MON dynstat_vvel_min             =  -1.0827314545540E+00
(PID.TID 0000.0001) %MON dynstat_vvel_mean            =  -8.9627081424466E-06
(PID.TID 0000.0001) %MON dynstat_vvel_sd              =   7.0410099416759E-03
(PID.TID 0000.0001) %MON dynstat_vvel_del2            =   1.9275517789455E-04
(PID.TID 0000.0001) %MON dynstat_wvel_max             =   1.8633041441894E-04
(PID.TID 0000.0001) %MON dynstat_wvel_min             =  -9.9876681188699E-04
(PID.TID 0000.0001) %MON dynstat_wvel_mean            =  -6.5091300072601E-07
(PID.TID 0000.0001) %MON dynstat_wvel_sd              =   1.3773741577870E-05
(PID.TID 0000.0001) %MON dynstat_wvel_del2            =   1.1821476106422E-07
(PID.TID 0000.0001) %MON dynstat_theta_max            =   2.0370083211297E+01
(PID.TID 0000.0001) %MON dynstat_theta_min            =   1.6426930089774E+01
(PID.TID 0000.0001) %MON dynstat_theta_mean           =   1.9997647194618E+01
(PID.TID 0000.0001) %MON dynstat_theta_sd             =   1.9901007328563E-02
(PID.TID 0000.0001) %MON dynstat_theta_del2           =   3.5867383660107E-04
(PID.TID 0000.0001) %MON dynstat_salt_max             =   3.5106583855891E+01
(PID.TID 0000.0001) %MON dynstat_salt_min             =   3.3348315629968E+01
(PID.TID 0000.0001) %MON dynstat_salt_mean            =   3.4999892069660E+01
(PID.TID 0000.0001) %MON dynstat_salt_sd              =   6.0163267045223E-03
(PID.TID 0000.0001) %MON dynstat_salt_del2            =   2.0331457595777E-04
(PID.TID 0000.0001) %MON dynstat_sst_max              =   2.0370083211297E+01
(PID.TID 0000.0001) %MON dynstat_sst_min              =   1.6426930089774E+01
(PID.TID 0000.0001) %MON dynstat_sst_mean             =   1.9984242923215E+01
(PID.TID 0000.0001) %MON dynstat_sst_sd               =   1.3033475401579E-01
(PID.TID 0000.0001) %MON dynstat_sst_del2             =   3.3528787334127E-03
(PID.TID 0000.0001) %MON dynstat_sss_max              =   3.5106583855891E+01
(PID.TID 0000.0001) %MON dynstat_sss_min              =   3.3348315629968E+01
(PID.TID 0000.0001) %MON dynstat_sss_mean             =   3.4995210094647E+01
(PID.TID 0000.0001) %MON dynstat_sss_sd               =   6.9665357860219E-02
(PID.TID 0000.0001) %MON dynstat_sss_del2             =   2.7336289135728E-03
(PID.TID 0000.0001) %MON forcing_qnet_max             =   2.7168845703125E+04
(PID.TID 0000.0001) %MON forcing_qnet_min             =  -1.4438083007812E+04
(PID.TID 0000.0001) %MON forcing_qnet_mean            =  -2.1081938296389E+02
(PID.TID 0000.0001) %MON forcing_qnet_sd              =   1.3021482208432E+03
(PID.TID 0000.0001) %MON forcing_qnet_del2            =   3.2337661705523E+01
(PID.TID 0000.0001) %MON forcing_qsw_max              =   0.0000000000000E+00
(PID.TID 0000.0001) %MON forcing_qsw_min              =  -1.0370734988755E+02
(PID.TID 0000.0001) %MON forcing_qsw_mean             =  -2.2218599447482E+01
(PID.TID 0000.0001) %MON forcing_qsw_sd               =   2.9940595623442E+01
(PID.TID 0000.0001) %MON forcing_qsw_del2             =   2.2388234800739E-01
(PID.TID 0000.0001) %MON forcing_empmr_max            =   1.0644331574440E-02
(PID.TID 0000.0001) %MON forcing_empmr_min            =  -1.5296547114849E-01
(PID.TID 0000.0001) %MON forcing_empmr_mean           =  -6.0128480749101E-04
(PID.TID 0000.0001) %MON forcing_empmr_sd             =   6.7578036664590E-03
(PID.TID 0000.0001) %MON forcing_empmr_del2           =   2.6746743390767E-04
(PID.TID 0000.0001) %MON forcing_fu_max               =   8.8766260940971E-01
(PID.TID 0000.0001) %MON forcing_fu_min               =  -5.5833304933497E-01
(PID.TID 0000.0001) %MON forcing_fu_mean              =  -3.2045292453516E-03
(PID.TID 0000.0001) %MON forcing_fu_sd                =   1.0973494950358E-01
(PID.TID 0000.0001) %MON forcing_fu_del2              =   9.9971178102059E-04
(PID.TID 0000.0001) %MON forcing_fv_max               =   4.9790579071232E-01
(PID.TID 0000.0001) %MON forcing_fv_min               =  -5.7792626560138E-01
(PID.TID 0000.0001) %MON forcing_fv_mean              =  -9.5426050428553E-03
(PID.TID 0000.0001) %MON forcing_fv_sd                =   9.4577088782601E-02
(PID.TID 0000.0001) %MON forcing_fv_del2              =   8.5132720915540E-04
(PID.TID 0000.0001) %MON trAdv_CFL_u_max              =   4.0856107606920E-03
(PID.TID 0000.0001) %MON trAdv_CFL_v_max              =   5.8785217360291E-03
(PID.TID 0000.0001) %MON trAdv_CFL_w_max              =   1.1739770637377E-02
(PID.TID 0000.0001) %MON advcfl_uvel_max              =   4.3318707045783E-03
(PID.TID 0000.0001) %MON advcfl_vvel_max              =   3.6592394774549E-03
(PID.TID 0000.0001) %MON advcfl_wvel_max              =   1.0641076253808E-02
(PID.TID 0000.0001) %MON advcfl_W_hf_max              =   1.1739770637377E-02
(PID.TID 0000.0001) %MON pe_b_mean                    =   5.4566364521740E-05
(PID.TID 0000.0001) %MON ke_max                       =   7.7897045993671E-01
(PID.TID 0000.0001) %MON ke_mean                      =   4.2749540687109E-05
(PID.TID 0000.0001) %MON ke_vol                       =   1.3398072205368E+18
(PID.TID 0000.0001) %MON vort_r_min                   =  -3.8552649044792E-06
(PID.TID 0000.0001) %MON vort_r_max                   =   3.8439364005649E-06
(PID.TID 0000.0001) %MON vort_a_mean                  =  -2.0549865324846E-05
(PID.TID 0000.0001) %MON vort_a_sd                    =   7.5259270985562E-05
(PID.TID 0000.0001) %MON vort_p_mean                  =  -2.4783450584866E-05
(PID.TID 0000.0001) %MON vort_p_sd                    =   1.2810617317405E-04
(PID.TID 0000.0001) %MON surfExpan_theta_mean         =   1.5225371473026E-06
(PID.TID 0000.0001) %MON surfExpan_salt_mean          =   4.9874561319701E-07
(PID.TID 0000.0001) // =======================================================
(PID.TID 0000.0001) // End MONITOR dynamic field statistics
(PID.TID 0000.0001) // =======================================================
(PID.TID 0000.0001) DEBUG_MSG: LEAVING S/R FORWARD_STEP
(PID.TID 0000.0001) DEBUG_MSG: ENTERED S/R FORWARD_STEP
(PID.TID 0000.0001) DEBUG_MSG: CALLING S/R LOAD_FIELDS_DRIVER
(PID.TID 0000.0001) DEBUG_MSG: ENTERED S/R LOAD_FIELDS_DRIVER
(PID.TID 0000.0001) DEBUG_MSG: CALLING S/R EXTERNAL_FIELDS_LOAD
(PID.TID 0000.0001) DEBUG_MSG: LEAVING S/R LOAD_FIELDS_DRIVER
(PID.TID 0000.0001) DEBUG_MSG: CALLING S/R DO_ATMOSPHERIC_PHYS
(PID.TID 0000.0001) DEBUG_MSG: ENTERED S/R DO_ATMOSPHERIC_PHYS
(PID.TID 0000.0001) DEBUG_MSG: LEAVING S/R DO_ATMOSPHERIC_PHYS
(PID.TID 0000.0001) DEBUG_MSG: CALLING S/R DO_OCEANIC_PHYS
(PID.TID 0000.0001) DEBUG_MSG: ENTERED S/R DO_OCEANIC_PHYS
(PID.TID 0000.0001) DEBUG_MSG: CALLING S/R EXTERNAL_FORCING_SURF
(PID.TID 0000.0001) DEBUG_MSG: CALLING S/R FIND_RHO_2D (xNr)
(PID.TID 0000.0001) DEBUG_MSG:                  ENTERING UPWARD K LOOP (bi=   1, bj=   1)
(PID.TID 0000.0001) DEBUG_MSG: CALLING S/R GRAD_SIGMA
(PID.TID 0000.0001) DEBUG_MSG: CALLING S/R CALC_IVDC
(PID.TID 0000.0001) DEBUG_MSG: CALLING S/R GRAD_SIGMA
(PID.TID 0000.0001) DEBUG_MSG: CALLING S/R CALC_IVDC
(PID.TID 0000.0001) DEBUG_MSG: CALLING S/R GRAD_SIGMA
(PID.TID 0000.0001) DEBUG_MSG: CALLING S/R CALC_IVDC
(PID.TID 0000.0001) DEBUG_MSG: CALLING S/R GRAD_SIGMA
(PID.TID 0000.0001) DEBUG_MSG: CALLING S/R CALC_IVDC
(PID.TID 0000.0001) DEBUG_MSG: CALLING S/R GRAD_SIGMA
(PID.TID 0000.0001) DEBUG_MSG: CALLING S/R CALC_IVDC
(PID.TID 0000.0001) DEBUG_MSG: CALLING S/R GRAD_SIGMA
(PID.TID 0000.0001) DEBUG_MSG: CALLING S/R CALC_IVDC
(PID.TID 0000.0001) DEBUG_MSG: CALLING S/R GRAD_SIGMA
(PID.TID 0000.0001) DEBUG_MSG: CALLING S/R CALC_IVDC
(PID.TID 0000.0001) DEBUG_MSG: CALLING S/R GRAD_SIGMA
(PID.TID 0000.0001) DEBUG_MSG: CALLING S/R CALC_IVDC
(PID.TID 0000.0001) DEBUG_MSG: CALLING S/R GRAD_SIGMA
(PID.TID 0000.0001) DEBUG_MSG: CALLING S/R CALC_IVDC
(PID.TID 0000.0001) DEBUG_MSG: CALLING S/R GRAD_SIGMA
(PID.TID 0000.0001) DEBUG_MSG: CALLING S/R CALC_IVDC
(PID.TID 0000.0001) DEBUG_MSG: CALLING S/R GRAD_SIGMA
(PID.TID 0000.0001) DEBUG_MSG: CALLING S/R CALC_IVDC
(PID.TID 0000.0001) DEBUG_MSG: CALLING S/R GRAD_SIGMA
(PID.TID 0000.0001) DEBUG_MSG: CALLING S/R CALC_IVDC
(PID.TID 0000.0001) DEBUG_MSG: CALLING S/R GRAD_SIGMA
(PID.TID 0000.0001) DEBUG_MSG: CALLING S/R CALC_IVDC
(PID.TID 0000.0001) DEBUG_MSG: CALLING S/R GRAD_SIGMA
(PID.TID 0000.0001) DEBUG_MSG: CALLING S/R CALC_IVDC
(PID.TID 0000.0001) DEBUG_MSG: CALLING S/R GRAD_SIGMA
(PID.TID 0000.0001) DEBUG_MSG: CALLING S/R CALC_IVDC
(PID.TID 0000.0001) DEBUG_MSG: CALLING S/R GRAD_SIGMA
(PID.TID 0000.0001) DEBUG_MSG: CALLING S/R GMREDI_CALC_TENSOR
(PID.TID 0000.0001) DEBUG_MSG: LEAVING S/R DO_OCEANIC_PHYS
(PID.TID 0000.0001) DEBUG_MSG: CALLING S/R DYNAMICS
(PID.TID 0000.0001) DEBUG_MSG: ENTERED S/R DYNAMICS
DEBUG_STATS_RL:                EtaN (DYNAMICS)  min= -9.53238532656934E-01
DEBUG_STATS_RL:                EtaN (DYNAMICS)  max=  7.15644927901620E+00
DEBUG_STATS_RL:                EtaN (DYNAMICS) mean=  1.40334513158177E-02
DEBUG_STATS_RL:                EtaN (DYNAMICS) S.D.=  2.03971485693821E-01
DEBUG_STATS_RL:                Uvel (DYNAMICS)  min= -4.78662262278153E-01
DEBUG_STATS_RL:                Uvel (DYNAMICS)  max=  1.29900265336371E+00
DEBUG_STATS_RL:                Uvel (DYNAMICS) mean=  3.79617513845026E-04
DEBUG_STATS_RL:                Uvel (DYNAMICS) S.D.=  1.80340655435578E-02
DEBUG_STATS_RL:                Vvel (DYNAMICS)  min= -1.08273145455399E+00
DEBUG_STATS_RL:                Vvel (DYNAMICS)  max=  1.12130875188082E+00
DEBUG_STATS_RL:                Vvel (DYNAMICS) mean= -9.93277821524551E-05
DEBUG_STATS_RL:                Vvel (DYNAMICS) S.D.=  1.83734019865617E-02
DEBUG_STATS_RL:                Wvel (DYNAMICS)  min= -9.98766811886992E-04
DEBUG_STATS_RL:                Wvel (DYNAMICS)  max=  1.86330414418944E-04
DEBUG_STATS_RL:                Wvel (DYNAMICS) mean= -7.53839098065851E-07
DEBUG_STATS_RL:                Wvel (DYNAMICS) S.D.=  1.43311856899932E-05
DEBUG_STATS_RL:               Theta (DYNAMICS)  min=  1.64269300897737E+01
DEBUG_STATS_RL:               Theta (DYNAMICS)  max=  2.03700832112972E+01
DEBUG_STATS_RL:               Theta (DYNAMICS) mean=  1.99907872424418E+01
DEBUG_STATS_RL:               Theta (DYNAMICS) S.D.=  5.30505348762839E-02
DEBUG_STATS_RL:                Salt (DYNAMICS)  min=  3.33483156299683E+01
DEBUG_STATS_RL:                Salt (DYNAMICS)  max=  3.51065838558912E+01
DEBUG_STATS_RL:                Salt (DYNAMICS) mean=  3.49994063293989E+01
DEBUG_STATS_RL:                Salt (DYNAMICS) S.D.=  1.91514325671344E-02
DEBUG_STATS_RL:                  Gu (DYNAMICS)  min= -4.66820481276508E-01
DEBUG_STATS_RL:                  Gu (DYNAMICS)  max=  1.33141659951976E+00
DEBUG_STATS_RL:                  Gu (DYNAMICS) mean=  3.90742169168115E-04
DEBUG_STATS_RL:                  Gu (DYNAMICS) S.D.=  1.82689509532372E-02
DEBUG_STATS_RL:                  Gv (DYNAMICS)  min= -1.08197422717299E+00
DEBUG_STATS_RL:                  Gv (DYNAMICS)  max=  1.06565626292411E+00
DEBUG_STATS_RL:                  Gv (DYNAMICS) mean= -1.45147204830860E-04
DEBUG_STATS_RL:                  Gv (DYNAMICS) S.D.=  1.79960524841088E-02
DEBUG_STATS_RL:               GuNm1 (DYNAMICS)  min= -2.93262401290348E-05
DEBUG_STATS_RL:               GuNm1 (DYNAMICS)  max=  3.74378535910444E-05
DEBUG_STATS_RL:               GuNm1 (DYNAMICS) mean=  1.13026077651852E-08
DEBUG_STATS_RL:               GuNm1 (DYNAMICS) S.D.=  1.42689080571842E-06
DEBUG_STATS_RL:               GvNm1 (DYNAMICS)  min= -8.93274009416930E-05
DEBUG_STATS_RL:               GvNm1 (DYNAMICS)  max=  2.87419245186327E-05
DEBUG_STATS_RL:               GvNm1 (DYNAMICS) mean= -5.01053644590375E-08
DEBUG_STATS_RL:               GvNm1 (DYNAMICS) S.D.=  1.49384072980975E-06
DEBUG_STATS_RL:               GtNm1 (DYNAMICS)  min= -1.70675953954587E-05
DEBUG_STATS_RL:               GtNm1 (DYNAMICS)  max=  8.01941949564686E-07
DEBUG_STATS_RL:               GtNm1 (DYNAMICS) mean= -3.90727187101814E-09
DEBUG_STATS_RL:               GtNm1 (DYNAMICS) S.D.=  1.77140191879039E-07
DEBUG_STATS_RL:               GsNm1 (DYNAMICS)  min= -3.91893818435785E-06
DEBUG_STATS_RL:               GsNm1 (DYNAMICS)  max=  5.85811416229304E-07
DEBUG_STATS_RL:               GsNm1 (DYNAMICS) mean= -1.16936713760951E-09
DEBUG_STATS_RL:               GsNm1 (DYNAMICS) S.D.=  4.64331131710647E-08
(PID.TID 0000.0001) DEBUG_MSG: LEAVING S/R DYNAMICS
DEBUG_STATS_RL:    cg2d_b (SOLVE_FOR_PRESSURE)  min= -7.16430480239099E+05
DEBUG_STATS_RL:    cg2d_b (SOLVE_FOR_PRESSURE)  max=  1.60901841599328E+05
DEBUG_STATS_RL:    cg2d_b (SOLVE_FOR_PRESSURE) mean= -1.43893871833395E+03
DEBUG_STATS_RL:    cg2d_b (SOLVE_FOR_PRESSURE) S.D.=  1.95156464045548E+04
 cg2d: Sum(rhs),rhsMax =  -8.87749657568094E+00  1.37243464572616E+02
(PID.TID 0000.0001)  cg2d: iter=     1 ; resid.=  1.98329204559264E-02
(PID.TID 0000.0001)  cg2d: iter=     2 ; resid.=  3.37984380645442E-03
(PID.TID 0000.0001)  cg2d: iter=     3 ; resid.=  6.55790106449480E-04
(PID.TID 0000.0001)  cg2d: iter=     4 ; resid.=  1.30905356394935E-04
(PID.TID 0000.0001)  cg2d: iter=     5 ; resid.=  2.45319330772038E-05
(PID.TID 0000.0001)  cg2d: iter=     6 ; resid.=  9.10919644623273E-06
(PID.TID 0000.0001)  cg2d: iter=     7 ; resid.=  2.45563547784655E-06
(PID.TID 0000.0001)  cg2d: iter=     8 ; resid.=  4.44278228421294E-07
(PID.TID 0000.0001)  cg2d: iter=     9 ; resid.=  8.90759225489011E-08
DEBUG_STATS_RL:    cg2d_x (SOLVE_FOR_PRESSURE)  min= -1.43737418173404E+01
DEBUG_STATS_RL:    cg2d_x (SOLVE_FOR_PRESSURE)  max=  6.32293689552625E+01
DEBUG_STATS_RL:    cg2d_x (SOLVE_FOR_PRESSURE) mean=  1.42952276324031E-01
DEBUG_STATS_RL:    cg2d_x (SOLVE_FOR_PRESSURE) S.D.=  1.85901215017145E+00
(PID.TID 0000.0001)      cg2d_init_res =   3.89678096427290E-01
(PID.TID 0000.0001)      cg2d_iters(min,last) =      -1       9
(PID.TID 0000.0001)      cg2d_last_res =   8.90759225489011E-08
(PID.TID 0000.0001) DEBUG_MSG: CALLING S/R UPDATE_ETAH
(PID.TID 0000.0001) DEBUG_MSG: ENTERED S/R CALC_R_STAR
(PID.TID 0000.0001) DEBUG_MSG: LEAVING S/R CALC_R_STAR
(PID.TID 0000.0001) DEBUG_MSG: CALLING S/R DO_STAGGER_FIELDS_EXCH.
(PID.TID 0000.0001) DEBUG_MSG: CALLING S/R THERMODYNAMICS
(PID.TID 0000.0001) DEBUG_MSG: ENTERED S/R THERMODYNAMICS
(PID.TID 0000.0001) DEBUG_MSG: CALLING S/R TEMP_INTEGRATE
(PID.TID 0000.0001) DEBUG_MSG: CALLING S/R SALT_INTEGRATE
DEBUG_STATS_RL:          Uvel (THERMODYNAMICS)  min= -5.52760714435464E-01
DEBUG_STATS_RL:          Uvel (THERMODYNAMICS)  max=  1.49560998203438E+00
DEBUG_STATS_RL:          Uvel (THERMODYNAMICS) mean=  4.42208191674861E-04
DEBUG_STATS_RL:          Uvel (THERMODYNAMICS) S.D.=  1.97233267411298E-02
DEBUG_STATS_RL:          Vvel (THERMODYNAMICS)  min= -1.24198949514657E+00
DEBUG_STATS_RL:          Vvel (THERMODYNAMICS)  max=  1.25837221134610E+00
DEBUG_STATS_RL:          Vvel (THERMODYNAMICS) mean= -1.31214662980593E-04
DEBUG_STATS_RL:          Vvel (THERMODYNAMICS) S.D.=  1.99684192092008E-02
DEBUG_STATS_RL:          Wvel (THERMODYNAMICS)  min= -9.20729147091778E-04
DEBUG_STATS_RL:          Wvel (THERMODYNAMICS)  max=  1.49776551238957E-04
DEBUG_STATS_RL:          Wvel (THERMODYNAMICS) mean= -7.54427284094189E-07
DEBUG_STATS_RL:          Wvel (THERMODYNAMICS) S.D.=  1.36410026324014E-05
DEBUG_STATS_RL:         Theta (THERMODYNAMICS)  min=  1.64074358115100E+01
DEBUG_STATS_RL:         Theta (THERMODYNAMICS)  max=  2.04411257548769E+01
DEBUG_STATS_RL:         Theta (THERMODYNAMICS) mean=  1.99916535398771E+01
DEBUG_STATS_RL:         Theta (THERMODYNAMICS) S.D.=  5.25047944200519E-02
DEBUG_STATS_RL:          Salt (THERMODYNAMICS)  min=  3.30456164510528E+01
DEBUG_STATS_RL:          Salt (THERMODYNAMICS)  max=  3.51200744059268E+01
DEBUG_STATS_RL:          Salt (THERMODYNAMICS) mean=  3.49993674449682E+01
DEBUG_STATS_RL:          Salt (THERMODYNAMICS) S.D.=  2.23460520395060E-02
DEBUG_STATS_RL:         GtNm1 (THERMODYNAMICS)  min= -1.96960105751024E-05
DEBUG_STATS_RL:         GtNm1 (THERMODYNAMICS)  max=  9.93550378696705E-07
DEBUG_STATS_RL:         GtNm1 (THERMODYNAMICS) mean= -4.31045516968604E-09
DEBUG_STATS_RL:         GtNm1 (THERMODYNAMICS) S.D.=  2.00718805471221E-07
DEBUG_STATS_RL:         GsNm1 (THERMODYNAMICS)  min= -4.77657740490346E-06
DEBUG_STATS_RL:         GsNm1 (THERMODYNAMICS)  max=  6.46317847601250E-07
DEBUG_STATS_RL:         GsNm1 (THERMODYNAMICS) mean= -1.41080909181848E-09
DEBUG_STATS_RL:         GsNm1 (THERMODYNAMICS) S.D.=  5.67669454955203E-08
(PID.TID 0000.0001) DEBUG_MSG: LEAVING S/R THERMODYNAMICS
(PID.TID 0000.0001) // =======================================================
(PID.TID 0000.0001) // Begin MONITOR dynamic field statistics
(PID.TID 0000.0001) // =======================================================
(PID.TID 0000.0001) %MON time_tsnumber                =                     6
(PID.TID 0000.0001) %MON time_secondsf                =   5.4000000000000E+03
(PID.TID 0000.0001) %MON dynstat_eta_max              =   6.4453994865949E+00
(PID.TID 0000.0001) %MON dynstat_eta_min              =  -1.4652131998456E+00
(PID.TID 0000.0001) %MON dynstat_eta_mean             =   1.4157395333112E-02
(PID.TID 0000.0001) %MON dynstat_eta_sd               =   1.8755120904222E-01
(PID.TID 0000.0001) %MON dynstat_eta_del2             =   5.0728093634383E-03
(PID.TID 0000.0001) %MON dynstat_uvel_max             =   1.4956099820344E+00
(PID.TID 0000.0001) %MON dynstat_uvel_min             =  -5.5276071443546E-01
(PID.TID 0000.0001) %MON dynstat_uvel_mean            =   1.6249368015620E-04
(PID.TID 0000.0001) %MON dynstat_uvel_sd              =   6.8858537795221E-03
(PID.TID 0000.0001) %MON dynstat_uvel_del2            =   1.5545488336102E-04
(PID.TID 0000.0001) %MON dynstat_vvel_max             =   1.2583722113461E+00
(PID.TID 0000.0001) %MON dynstat_vvel_min             =  -1.2419894951466E+00
(PID.TID 0000.0001) %MON dynstat_vvel_mean            =  -1.1252624013665E-05
(PID.TID 0000.0001) %MON dynstat_vvel_sd              =   7.3405135125488E-03
(PID.TID 0000.0001) %MON dynstat_vvel_del2            =   2.0897602276684E-04
(PID.TID 0000.0001) %MON dynstat_wvel_max             =   1.4977655123896E-04
(PID.TID 0000.0001) %MON dynstat_wvel_min             =  -9.2072914709178E-04
(PID.TID 0000.0001) %MON dynstat_wvel_mean            =  -6.5727525073727E-07
(PID.TID 0000.0001) %MON dynstat_wvel_sd              =   1.2997181440958E-05
(PID.TID 0000.0001) %MON dynstat_wvel_del2            =   1.0924845765568E-07
(PID.TID 0000.0001) %MON dynstat_theta_max            =   2.0441125754877E+01
(PID.TID 0000.0001) %MON dynstat_theta_min            =   1.6407435811510E+01
(PID.TID 0000.0001) %MON dynstat_theta_mean           =   1.9997661480247E+01
(PID.TID 0000.0001) %MON dynstat_theta_sd             =   1.9573167733737E-02
(PID.TID 0000.0001) %MON dynstat_theta_del2           =   3.6217440276015E-04
(PID.TID 0000.0001) %MON dynstat_salt_max             =   3.5120074405927E+01
(PID.TID 0000.0001) %MON dynstat_salt_min             =   3.3045616451053E+01
(PID.TID 0000.0001) %MON dynstat_salt_mean            =   3.4999886295804E+01
(PID.TID 0000.0001) %MON dynstat_salt_sd              =   6.9846173491902E-03
(PID.TID 0000.0001) %MON dynstat_salt_del2            =   2.3935203350226E-04
(PID.TID 0000.0001) %MON dynstat_sst_max              =   2.0441125754877E+01
(PID.TID 0000.0001) %MON dynstat_sst_min              =   1.6407435811510E+01
(PID.TID 0000.0001) %MON dynstat_sst_mean             =   1.9992172177027E+01
(PID.TID 0000.0001) %MON dynstat_sst_sd               =   1.3157497075130E-01
(PID.TID 0000.0001) %MON dynstat_sst_del2             =   3.4073265124292E-03
(PID.TID 0000.0001) %MON dynstat_sss_max              =   3.5120074405927E+01
(PID.TID 0000.0001) %MON dynstat_sss_min              =   3.3045616451053E+01
(PID.TID 0000.0001) %MON dynstat_sss_mean             =   3.4994637224117E+01
(PID.TID 0000.0001) %MON dynstat_sss_sd               =   8.1948331124246E-02
(PID.TID 0000.0001) %MON dynstat_sss_del2             =   3.2259917310574E-03
(PID.TID 0000.0001) %MON forcing_qnet_max             =   1.2874255357443E+04
(PID.TID 0000.0001) %MON forcing_qnet_min             =  -8.0509680635369E+03
(PID.TID 0000.0001) %MON forcing_qnet_mean            =  -2.4234525670967E+02
(PID.TID 0000.0001) %MON forcing_qnet_sd              =   1.0782602434361E+03
(PID.TID 0000.0001) %MON forcing_qnet_del2            =   2.1018370154938E+01
(PID.TID 0000.0001) %MON forcing_qsw_max              =   0.0000000000000E+00
(PID.TID 0000.0001) %MON forcing_qsw_min              =  -1.0307189595488E+02
(PID.TID 0000.0001) %MON forcing_qsw_mean             =  -2.2264789358568E+01
(PID.TID 0000.0001) %MON forcing_qsw_sd               =   2.9976306693076E+01
(PID.TID 0000.0001) %MON forcing_qsw_del2             =   2.2482986279881E-01
(PID.TID 0000.0001) %MON forcing_empmr_max            =   1.0534610599279E-02
(PID.TID 0000.0001) %MON forcing_empmr_min            =  -1.5138797461987E-01
(PID.TID 0000.0001) %MON forcing_empmr_mean           =  -5.8862263091819E-04
(PID.TID 0000.0001) %MON forcing_empmr_sd             =   6.6710334118348E-03
(PID.TID 0000.0001) %MON forcing_empmr_del2           =   2.6306788623675E-04
(PID.TID 0000.0001) %MON forcing_fu_max               =   9.2041568448157E-01
(PID.TID 0000.0001) %MON forcing_fu_min               =  -5.3175076495280E-01
(PID.TID 0000.0001) %MON forcing_fu_mean              =  -3.1296034023103E-03
(PID.TID 0000.0001) %MON forcing_fu_sd                =   1.1078331625577E-01
(PID.TID 0000.0001) %MON forcing_fu_del2              =   1.0016095406427E-03
(PID.TID 0000.0001) %MON forcing_fv_max               =   5.0199464295931E-01
(PID.TID 0000.0001) %MON forcing_fv_min               =  -5.3312719018302E-01
(PID.TID 0000.0001) %MON forcing_fv_mean              =  -8.8944027605626E-03
(PID.TID 0000.0001) %MON forcing_fv_sd                =   9.4880423211822E-02
(PID.TID 0000.0001) %MON forcing_fv_del2              =   8.5429565133705E-04
(PID.TID 0000.0001) %MON trAdv_CFL_u_max              =   4.7289605942740E-03
(PID.TID 0000.0001) %MON trAdv_CFL_v_max              =   6.7283144096781E-03
(PID.TID 0000.0001) %MON trAdv_CFL_w_max              =   1.2848595180244E-02
(PID.TID 0000.0001) %MON advcfl_uvel_max              =   4.9875102640268E-03
(PID.TID 0000.0001) %MON advcfl_vvel_max              =   4.1065275423618E-03
(PID.TID 0000.0001) %MON advcfl_wvel_max              =   1.0531337364860E-02
(PID.TID 0000.0001) %MON advcfl_W_hf_max              =   1.2848595180244E-02
(PID.TID 0000.0001) %MON pe_b_mean                    =   4.7127045292448E-05
(PID.TID 0000.0001) %MON ke_max                       =   1.0189350036733E+00
(PID.TID 0000.0001) %MON ke_mean                      =   4.6792997729341E-05
(PID.TID 0000.0001) %MON ke_vol                       =   1.3398074107973E+18
(PID.TID 0000.0001) %MON vort_r_min                   =  -4.2816272407554E-06
(PID.TID 0000.0001) %MON vort_r_max                   =   4.2660400542729E-06
(PID.TID 0000.0001) %MON vort_a_mean                  =  -2.0549865324846E-05
(PID.TID 0000.0001) %MON vort_a_sd                    =   7.5259271375250E-05
(PID.TID 0000.0001) %MON vort_p_mean                  =  -2.4783444920661E-05
(PID.TID 0000.0001) %MON vort_p_sd                    =   1.2810609480065E-04
(PID.TID 0000.0001) %MON surfExpan_theta_mean         =   1.6586193061932E-06
(PID.TID 0000.0001) %MON surfExpan_salt_mean          =   5.7914430990502E-07
(PID.TID 0000.0001) // =======================================================
(PID.TID 0000.0001) // End MONITOR dynamic field statistics
(PID.TID 0000.0001) // =======================================================
(PID.TID 0000.0001) DEBUG_MSG: LEAVING S/R FORWARD_STEP
(PID.TID 0000.0001) DEBUG_MSG: ENTERED S/R FORWARD_STEP
(PID.TID 0000.0001) DEBUG_MSG: CALLING S/R LOAD_FIELDS_DRIVER
(PID.TID 0000.0001) DEBUG_MSG: ENTERED S/R LOAD_FIELDS_DRIVER
(PID.TID 0000.0001) DEBUG_MSG: CALLING S/R EXTERNAL_FIELDS_LOAD
(PID.TID 0000.0001) DEBUG_MSG: LEAVING S/R LOAD_FIELDS_DRIVER
(PID.TID 0000.0001) DEBUG_MSG: CALLING S/R DO_ATMOSPHERIC_PHYS
(PID.TID 0000.0001) DEBUG_MSG: ENTERED S/R DO_ATMOSPHERIC_PHYS
(PID.TID 0000.0001) DEBUG_MSG: LEAVING S/R DO_ATMOSPHERIC_PHYS
(PID.TID 0000.0001) DEBUG_MSG: CALLING S/R DO_OCEANIC_PHYS
(PID.TID 0000.0001) DEBUG_MSG: ENTERED S/R DO_OCEANIC_PHYS
(PID.TID 0000.0001) DEBUG_MSG: CALLING S/R EXTERNAL_FORCING_SURF
(PID.TID 0000.0001) DEBUG_MSG: CALLING S/R FIND_RHO_2D (xNr)
(PID.TID 0000.0001) DEBUG_MSG:                  ENTERING UPWARD K LOOP (bi=   1, bj=   1)
(PID.TID 0000.0001) DEBUG_MSG: CALLING S/R GRAD_SIGMA
(PID.TID 0000.0001) DEBUG_MSG: CALLING S/R CALC_IVDC
(PID.TID 0000.0001) DEBUG_MSG: CALLING S/R GRAD_SIGMA
(PID.TID 0000.0001) DEBUG_MSG: CALLING S/R CALC_IVDC
(PID.TID 0000.0001) DEBUG_MSG: CALLING S/R GRAD_SIGMA
(PID.TID 0000.0001) DEBUG_MSG: CALLING S/R CALC_IVDC
(PID.TID 0000.0001) DEBUG_MSG: CALLING S/R GRAD_SIGMA
(PID.TID 0000.0001) DEBUG_MSG: CALLING S/R CALC_IVDC
(PID.TID 0000.0001) DEBUG_MSG: CALLING S/R GRAD_SIGMA
(PID.TID 0000.0001) DEBUG_MSG: CALLING S/R CALC_IVDC
(PID.TID 0000.0001) DEBUG_MSG: CALLING S/R GRAD_SIGMA
(PID.TID 0000.0001) DEBUG_MSG: CALLING S/R CALC_IVDC
(PID.TID 0000.0001) DEBUG_MSG: CALLING S/R GRAD_SIGMA
(PID.TID 0000.0001) DEBUG_MSG: CALLING S/R CALC_IVDC
(PID.TID 0000.0001) DEBUG_MSG: CALLING S/R GRAD_SIGMA
(PID.TID 0000.0001) DEBUG_MSG: CALLING S/R CALC_IVDC
(PID.TID 0000.0001) DEBUG_MSG: CALLING S/R GRAD_SIGMA
(PID.TID 0000.0001) DEBUG_MSG: CALLING S/R CALC_IVDC
(PID.TID 0000.0001) DEBUG_MSG: CALLING S/R GRAD_SIGMA
(PID.TID 0000.0001) DEBUG_MSG: CALLING S/R CALC_IVDC
(PID.TID 0000.0001) DEBUG_MSG: CALLING S/R GRAD_SIGMA
(PID.TID 0000.0001) DEBUG_MSG: CALLING S/R CALC_IVDC
(PID.TID 0000.0001) DEBUG_MSG: CALLING S/R GRAD_SIGMA
(PID.TID 0000.0001) DEBUG_MSG: CALLING S/R CALC_IVDC
(PID.TID 0000.0001) DEBUG_MSG: CALLING S/R GRAD_SIGMA
(PID.TID 0000.0001) DEBUG_MSG: CALLING S/R CALC_IVDC
(PID.TID 0000.0001) DEBUG_MSG: CALLING S/R GRAD_SIGMA
(PID.TID 0000.0001) DEBUG_MSG: CALLING S/R CALC_IVDC
(PID.TID 0000.0001) DEBUG_MSG: CALLING S/R GRAD_SIGMA
(PID.TID 0000.0001) DEBUG_MSG: CALLING S/R CALC_IVDC
(PID.TID 0000.0001) DEBUG_MSG: CALLING S/R GRAD_SIGMA
(PID.TID 0000.0001) DEBUG_MSG: CALLING S/R GMREDI_CALC_TENSOR
(PID.TID 0000.0001) DEBUG_MSG: LEAVING S/R DO_OCEANIC_PHYS
(PID.TID 0000.0001) DEBUG_MSG: CALLING S/R DYNAMICS
(PID.TID 0000.0001) DEBUG_MSG: ENTERED S/R DYNAMICS
DEBUG_STATS_RL:                EtaN (DYNAMICS)  min= -1.46521319984565E+00
DEBUG_STATS_RL:                EtaN (DYNAMICS)  max=  6.44539948659485E+00
DEBUG_STATS_RL:                EtaN (DYNAMICS) mean=  1.45720977735416E-02
DEBUG_STATS_RL:                EtaN (DYNAMICS) S.D.=  1.89501748444666E-01
DEBUG_STATS_RL:                Uvel (DYNAMICS)  min= -5.52760714435464E-01
DEBUG_STATS_RL:                Uvel (DYNAMICS)  max=  1.49560998203438E+00
DEBUG_STATS_RL:                Uvel (DYNAMICS) mean=  4.42208191674861E-04
DEBUG_STATS_RL:                Uvel (DYNAMICS) S.D.=  1.97233267411298E-02
DEBUG_STATS_RL:                Vvel (DYNAMICS)  min= -1.24198949514657E+00
DEBUG_STATS_RL:                Vvel (DYNAMICS)  max=  1.25837221134610E+00
DEBUG_STATS_RL:                Vvel (DYNAMICS) mean= -1.31214662980593E-04
DEBUG_STATS_RL:                Vvel (DYNAMICS) S.D.=  1.99684192092008E-02
DEBUG_STATS_RL:                Wvel (DYNAMICS)  min= -9.20729147091778E-04
DEBUG_STATS_RL:                Wvel (DYNAMICS)  max=  1.49776551238957E-04
DEBUG_STATS_RL:                Wvel (DYNAMICS) mean= -7.54427284094189E-07
DEBUG_STATS_RL:                Wvel (DYNAMICS) S.D.=  1.36410026324014E-05
DEBUG_STATS_RL:               Theta (DYNAMICS)  min=  1.64074358115100E+01
DEBUG_STATS_RL:               Theta (DYNAMICS)  max=  2.04411257548769E+01
DEBUG_STATS_RL:               Theta (DYNAMICS) mean=  1.99916535398771E+01
DEBUG_STATS_RL:               Theta (DYNAMICS) S.D.=  5.25047944200519E-02
DEBUG_STATS_RL:                Salt (DYNAMICS)  min=  3.30456164510528E+01
DEBUG_STATS_RL:                Salt (DYNAMICS)  max=  3.51200744059268E+01
DEBUG_STATS_RL:                Salt (DYNAMICS) mean=  3.49993674449682E+01
DEBUG_STATS_RL:                Salt (DYNAMICS) S.D.=  2.23460520395060E-02
DEBUG_STATS_RL:                  Gu (DYNAMICS)  min= -5.39474555035480E-01
DEBUG_STATS_RL:                  Gu (DYNAMICS)  max=  1.52961523351051E+00
DEBUG_STATS_RL:                  Gu (DYNAMICS) mean=  4.52536410643538E-04
DEBUG_STATS_RL:                  Gu (DYNAMICS) S.D.=  1.99976784606926E-02
DEBUG_STATS_RL:                  Gv (DYNAMICS)  min= -1.24163548958390E+00
DEBUG_STATS_RL:                  Gv (DYNAMICS)  max=  1.19598476361748E+00
DEBUG_STATS_RL:                  Gv (DYNAMICS) mean= -1.77858094294141E-04
DEBUG_STATS_RL:                  Gv (DYNAMICS) S.D.=  1.95801648552958E-02
DEBUG_STATS_RL:               GuNm1 (DYNAMICS)  min= -3.40510789147788E-05
DEBUG_STATS_RL:               GuNm1 (DYNAMICS)  max=  4.20087495680885E-05
DEBUG_STATS_RL:               GuNm1 (DYNAMICS) mean=  1.12536272969671E-08
DEBUG_STATS_RL:               GuNm1 (DYNAMICS) S.D.=  1.46513906910640E-06
DEBUG_STATS_RL:               GvNm1 (DYNAMICS)  min= -9.93797576464530E-05
DEBUG_STATS_RL:               GvNm1 (DYNAMICS)  max=  2.75758156762115E-05
DEBUG_STATS_RL:               GvNm1 (DYNAMICS) mean= -5.14677563891932E-08
DEBUG_STATS_RL:               GvNm1 (DYNAMICS) S.D.=  1.59606971805955E-06
DEBUG_STATS_RL:               GtNm1 (DYNAMICS)  min= -1.96960105751024E-05
DEBUG_STATS_RL:               GtNm1 (DYNAMICS)  max=  9.93550378696705E-07
DEBUG_STATS_RL:               GtNm1 (DYNAMICS) mean= -4.31045516968604E-09
DEBUG_STATS_RL:               GtNm1 (DYNAMICS) S.D.=  2.00718805471221E-07
DEBUG_STATS_RL:               GsNm1 (DYNAMICS)  min= -4.77657740490346E-06
DEBUG_STATS_RL:               GsNm1 (DYNAMICS)  max=  6.46317847601250E-07
DEBUG_STATS_RL:               GsNm1 (DYNAMICS) mean= -1.41080909181848E-09
DEBUG_STATS_RL:               GsNm1 (DYNAMICS) S.D.=  5.67669454955203E-08
(PID.TID 0000.0001) DEBUG_MSG: LEAVING S/R DYNAMICS
DEBUG_STATS_RL:    cg2d_b (SOLVE_FOR_PRESSURE)  min= -6.44874430253092E+05
DEBUG_STATS_RL:    cg2d_b (SOLVE_FOR_PRESSURE)  max=  2.75744432642233E+05
DEBUG_STATS_RL:    cg2d_b (SOLVE_FOR_PRESSURE) mean= -1.49058021121307E+03
DEBUG_STATS_RL:    cg2d_b (SOLVE_FOR_PRESSURE) S.D.=  1.83324028254362E+04
 cg2d: Sum(rhs),rhsMax =  -1.02165076245558E+01  1.23535783950299E+02
(PID.TID 0000.0001)  cg2d: iter=     1 ; resid.=  2.31828535839288E-02
(PID.TID 0000.0001)  cg2d: iter=     2 ; resid.=  3.51721316542005E-03
(PID.TID 0000.0001)  cg2d: iter=     3 ; resid.=  6.27790517833738E-04
(PID.TID 0000.0001)  cg2d: iter=     4 ; resid.=  1.35578693406756E-04
(PID.TID 0000.0001)  cg2d: iter=     5 ; resid.=  3.29943343737962E-05
(PID.TID 0000.0001)  cg2d: iter=     6 ; resid.=  1.17697874457308E-05
(PID.TID 0000.0001)  cg2d: iter=     7 ; resid.=  2.90557973044508E-06
(PID.TID 0000.0001)  cg2d: iter=     8 ; resid.=  5.37767305509359E-07
(PID.TID 0000.0001)  cg2d: iter=     9 ; resid.=  1.06412258669044E-07
(PID.TID 0000.0001)  cg2d: iter=    10 ; resid.=  3.07835668683005E-08
DEBUG_STATS_RL:    cg2d_x (SOLVE_FOR_PRESSURE)  min= -2.18648288357364E+01
DEBUG_STATS_RL:    cg2d_x (SOLVE_FOR_PRESSURE)  max=  5.68111767148004E+01
DEBUG_STATS_RL:    cg2d_x (SOLVE_FOR_PRESSURE) mean=  1.48248645909490E-01
DEBUG_STATS_RL:    cg2d_x (SOLVE_FOR_PRESSURE) S.D.=  1.74043856258160E+00
(PID.TID 0000.0001)      cg2d_init_res =   3.80373437601275E-01
(PID.TID 0000.0001)      cg2d_iters(min,last) =      -1      10
(PID.TID 0000.0001)      cg2d_last_res =   3.07835668683005E-08
(PID.TID 0000.0001) DEBUG_MSG: CALLING S/R UPDATE_ETAH
(PID.TID 0000.0001) DEBUG_MSG: ENTERED S/R CALC_R_STAR
(PID.TID 0000.0001) DEBUG_MSG: LEAVING S/R CALC_R_STAR
(PID.TID 0000.0001) DEBUG_MSG: CALLING S/R DO_STAGGER_FIELDS_EXCH.
(PID.TID 0000.0001) DEBUG_MSG: CALLING S/R THERMODYNAMICS
(PID.TID 0000.0001) DEBUG_MSG: ENTERED S/R THERMODYNAMICS
(PID.TID 0000.0001) DEBUG_MSG: CALLING S/R TEMP_INTEGRATE
(PID.TID 0000.0001) DEBUG_MSG: CALLING S/R SALT_INTEGRATE
DEBUG_STATS_RL:          Uvel (THERMODYNAMICS)  min= -6.17601747112679E-01
DEBUG_STATS_RL:          Uvel (THERMODYNAMICS)  max=  1.66340762822901E+00
DEBUG_STATS_RL:          Uvel (THERMODYNAMICS) mean=  4.93948083393451E-04
DEBUG_STATS_RL:          Uvel (THERMODYNAMICS) S.D.=  2.11509706333051E-02
DEBUG_STATS_RL:          Vvel (THERMODYNAMICS)  min= -1.37440141752482E+00
DEBUG_STATS_RL:          Vvel (THERMODYNAMICS)  max=  1.36295355382306E+00
DEBUG_STATS_RL:          Vvel (THERMODYNAMICS) mean= -1.63933391190428E-04
DEBUG_STATS_RL:          Vvel (THERMODYNAMICS) S.D.=  2.11586926665450E-02
DEBUG_STATS_RL:          Wvel (THERMODYNAMICS)  min= -7.85725504968817E-04
DEBUG_STATS_RL:          Wvel (THERMODYNAMICS)  max=  1.02014751517024E-04
DEBUG_STATS_RL:          Wvel (THERMODYNAMICS) mean= -7.28111550779710E-07
DEBUG_STATS_RL:          Wvel (THERMODYNAMICS) S.D.=  1.25172575199206E-05
DEBUG_STATS_RL:         Theta (THERMODYNAMICS)  min=  1.63854990695468E+01
DEBUG_STATS_RL:         Theta (THERMODYNAMICS)  max=  2.05112104770923E+01
DEBUG_STATS_RL:         Theta (THERMODYNAMICS) mean=  1.99923444521571E+01
DEBUG_STATS_RL:         Theta (THERMODYNAMICS) S.D.=  5.24596015703278E-02
DEBUG_STATS_RL:          Salt (THERMODYNAMICS)  min=  3.27514981261887E+01
DEBUG_STATS_RL:          Salt (THERMODYNAMICS)  max=  3.51299081236443E+01
DEBUG_STATS_RL:          Salt (THERMODYNAMICS) mean=  3.49993225103945E+01
DEBUG_STATS_RL:          Salt (THERMODYNAMICS) S.D.=  2.54998052144678E-02
DEBUG_STATS_RL:         GtNm1 (THERMODYNAMICS)  min= -2.19255404386451E-05
DEBUG_STATS_RL:         GtNm1 (THERMODYNAMICS)  max=  1.18092725253833E-06
DEBUG_STATS_RL:         GtNm1 (THERMODYNAMICS) mean= -4.59622863189760E-09
DEBUG_STATS_RL:         GtNm1 (THERMODYNAMICS) S.D.=  2.19187736476735E-07
DEBUG_STATS_RL:         GsNm1 (THERMODYNAMICS)  min= -5.57690942412456E-06
DEBUG_STATS_RL:         GsNm1 (THERMODYNAMICS)  max=  7.08332731712549E-07
DEBUG_STATS_RL:         GsNm1 (THERMODYNAMICS) mean= -1.63482245503297E-09
DEBUG_STATS_RL:         GsNm1 (THERMODYNAMICS) S.D.=  6.66364493976810E-08
(PID.TID 0000.0001) DEBUG_MSG: LEAVING S/R THERMODYNAMICS
(PID.TID 0000.0001) // =======================================================
(PID.TID 0000.0001) // Begin MONITOR dynamic field statistics
(PID.TID 0000.0001) // =======================================================
(PID.TID 0000.0001) %MON time_tsnumber                =                     7
(PID.TID 0000.0001) %MON time_secondsf                =   6.3000000000000E+03
(PID.TID 0000.0001) %MON dynstat_eta_max              =   5.7911495107220E+00
(PID.TID 0000.0001) %MON dynstat_eta_min              =  -2.2288306768740E+00
(PID.TID 0000.0001) %MON dynstat_eta_mean             =   1.4665484399704E-02
(PID.TID 0000.0001) %MON dynstat_eta_sd               =   1.7535528945442E-01
(PID.TID 0000.0001) %MON dynstat_eta_del2             =   4.5784375862035E-03
(PID.TID 0000.0001) %MON dynstat_uvel_max             =   1.6634076282290E+00
(PID.TID 0000.0001) %MON dynstat_uvel_min             =  -6.1760174711268E-01
(PID.TID 0000.0001) %MON dynstat_uvel_mean            =   1.9818733766849E-04
(PID.TID 0000.0001) %MON dynstat_uvel_sd              =   7.1764624694219E-03
(PID.TID 0000.0001) %MON dynstat_uvel_del2            =   1.6142568143353E-04
(PID.TID 0000.0001) %MON dynstat_vvel_max             =   1.3629535538231E+00
(PID.TID 0000.0001) %MON dynstat_vvel_min             =  -1.3744014175248E+00
(PID.TID 0000.0001) %MON dynstat_vvel_mean            =  -1.4217503423121E-05
(PID.TID 0000.0001) %MON dynstat_vvel_sd              =   7.4929310601984E-03
(PID.TID 0000.0001) %MON dynstat_vvel_del2            =   2.1970912478236E-04
(PID.TID 0000.0001) %MON dynstat_wvel_max             =   1.0201475151702E-04
(PID.TID 0000.0001) %MON dynstat_wvel_min             =  -7.8572550496882E-04
(PID.TID 0000.0001) %MON dynstat_wvel_mean            =  -6.2710763896682E-07
(PID.TID 0000.0001) %MON dynstat_wvel_sd              =   1.1703176416387E-05
(PID.TID 0000.0001) %MON dynstat_wvel_del2            =   9.7154976163927E-08
(PID.TID 0000.0001) %MON dynstat_theta_max            =   2.0511210477092E+01
(PID.TID 0000.0001) %MON dynstat_theta_min            =   1.6385499069547E+01
(PID.TID 0000.0001) %MON dynstat_theta_mean           =   1.9997675083422E+01
(PID.TID 0000.0001) %MON dynstat_theta_sd             =   1.9405540123398E-02
(PID.TID 0000.0001) %MON dynstat_theta_del2           =   3.6205585202844E-04
(PID.TID 0000.0001) %MON dynstat_salt_max             =   3.5129908123644E+01
(PID.TID 0000.0001) %MON dynstat_salt_min             =   3.2751498126189E+01
(PID.TID 0000.0001) %MON dynstat_salt_mean            =   3.4999880291119E+01
(PID.TID 0000.0001) %MON dynstat_salt_sd              =   7.9454127207968E-03
(PID.TID 0000.0001) %MON dynstat_salt_del2            =   2.7442854443744E-04
(PID.TID 0000.0001) %MON dynstat_sst_max              =   2.0511210477092E+01
(PID.TID 0000.0001) %MON dynstat_sst_min              =   1.6385499069547E+01
(PID.TID 0000.0001) %MON dynstat_sst_mean             =   1.9998704905095E+01
(PID.TID 0000.0001) %MON dynstat_sst_sd               =   1.3374799928615E-01
(PID.TID 0000.0001) %MON dynstat_sst_del2             =   3.4254028719968E-03
(PID.TID 0000.0001) %MON dynstat_sss_max              =   3.5129908123644E+01
(PID.TID 0000.0001) %MON dynstat_sss_min              =   3.2751498126189E+01
(PID.TID 0000.0001) %MON dynstat_sss_mean             =   3.4994006330218E+01
(PID.TID 0000.0001) %MON dynstat_sss_sd               =   9.3955523744673E-02
(PID.TID 0000.0001) %MON dynstat_sss_del2             =   3.7046478236241E-03
(PID.TID 0000.0001) %MON forcing_qnet_max             =   3.2544929014136E+04
(PID.TID 0000.0001) %MON forcing_qnet_min             =  -1.1635755315179E+04
(PID.TID 0000.0001) %MON forcing_qnet_mean            =  -2.3036858581217E+02
(PID.TID 0000.0001) %MON forcing_qnet_sd              =   1.1569548190470E+03
(PID.TID 0000.0001) %MON forcing_qnet_del2            =   2.8428222438688E+01
(PID.TID 0000.0001) %MON forcing_qsw_max              =   0.0000000000000E+00
(PID.TID 0000.0001) %MON forcing_qsw_min              =  -1.0273196575738E+02
(PID.TID 0000.0001) %MON forcing_qsw_mean             =  -2.2234415180382E+01
(PID.TID 0000.0001) %MON forcing_qsw_sd               =   2.9963981824843E+01
(PID.TID 0000.0001) %MON forcing_qsw_del2             =   2.2551638848123E-01
(PID.TID 0000.0001) %MON forcing_empmr_max            =   1.0426022112370E-02
(PID.TID 0000.0001) %MON forcing_empmr_min            =  -1.4982895553112E-01
(PID.TID 0000.0001) %MON forcing_empmr_mean           =  -5.8430242658113E-04
(PID.TID 0000.0001) %MON forcing_empmr_sd             =   6.6028827760358E-03
(PID.TID 0000.0001) %MON forcing_empmr_del2           =   2.6037124944798E-04
(PID.TID 0000.0001) %MON forcing_fu_max               =   9.4703782862357E-01
(PID.TID 0000.0001) %MON forcing_fu_min               =  -5.3510880940640E-01
(PID.TID 0000.0001) %MON forcing_fu_mean              =  -3.0297230949145E-03
(PID.TID 0000.0001) %MON forcing_fu_sd                =   1.1128602458751E-01
(PID.TID 0000.0001) %MON forcing_fu_del2              =   9.9735628168460E-04
(PID.TID 0000.0001) %MON forcing_fv_max               =   4.9852796845404E-01
(PID.TID 0000.0001) %MON forcing_fv_min               =  -5.4220650110513E-01
(PID.TID 0000.0001) %MON forcing_fv_mean              =  -8.2726322383304E-03
(PID.TID 0000.0001) %MON forcing_fv_sd                =   9.4940362893633E-02
(PID.TID 0000.0001) %MON forcing_fv_del2              =   8.5414329178032E-04
(PID.TID 0000.0001) %MON trAdv_CFL_u_max              =   5.2886081234565E-03
(PID.TID 0000.0001) %MON trAdv_CFL_v_max              =   7.4430632078449E-03
(PID.TID 0000.0001) %MON trAdv_CFL_w_max              =   1.3548990532539E-02
(PID.TID 0000.0001) %MON advcfl_uvel_max              =   5.5470762556478E-03
(PID.TID 0000.0001) %MON advcfl_vvel_max              =   4.4478146110260E-03
(PID.TID 0000.0001) %MON advcfl_wvel_max              =   1.0422883863034E-02
(PID.TID 0000.0001) %MON advcfl_W_hf_max              =   1.3548990532539E-02
(PID.TID 0000.0001) %MON pe_b_mean                    =   4.1250349407510E-05
(PID.TID 0000.0001) %MON ke_max                       =   1.2434908486363E+00
(PID.TID 0000.0001) %MON ke_mean                      =   4.9725749356876E-05
(PID.TID 0000.0001) %MON ke_vol                       =   1.3398075970512E+18
(PID.TID 0000.0001) %MON vort_r_min                   =  -4.5790289654062E-06
(PID.TID 0000.0001) %MON vort_r_max                   =   4.5631228204891E-06
(PID.TID 0000.0001) %MON vort_a_mean                  =  -2.0549865324846E-05
(PID.TID 0000.0001) %MON vort_a_sd                    =   7.5259271070691E-05
(PID.TID 0000.0001) %MON vort_p_mean                  =  -2.4783439360475E-05
(PID.TID 0000.0001) %MON vort_p_sd                    =   1.2810603625303E-04
(PID.TID 0000.0001) %MON surfExpan_theta_mean         =   1.7375038067605E-06
(PID.TID 0000.0001) %MON surfExpan_salt_mean          =   6.5226045355554E-07
(PID.TID 0000.0001) // =======================================================
(PID.TID 0000.0001) // End MONITOR dynamic field statistics
(PID.TID 0000.0001) // =======================================================
 Computing Diagnostic #     81  oceTAUX      Counter:       1   Parms: UU      U1      
           Vector  Mate for  oceTAUX      Diagnostic #     82  oceTAUY  exists 
(PID.TID 0000.0001)  MDS_WRITE_FIELD: it,rec,kS,kL,kH=       6    -1  32   1   1 file=oceTAUX.0000000006
 Computing Diagnostic #     82  oceTAUY      Counter:       1   Parms: VV      U1      
           Vector  Mate for  oceTAUY      Diagnostic #     81  oceTAUX  exists 
(PID.TID 0000.0001)  MDS_WRITE_FIELD: it,rec,kS,kL,kH=       6    -1  32   1   1 file=oceTAUY.0000000006
 Computing Diagnostic #     85  oceFWflx     Counter:       1   Parms: SM      U1      
(PID.TID 0000.0001)  MDS_WRITE_FIELD: it,rec,kS,kL,kH=       6    -1  32   1   1 file=oceFWflx.0000000006
 Computing Diagnostic #     86  oceSflux     Counter:       1   Parms: SM      U1      
(PID.TID 0000.0001)  MDS_WRITE_FIELD: it,rec,kS,kL,kH=       6    -1  32   1   1 file=oceSflux.0000000006
 Computing Diagnostic #     87  oceQnet      Counter:       1   Parms: SM      U1      
(PID.TID 0000.0001)  MDS_WRITE_FIELD: it,rec,kS,kL,kH=       6    -1  32   1   1 file=oceQnet.0000000006
 Computing Diagnostic #     88  oceQsw       Counter:       1   Parms: SM      U1      
(PID.TID 0000.0001)  MDS_WRITE_FIELD: it,rec,kS,kL,kH=       6    -1  32   1   1 file=oceQsw.0000000006
 Computing Diagnostic #     27  SALT         Counter:       1   Parms: SMR     MR      
(PID.TID 0000.0001)  MDS_WRITE_FIELD: it,rec,kS,kL,kH=       6    -1  32   1   1 file=SSS.0000000006
 Computing Diagnostic #     26  THETA        Counter:       1   Parms: SMR     MR      
(PID.TID 0000.0001)  MDS_WRITE_FIELD: it,rec,kS,kL,kH=       6    -1  32   1   1 file=SST.0000000006
 Computing Diagnostic #     45  UVELMASS     Counter:       1   Parms: UUr     MR      
           Vector  Mate for  UVELMASS     Diagnostic #     46  VVELMASS exists 
(PID.TID 0000.0001)  MDS_WRITE_FIELD: it,rec,kS,kL,kH=       6    -1  32   1   1 file=UVEL1.0000000006
 Computing Diagnostic #     46  VVELMASS     Counter:       1   Parms: VVr     MR      
           Vector  Mate for  VVELMASS     Diagnostic #     45  UVELMASS exists 
(PID.TID 0000.0001)  MDS_WRITE_FIELD: it,rec,kS,kL,kH=       6    -1  32   1   1 file=VVEL1.0000000006
 Computing Diagnostic #     83  atmPload     Counter:       1   Parms: SM      U1      
(PID.TID 0000.0001)  MDS_WRITE_FIELD: it,rec,kS,kL,kH=       6    -1  32   1   1 file=atmPload.0000000006
(PID.TID 0000.0001)  write diagnostics summary to file: diagnostics_status.0000000007.txt
(PID.TID 0000.0001) DEBUG_MSG: LEAVING S/R FORWARD_STEP
(PID.TID 0000.0001) DEBUG_MSG: ENTERED S/R FORWARD_STEP
(PID.TID 0000.0001) DEBUG_MSG: CALLING S/R LOAD_FIELDS_DRIVER
(PID.TID 0000.0001) DEBUG_MSG: ENTERED S/R LOAD_FIELDS_DRIVER
(PID.TID 0000.0001) DEBUG_MSG: CALLING S/R EXTERNAL_FIELDS_LOAD
(PID.TID 0000.0001) DEBUG_MSG: LEAVING S/R LOAD_FIELDS_DRIVER
(PID.TID 0000.0001) DEBUG_MSG: CALLING S/R DO_ATMOSPHERIC_PHYS
(PID.TID 0000.0001) DEBUG_MSG: ENTERED S/R DO_ATMOSPHERIC_PHYS
(PID.TID 0000.0001) DEBUG_MSG: LEAVING S/R DO_ATMOSPHERIC_PHYS
(PID.TID 0000.0001) DEBUG_MSG: CALLING S/R DO_OCEANIC_PHYS
(PID.TID 0000.0001) DEBUG_MSG: ENTERED S/R DO_OCEANIC_PHYS
(PID.TID 0000.0001) DEBUG_MSG: CALLING S/R EXTERNAL_FORCING_SURF
(PID.TID 0000.0001) DEBUG_MSG: CALLING S/R FIND_RHO_2D (xNr)
(PID.TID 0000.0001) DEBUG_MSG:                  ENTERING UPWARD K LOOP (bi=   1, bj=   1)
(PID.TID 0000.0001) DEBUG_MSG: CALLING S/R GRAD_SIGMA
(PID.TID 0000.0001) DEBUG_MSG: CALLING S/R CALC_IVDC
(PID.TID 0000.0001) DEBUG_MSG: CALLING S/R GRAD_SIGMA
(PID.TID 0000.0001) DEBUG_MSG: CALLING S/R CALC_IVDC
(PID.TID 0000.0001) DEBUG_MSG: CALLING S/R GRAD_SIGMA
(PID.TID 0000.0001) DEBUG_MSG: CALLING S/R CALC_IVDC
(PID.TID 0000.0001) DEBUG_MSG: CALLING S/R GRAD_SIGMA
(PID.TID 0000.0001) DEBUG_MSG: CALLING S/R CALC_IVDC
(PID.TID 0000.0001) DEBUG_MSG: CALLING S/R GRAD_SIGMA
(PID.TID 0000.0001) DEBUG_MSG: CALLING S/R CALC_IVDC
(PID.TID 0000.0001) DEBUG_MSG: CALLING S/R GRAD_SIGMA
(PID.TID 0000.0001) DEBUG_MSG: CALLING S/R CALC_IVDC
(PID.TID 0000.0001) DEBUG_MSG: CALLING S/R GRAD_SIGMA
(PID.TID 0000.0001) DEBUG_MSG: CALLING S/R CALC_IVDC
(PID.TID 0000.0001) DEBUG_MSG: CALLING S/R GRAD_SIGMA
(PID.TID 0000.0001) DEBUG_MSG: CALLING S/R CALC_IVDC
(PID.TID 0000.0001) DEBUG_MSG: CALLING S/R GRAD_SIGMA
(PID.TID 0000.0001) DEBUG_MSG: CALLING S/R CALC_IVDC
(PID.TID 0000.0001) DEBUG_MSG: CALLING S/R GRAD_SIGMA
(PID.TID 0000.0001) DEBUG_MSG: CALLING S/R CALC_IVDC
(PID.TID 0000.0001) DEBUG_MSG: CALLING S/R GRAD_SIGMA
(PID.TID 0000.0001) DEBUG_MSG: CALLING S/R CALC_IVDC
(PID.TID 0000.0001) DEBUG_MSG: CALLING S/R GRAD_SIGMA
(PID.TID 0000.0001) DEBUG_MSG: CALLING S/R CALC_IVDC
(PID.TID 0000.0001) DEBUG_MSG: CALLING S/R GRAD_SIGMA
(PID.TID 0000.0001) DEBUG_MSG: CALLING S/R CALC_IVDC
(PID.TID 0000.0001) DEBUG_MSG: CALLING S/R GRAD_SIGMA
(PID.TID 0000.0001) DEBUG_MSG: CALLING S/R CALC_IVDC
(PID.TID 0000.0001) DEBUG_MSG: CALLING S/R GRAD_SIGMA
(PID.TID 0000.0001) DEBUG_MSG: CALLING S/R CALC_IVDC
(PID.TID 0000.0001) DEBUG_MSG: CALLING S/R GRAD_SIGMA
(PID.TID 0000.0001) DEBUG_MSG: CALLING S/R GMREDI_CALC_TENSOR
(PID.TID 0000.0001) DEBUG_MSG: LEAVING S/R DO_OCEANIC_PHYS
(PID.TID 0000.0001) DEBUG_MSG: CALLING S/R DYNAMICS
(PID.TID 0000.0001) DEBUG_MSG: ENTERED S/R DYNAMICS
DEBUG_STATS_RL:                EtaN (DYNAMICS)  min= -2.22883067687405E+00
DEBUG_STATS_RL:                EtaN (DYNAMICS)  max=  5.79114951072199E+00
DEBUG_STATS_RL:                EtaN (DYNAMICS) mean=  1.51119925497061E-02
DEBUG_STATS_RL:                EtaN (DYNAMICS) S.D.=  1.77414736345700E-01
DEBUG_STATS_RL:                Uvel (DYNAMICS)  min= -6.17601747112679E-01
DEBUG_STATS_RL:                Uvel (DYNAMICS)  max=  1.66340762822901E+00
DEBUG_STATS_RL:                Uvel (DYNAMICS) mean=  4.93948083393451E-04
DEBUG_STATS_RL:                Uvel (DYNAMICS) S.D.=  2.11509706333051E-02
DEBUG_STATS_RL:                Vvel (DYNAMICS)  min= -1.37440141752482E+00
DEBUG_STATS_RL:                Vvel (DYNAMICS)  max=  1.36295355382306E+00
DEBUG_STATS_RL:                Vvel (DYNAMICS) mean= -1.63933391190428E-04
DEBUG_STATS_RL:                Vvel (DYNAMICS) S.D.=  2.11586926665450E-02
DEBUG_STATS_RL:                Wvel (DYNAMICS)  min= -7.85725504968817E-04
DEBUG_STATS_RL:                Wvel (DYNAMICS)  max=  1.02014751517024E-04
DEBUG_STATS_RL:                Wvel (DYNAMICS) mean= -7.28111550779710E-07
DEBUG_STATS_RL:                Wvel (DYNAMICS) S.D.=  1.25172575199206E-05
DEBUG_STATS_RL:               Theta (DYNAMICS)  min=  1.63854990695468E+01
DEBUG_STATS_RL:               Theta (DYNAMICS)  max=  2.05112104770923E+01
DEBUG_STATS_RL:               Theta (DYNAMICS) mean=  1.99923444521571E+01
DEBUG_STATS_RL:               Theta (DYNAMICS) S.D.=  5.24596015703278E-02
DEBUG_STATS_RL:                Salt (DYNAMICS)  min=  3.27514981261887E+01
DEBUG_STATS_RL:                Salt (DYNAMICS)  max=  3.51299081236443E+01
DEBUG_STATS_RL:                Salt (DYNAMICS) mean=  3.49993225103945E+01
DEBUG_STATS_RL:                Salt (DYNAMICS) S.D.=  2.54998052144678E-02
DEBUG_STATS_RL:                  Gu (DYNAMICS)  min= -6.03105228474762E-01
DEBUG_STATS_RL:                  Gu (DYNAMICS)  max=  1.69732630284801E+00
DEBUG_STATS_RL:                  Gu (DYNAMICS) mean=  5.02178825896035E-04
DEBUG_STATS_RL:                  Gu (DYNAMICS) S.D.=  2.14509241427836E-02
DEBUG_STATS_RL:                  Gv (DYNAMICS)  min= -1.37436328466326E+00
DEBUG_STATS_RL:                  Gv (DYNAMICS)  max=  1.29479754538719E+00
DEBUG_STATS_RL:                  Gv (DYNAMICS) mean= -2.11281485990049E-04
DEBUG_STATS_RL:                  Gv (DYNAMICS) S.D.=  2.07767582118073E-02
DEBUG_STATS_RL:               GuNm1 (DYNAMICS)  min= -3.95077071876968E-05
DEBUG_STATS_RL:               GuNm1 (DYNAMICS)  max=  4.52911002552518E-05
DEBUG_STATS_RL:               GuNm1 (DYNAMICS) mean=  9.72867667260273E-09
DEBUG_STATS_RL:               GuNm1 (DYNAMICS) S.D.=  1.48535701407613E-06
DEBUG_STATS_RL:               GvNm1 (DYNAMICS)  min= -1.06582296512828E-04
DEBUG_STATS_RL:               GvNm1 (DYNAMICS)  max=  2.50096895144277E-05
DEBUG_STATS_RL:               GvNm1 (DYNAMICS) mean= -5.24743584156904E-08
DEBUG_STATS_RL:               GvNm1 (DYNAMICS) S.D.=  1.68422967757920E-06
DEBUG_STATS_RL:               GtNm1 (DYNAMICS)  min= -2.19255404386451E-05
DEBUG_STATS_RL:               GtNm1 (DYNAMICS)  max=  1.18092725253833E-06
DEBUG_STATS_RL:               GtNm1 (DYNAMICS) mean= -4.59622863189760E-09
DEBUG_STATS_RL:               GtNm1 (DYNAMICS) S.D.=  2.19187736476735E-07
DEBUG_STATS_RL:               GsNm1 (DYNAMICS)  min= -5.57690942412456E-06
DEBUG_STATS_RL:               GsNm1 (DYNAMICS)  max=  7.08332731712549E-07
DEBUG_STATS_RL:               GsNm1 (DYNAMICS) mean= -1.63482245503297E-09
DEBUG_STATS_RL:               GsNm1 (DYNAMICS) S.D.=  6.66364493976810E-08
(PID.TID 0000.0001) DEBUG_MSG: LEAVING S/R DYNAMICS
DEBUG_STATS_RL:    cg2d_b (SOLVE_FOR_PRESSURE)  min= -5.68634359655165E+05
DEBUG_STATS_RL:    cg2d_b (SOLVE_FOR_PRESSURE)  max=  3.73259931292381E+05
DEBUG_STATS_RL:    cg2d_b (SOLVE_FOR_PRESSURE) mean= -1.54178347417300E+03
DEBUG_STATS_RL:    cg2d_b (SOLVE_FOR_PRESSURE) S.D.=  1.72083432612597E+04
 cg2d: Sum(rhs),rhsMax =  -1.19842968335175E+01  1.08930805914428E+02
(PID.TID 0000.0001)  cg2d: iter=     1 ; resid.=  2.72416175641187E-02
(PID.TID 0000.0001)  cg2d: iter=     2 ; resid.=  3.79281745289890E-03
(PID.TID 0000.0001)  cg2d: iter=     3 ; resid.=  6.31204721759707E-04
(PID.TID 0000.0001)  cg2d: iter=     4 ; resid.=  1.36358526675579E-04
(PID.TID 0000.0001)  cg2d: iter=     5 ; resid.=  4.36276928587541E-05
(PID.TID 0000.0001)  cg2d: iter=     6 ; resid.=  1.29790866510241E-05
(PID.TID 0000.0001)  cg2d: iter=     7 ; resid.=  2.93394058009481E-06
(PID.TID 0000.0001)  cg2d: iter=     8 ; resid.=  6.15323752529693E-07
(PID.TID 0000.0001)  cg2d: iter=     9 ; resid.=  1.32218292699524E-07
(PID.TID 0000.0001)  cg2d: iter=    10 ; resid.=  3.85219023647945E-08
DEBUG_STATS_RL:    cg2d_x (SOLVE_FOR_PRESSURE)  min= -3.00753826870526E+01
DEBUG_STATS_RL:    cg2d_x (SOLVE_FOR_PRESSURE)  max=  5.01325002974355E+01
DEBUG_STATS_RL:    cg2d_x (SOLVE_FOR_PRESSURE) mean=  1.53544020103295E-01
DEBUG_STATS_RL:    cg2d_x (SOLVE_FOR_PRESSURE) S.D.=  1.62903844313572E+00
(PID.TID 0000.0001)      cg2d_init_res =   3.88369361080055E-01
(PID.TID 0000.0001)      cg2d_iters(min,last) =      -1      10
(PID.TID 0000.0001)      cg2d_last_res =   3.85219023647945E-08
(PID.TID 0000.0001) DEBUG_MSG: CALLING S/R UPDATE_ETAH
(PID.TID 0000.0001) DEBUG_MSG: ENTERED S/R CALC_R_STAR
(PID.TID 0000.0001) DEBUG_MSG: LEAVING S/R CALC_R_STAR
(PID.TID 0000.0001) DEBUG_MSG: CALLING S/R DO_STAGGER_FIELDS_EXCH.
(PID.TID 0000.0001) DEBUG_MSG: CALLING S/R THERMODYNAMICS
(PID.TID 0000.0001) DEBUG_MSG: ENTERED S/R THERMODYNAMICS
(PID.TID 0000.0001) DEBUG_MSG: CALLING S/R TEMP_INTEGRATE
(PID.TID 0000.0001) DEBUG_MSG: CALLING S/R SALT_INTEGRATE
DEBUG_STATS_RL:          Uvel (THERMODYNAMICS)  min= -6.72773782010305E-01
DEBUG_STATS_RL:          Uvel (THERMODYNAMICS)  max=  1.80196507761015E+00
DEBUG_STATS_RL:          Uvel (THERMODYNAMICS) mean=  5.34755126411885E-04
DEBUG_STATS_RL:          Uvel (THERMODYNAMICS) S.D.=  2.24090662328777E-02
DEBUG_STATS_RL:          Vvel (THERMODYNAMICS)  min= -1.47812666937315E+00
DEBUG_STATS_RL:          Vvel (THERMODYNAMICS)  max=  1.43493920919717E+00
DEBUG_STATS_RL:          Vvel (THERMODYNAMICS) mean= -1.96460747499546E-04
DEBUG_STATS_RL:          Vvel (THERMODYNAMICS) S.D.=  2.20226694183204E-02
DEBUG_STATS_RL:          Wvel (THERMODYNAMICS)  min= -6.16493348301994E-04
DEBUG_STATS_RL:          Wvel (THERMODYNAMICS)  max=  7.30644571876375E-05
DEBUG_STATS_RL:          Wvel (THERMODYNAMICS) mean= -6.79487849495861E-07
DEBUG_STATS_RL:          Wvel (THERMODYNAMICS) S.D.=  1.12829076240061E-05
DEBUG_STATS_RL:         Theta (THERMODYNAMICS)  min=  1.63624587720106E+01
DEBUG_STATS_RL:         Theta (THERMODYNAMICS)  max=  2.05803653038839E+01
DEBUG_STATS_RL:         Theta (THERMODYNAMICS) mean=  1.99929140664639E+01
DEBUG_STATS_RL:         Theta (THERMODYNAMICS) S.D.=  5.27681365844658E-02
DEBUG_STATS_RL:          Salt (THERMODYNAMICS)  min=  3.24657007130690E+01
DEBUG_STATS_RL:          Salt (THERMODYNAMICS)  max=  3.51362645916122E+01
DEBUG_STATS_RL:          Salt (THERMODYNAMICS) mean=  3.49992722170178E+01
DEBUG_STATS_RL:          Salt (THERMODYNAMICS) S.D.=  2.85985382108692E-02
DEBUG_STATS_RL:         GtNm1 (THERMODYNAMICS)  min= -2.35541509442342E-05
DEBUG_STATS_RL:         GtNm1 (THERMODYNAMICS)  max=  1.36334568476647E-06
DEBUG_STATS_RL:         GtNm1 (THERMODYNAMICS) mean= -4.75032209065607E-09
DEBUG_STATS_RL:         GtNm1 (THERMODYNAMICS) S.D.=  2.31113176645969E-07
DEBUG_STATS_RL:         GsNm1 (THERMODYNAMICS)  min= -6.32298200369176E-06
DEBUG_STATS_RL:         GsNm1 (THERMODYNAMICS)  max=  7.54639699988108E-07
DEBUG_STATS_RL:         GsNm1 (THERMODYNAMICS) mean= -1.84041321089484E-09
DEBUG_STATS_RL:         GsNm1 (THERMODYNAMICS) S.D.=  7.60354439120076E-08
(PID.TID 0000.0001) DEBUG_MSG: LEAVING S/R THERMODYNAMICS
(PID.TID 0000.0001) // =======================================================
(PID.TID 0000.0001) // Begin MONITOR dynamic field statistics
(PID.TID 0000.0001) // =======================================================
(PID.TID 0000.0001) %MON time_tsnumber                =                     8
(PID.TID 0000.0001) %MON time_secondsf                =   7.2000000000000E+03
(PID.TID 0000.0001) %MON dynstat_eta_max              =   5.1103466114914E+00
(PID.TID 0000.0001) %MON dynstat_eta_min              =  -3.0657882360095E+00
(PID.TID 0000.0001) %MON dynstat_eta_mean             =   1.5169261820405E-02
(PID.TID 0000.0001) %MON dynstat_eta_sd               =   1.6393994282879E-01
(PID.TID 0000.0001) %MON dynstat_eta_del2             =   4.1329531758931E-03
(PID.TID 0000.0001) %MON dynstat_uvel_max             =   1.8019650776101E+00
(PID.TID 0000.0001) %MON dynstat_uvel_min             =  -6.7277378201030E-01
(PID.TID 0000.0001) %MON dynstat_uvel_mean            =   2.3182596241603E-04
(PID.TID 0000.0001) %MON dynstat_uvel_sd              =   7.4873729896576E-03
(PID.TID 0000.0001) %MON dynstat_uvel_del2            =   1.6635985418841E-04
(PID.TID 0000.0001) %MON dynstat_vvel_max             =   1.4349392091972E+00
(PID.TID 0000.0001) %MON dynstat_vvel_min             =  -1.4781266693732E+00
(PID.TID 0000.0001) %MON dynstat_vvel_mean            =  -1.7798801929829E-05
(PID.TID 0000.0001) %MON dynstat_vvel_sd              =   7.5626911991590E-03
(PID.TID 0000.0001) %MON dynstat_vvel_del2            =   2.2543482711478E-04
(PID.TID 0000.0001) %MON dynstat_wvel_max             =   7.3064457187638E-05
(PID.TID 0000.0001) %MON dynstat_wvel_min             =  -6.1649334830199E-04
(PID.TID 0000.0001) %MON dynstat_wvel_mean            =  -5.6868207414562E-07
(PID.TID 0000.0001) %MON dynstat_wvel_sd              =   1.0221804484947E-05
(PID.TID 0000.0001) %MON dynstat_wvel_del2            =   8.5124942242746E-08
(PID.TID 0000.0001) %MON dynstat_theta_max            =   2.0580365303884E+01
(PID.TID 0000.0001) %MON dynstat_theta_min            =   1.6362458772011E+01
(PID.TID 0000.0001) %MON dynstat_theta_mean           =   1.9997687014739E+01
(PID.TID 0000.0001) %MON dynstat_theta_sd             =   1.9357265187516E-02
(PID.TID 0000.0001) %MON dynstat_theta_del2           =   3.5614542491256E-04
(PID.TID 0000.0001) %MON dynstat_salt_max             =   3.5136264591612E+01
(PID.TID 0000.0001) %MON dynstat_salt_min             =   3.2465700713069E+01
(PID.TID 0000.0001) %MON dynstat_salt_mean            =   3.4999873985170E+01
(PID.TID 0000.0001) %MON dynstat_salt_sd              =   8.8931287541471E-03
(PID.TID 0000.0001) %MON dynstat_salt_del2            =   3.0852823486281E-04
(PID.TID 0000.0001) %MON dynstat_sst_max              =   2.0580365303884E+01
(PID.TID 0000.0001) %MON dynstat_sst_min              =   1.6362458772011E+01
(PID.TID 0000.0001) %MON dynstat_sst_mean             =   2.0004296325902E+01
(PID.TID 0000.0001) %MON dynstat_sst_sd               =   1.3656951236464E-01
(PID.TID 0000.0001) %MON dynstat_sst_del2             =   3.3854895939151E-03
(PID.TID 0000.0001) %MON dynstat_sss_max              =   3.5136264591612E+01
(PID.TID 0000.0001) %MON dynstat_sss_min              =   3.2465700713069E+01
(PID.TID 0000.0001) %MON dynstat_sss_mean             =   3.4993324217524E+01
(PID.TID 0000.0001) %MON dynstat_sss_sd               =   1.0567773401530E-01
(PID.TID 0000.0001) %MON dynstat_sss_del2             =   4.1696340238292E-03
(PID.TID 0000.0001) %MON forcing_qnet_max             =   8.4013299866943E+04
(PID.TID 0000.0001) %MON forcing_qnet_min             =  -1.3524299804688E+04
(PID.TID 0000.0001) %MON forcing_qnet_mean            =  -2.0163114732582E+02
(PID.TID 0000.0001) %MON forcing_qnet_sd              =   1.7178320293727E+03
(PID.TID 0000.0001) %MON forcing_qnet_del2            =   5.4353303111935E+01
(PID.TID 0000.0001) %MON forcing_qsw_max              =   0.0000000000000E+00
(PID.TID 0000.0001) %MON forcing_qsw_min              =  -1.0470686117998E+02
(PID.TID 0000.0001) %MON forcing_qsw_mean             =  -2.2133252878415E+01
(PID.TID 0000.0001) %MON forcing_qsw_sd               =   2.9899425496756E+01
(PID.TID 0000.0001) %MON forcing_qsw_del2             =   2.2592266799121E-01
(PID.TID 0000.0001) %MON forcing_empmr_max            =   1.0318516753614E-02
(PID.TID 0000.0001) %MON forcing_empmr_min            =  -1.4828503131866E-01
(PID.TID 0000.0001) %MON forcing_empmr_mean           =  -5.7934403380603E-04
(PID.TID 0000.0001) %MON forcing_empmr_sd             =   6.5355979961780E-03
(PID.TID 0000.0001) %MON forcing_empmr_del2           =   2.5770283676551E-04
(PID.TID 0000.0001) %MON forcing_fu_max               =   9.7339389149794E-01
(PID.TID 0000.0001) %MON forcing_fu_min               =  -5.4743751716039E-01
(PID.TID 0000.0001) %MON forcing_fu_mean              =  -2.9189694108323E-03
(PID.TID 0000.0001) %MON forcing_fu_sd                =   1.1107238517672E-01
(PID.TID 0000.0001) %MON forcing_fu_del2              =   9.8834691429186E-04
(PID.TID 0000.0001) %MON forcing_fv_max               =   4.9593597435573E-01
(PID.TID 0000.0001) %MON forcing_fv_min               =  -5.5536241713667E-01
(PID.TID 0000.0001) %MON forcing_fv_mean              =  -7.7824244642749E-03
(PID.TID 0000.0001) %MON forcing_fv_sd                =   9.4561627175284E-02
(PID.TID 0000.0001) %MON forcing_fv_del2              =   8.5016283514809E-04
(PID.TID 0000.0001) %MON trAdv_CFL_u_max              =   5.7608201451610E-03
(PID.TID 0000.0001) %MON trAdv_CFL_v_max              =   8.0162000916085E-03
(PID.TID 0000.0001) %MON trAdv_CFL_w_max              =   1.3883172337476E-02
(PID.TID 0000.0001) %MON advcfl_uvel_max              =   6.0091330145936E-03
(PID.TID 0000.0001) %MON advcfl_vvel_max              =   4.6827300627368E-03
(PID.TID 0000.0001) %MON advcfl_wvel_max              =   1.0315480439559E-02
(PID.TID 0000.0001) %MON advcfl_W_hf_max              =   1.3883172337476E-02
(PID.TID 0000.0001) %MON pe_b_mean                    =   3.6110605256516E-05
(PID.TID 0000.0001) %MON ke_max                       =   1.4370854766219E+00
(PID.TID 0000.0001) %MON ke_mean                      =   5.2314636421980E-05
(PID.TID 0000.0001) %MON ke_vol                       =   1.3398077819380E+18
(PID.TID 0000.0001) %MON vort_r_min                   =  -4.8788093472095E-06
(PID.TID 0000.0001) %MON vort_r_max                   =   4.7364321874960E-06
(PID.TID 0000.0001) %MON vort_a_mean                  =  -2.0549865324846E-05
(PID.TID 0000.0001) %MON vort_a_sd                    =   7.5259270352489E-05
(PID.TID 0000.0001) %MON vort_p_mean                  =  -2.4783433982950E-05
(PID.TID 0000.0001) %MON vort_p_sd                    =   1.2810600429400E-04
(PID.TID 0000.0001) %MON surfExpan_theta_mean         =   1.7528818806948E-06
(PID.TID 0000.0001) %MON surfExpan_salt_mean          =   7.1599430038044E-07
(PID.TID 0000.0001) // =======================================================
(PID.TID 0000.0001) // End MONITOR dynamic field statistics
(PID.TID 0000.0001) // =======================================================
(PID.TID 0000.0001) DEBUG_MSG: LEAVING S/R FORWARD_STEP
(PID.TID 0000.0001) DEBUG_MSG: ENTERED S/R FORWARD_STEP
(PID.TID 0000.0001) DEBUG_MSG: CALLING S/R LOAD_FIELDS_DRIVER
(PID.TID 0000.0001) DEBUG_MSG: ENTERED S/R LOAD_FIELDS_DRIVER
(PID.TID 0000.0001) DEBUG_MSG: CALLING S/R EXTERNAL_FIELDS_LOAD
(PID.TID 0000.0001) DEBUG_MSG: LEAVING S/R LOAD_FIELDS_DRIVER
(PID.TID 0000.0001) DEBUG_MSG: CALLING S/R DO_ATMOSPHERIC_PHYS
(PID.TID 0000.0001) DEBUG_MSG: ENTERED S/R DO_ATMOSPHERIC_PHYS
(PID.TID 0000.0001) DEBUG_MSG: LEAVING S/R DO_ATMOSPHERIC_PHYS
(PID.TID 0000.0001) DEBUG_MSG: CALLING S/R DO_OCEANIC_PHYS
(PID.TID 0000.0001) DEBUG_MSG: ENTERED S/R DO_OCEANIC_PHYS
(PID.TID 0000.0001) DEBUG_MSG: CALLING S/R EXTERNAL_FORCING_SURF
(PID.TID 0000.0001) DEBUG_MSG: CALLING S/R FIND_RHO_2D (xNr)
(PID.TID 0000.0001) DEBUG_MSG:                  ENTERING UPWARD K LOOP (bi=   1, bj=   1)
(PID.TID 0000.0001) DEBUG_MSG: CALLING S/R GRAD_SIGMA
(PID.TID 0000.0001) DEBUG_MSG: CALLING S/R CALC_IVDC
(PID.TID 0000.0001) DEBUG_MSG: CALLING S/R GRAD_SIGMA
(PID.TID 0000.0001) DEBUG_MSG: CALLING S/R CALC_IVDC
(PID.TID 0000.0001) DEBUG_MSG: CALLING S/R GRAD_SIGMA
(PID.TID 0000.0001) DEBUG_MSG: CALLING S/R CALC_IVDC
(PID.TID 0000.0001) DEBUG_MSG: CALLING S/R GRAD_SIGMA
(PID.TID 0000.0001) DEBUG_MSG: CALLING S/R CALC_IVDC
(PID.TID 0000.0001) DEBUG_MSG: CALLING S/R GRAD_SIGMA
(PID.TID 0000.0001) DEBUG_MSG: CALLING S/R CALC_IVDC
(PID.TID 0000.0001) DEBUG_MSG: CALLING S/R GRAD_SIGMA
(PID.TID 0000.0001) DEBUG_MSG: CALLING S/R CALC_IVDC
(PID.TID 0000.0001) DEBUG_MSG: CALLING S/R GRAD_SIGMA
(PID.TID 0000.0001) DEBUG_MSG: CALLING S/R CALC_IVDC
(PID.TID 0000.0001) DEBUG_MSG: CALLING S/R GRAD_SIGMA
(PID.TID 0000.0001) DEBUG_MSG: CALLING S/R CALC_IVDC
(PID.TID 0000.0001) DEBUG_MSG: CALLING S/R GRAD_SIGMA
(PID.TID 0000.0001) DEBUG_MSG: CALLING S/R CALC_IVDC
(PID.TID 0000.0001) DEBUG_MSG: CALLING S/R GRAD_SIGMA
(PID.TID 0000.0001) DEBUG_MSG: CALLING S/R CALC_IVDC
(PID.TID 0000.0001) DEBUG_MSG: CALLING S/R GRAD_SIGMA
(PID.TID 0000.0001) DEBUG_MSG: CALLING S/R CALC_IVDC
(PID.TID 0000.0001) DEBUG_MSG: CALLING S/R GRAD_SIGMA
(PID.TID 0000.0001) DEBUG_MSG: CALLING S/R CALC_IVDC
(PID.TID 0000.0001) DEBUG_MSG: CALLING S/R GRAD_SIGMA
(PID.TID 0000.0001) DEBUG_MSG: CALLING S/R CALC_IVDC
(PID.TID 0000.0001) DEBUG_MSG: CALLING S/R GRAD_SIGMA
(PID.TID 0000.0001) DEBUG_MSG: CALLING S/R CALC_IVDC
(PID.TID 0000.0001) DEBUG_MSG: CALLING S/R GRAD_SIGMA
(PID.TID 0000.0001) DEBUG_MSG: CALLING S/R CALC_IVDC
(PID.TID 0000.0001) DEBUG_MSG: CALLING S/R GRAD_SIGMA
(PID.TID 0000.0001) DEBUG_MSG: CALLING S/R GMREDI_CALC_TENSOR
(PID.TID 0000.0001) DEBUG_MSG: LEAVING S/R DO_OCEANIC_PHYS
(PID.TID 0000.0001) DEBUG_MSG: CALLING S/R DYNAMICS
(PID.TID 0000.0001) DEBUG_MSG: ENTERED S/R DYNAMICS
DEBUG_STATS_RL:                EtaN (DYNAMICS)  min= -3.06578823600950E+00
DEBUG_STATS_RL:                EtaN (DYNAMICS)  max=  5.11034661149144E+00
DEBUG_STATS_RL:                EtaN (DYNAMICS) mean=  1.56517863090484E-02
DEBUG_STATS_RL:                EtaN (DYNAMICS) S.D.=  1.66058964723102E-01
DEBUG_STATS_RL:                Uvel (DYNAMICS)  min= -6.72773782010305E-01
DEBUG_STATS_RL:                Uvel (DYNAMICS)  max=  1.80196507761015E+00
DEBUG_STATS_RL:                Uvel (DYNAMICS) mean=  5.34755126411885E-04
DEBUG_STATS_RL:                Uvel (DYNAMICS) S.D.=  2.24090662328777E-02
DEBUG_STATS_RL:                Vvel (DYNAMICS)  min= -1.47812666937315E+00
DEBUG_STATS_RL:                Vvel (DYNAMICS)  max=  1.43493920919717E+00
DEBUG_STATS_RL:                Vvel (DYNAMICS) mean= -1.96460747499546E-04
DEBUG_STATS_RL:                Vvel (DYNAMICS) S.D.=  2.20226694183204E-02
DEBUG_STATS_RL:                Wvel (DYNAMICS)  min= -6.16493348301994E-04
DEBUG_STATS_RL:                Wvel (DYNAMICS)  max=  7.30644571876375E-05
DEBUG_STATS_RL:                Wvel (DYNAMICS) mean= -6.79487849495861E-07
DEBUG_STATS_RL:                Wvel (DYNAMICS) S.D.=  1.12829076240061E-05
DEBUG_STATS_RL:               Theta (DYNAMICS)  min=  1.63624587720106E+01
DEBUG_STATS_RL:               Theta (DYNAMICS)  max=  2.05803653038839E+01
DEBUG_STATS_RL:               Theta (DYNAMICS) mean=  1.99929140664639E+01
DEBUG_STATS_RL:               Theta (DYNAMICS) S.D.=  5.27681365844658E-02
DEBUG_STATS_RL:                Salt (DYNAMICS)  min=  3.24657007130690E+01
DEBUG_STATS_RL:                Salt (DYNAMICS)  max=  3.51362645916122E+01
DEBUG_STATS_RL:                Salt (DYNAMICS) mean=  3.49992722170178E+01
DEBUG_STATS_RL:                Salt (DYNAMICS) S.D.=  2.85985382108692E-02
DEBUG_STATS_RL:                  Gu (DYNAMICS)  min= -6.57314813340279E-01
DEBUG_STATS_RL:                  Gu (DYNAMICS)  max=  1.83414017316295E+00
DEBUG_STATS_RL:                  Gu (DYNAMICS) mean=  5.39819588790758E-04
DEBUG_STATS_RL:                  Gu (DYNAMICS) S.D.=  2.27183875054219E-02
DEBUG_STATS_RL:                  Gv (DYNAMICS)  min= -1.47838676016462E+00
DEBUG_STATS_RL:                  Gv (DYNAMICS)  max=  1.36196327526323E+00
DEBUG_STATS_RL:                  Gv (DYNAMICS) mean= -2.44007001940260E-04
DEBUG_STATS_RL:                  Gv (DYNAMICS) S.D.=  2.16661574823749E-02
DEBUG_STATS_RL:               GuNm1 (DYNAMICS)  min= -4.46212491321928E-05
DEBUG_STATS_RL:               GuNm1 (DYNAMICS)  max=  4.71940257146144E-05
DEBUG_STATS_RL:               GuNm1 (DYNAMICS) mean=  6.91598319475105E-09
DEBUG_STATS_RL:               GuNm1 (DYNAMICS) S.D.=  1.49376490092348E-06
DEBUG_STATS_RL:               GvNm1 (DYNAMICS)  min= -1.11074280522831E-04
DEBUG_STATS_RL:               GvNm1 (DYNAMICS)  max=  2.28619992808086E-05
DEBUG_STATS_RL:               GvNm1 (DYNAMICS) mean= -5.29873110629806E-08
DEBUG_STATS_RL:               GvNm1 (DYNAMICS) S.D.=  1.76022635970946E-06
DEBUG_STATS_RL:               GtNm1 (DYNAMICS)  min= -2.35541509442342E-05
DEBUG_STATS_RL:               GtNm1 (DYNAMICS)  max=  1.36334568476647E-06
DEBUG_STATS_RL:               GtNm1 (DYNAMICS) mean= -4.75032209065607E-09
DEBUG_STATS_RL:               GtNm1 (DYNAMICS) S.D.=  2.31113176645969E-07
DEBUG_STATS_RL:               GsNm1 (DYNAMICS)  min= -6.32298200369176E-06
DEBUG_STATS_RL:               GsNm1 (DYNAMICS)  max=  7.54639699988108E-07
DEBUG_STATS_RL:               GsNm1 (DYNAMICS) mean= -1.84041321089484E-09
DEBUG_STATS_RL:               GsNm1 (DYNAMICS) S.D.=  7.60354439120076E-08
(PID.TID 0000.0001) DEBUG_MSG: LEAVING S/R DYNAMICS
DEBUG_STATS_RL:    cg2d_b (SOLVE_FOR_PRESSURE)  min= -4.89270073221240E+05
DEBUG_STATS_RL:    cg2d_b (SOLVE_FOR_PRESSURE)  max=  4.18863358533851E+05
DEBUG_STATS_RL:    cg2d_b (SOLVE_FOR_PRESSURE) mean= -1.59277140234663E+03
DEBUG_STATS_RL:    cg2d_b (SOLVE_FOR_PRESSURE) S.D.=  1.60696937544853E+04
 cg2d: Sum(rhs),rhsMax =  -1.43888825082271E+01  9.37273354675955E+01
(PID.TID 0000.0001)  cg2d: iter=     1 ; resid.=  3.21718801717160E-02
(PID.TID 0000.0001)  cg2d: iter=     2 ; resid.=  4.26907268447724E-03
(PID.TID 0000.0001)  cg2d: iter=     3 ; resid.=  7.17452700807635E-04
(PID.TID 0000.0001)  cg2d: iter=     4 ; resid.=  1.59807098144768E-04
(PID.TID 0000.0001)  cg2d: iter=     5 ; resid.=  5.52133552377574E-05
(PID.TID 0000.0001)  cg2d: iter=     6 ; resid.=  1.46498576386664E-05
(PID.TID 0000.0001)  cg2d: iter=     7 ; resid.=  3.21105863329719E-06
(PID.TID 0000.0001)  cg2d: iter=     8 ; resid.=  7.11639557466931E-07
(PID.TID 0000.0001)  cg2d: iter=     9 ; resid.=  1.70974774831663E-07
(PID.TID 0000.0001)  cg2d: iter=    10 ; resid.=  4.86823287560576E-08
DEBUG_STATS_RL:    cg2d_x (SOLVE_FOR_PRESSURE)  min= -3.41562007937328E+01
DEBUG_STATS_RL:    cg2d_x (SOLVE_FOR_PRESSURE)  max=  4.31772603388071E+01
DEBUG_STATS_RL:    cg2d_x (SOLVE_FOR_PRESSURE) mean=  1.58863614595812E-01
DEBUG_STATS_RL:    cg2d_x (SOLVE_FOR_PRESSURE) S.D.=  1.51559635336952E+00
(PID.TID 0000.0001)      cg2d_init_res =   4.23147007728154E-01
(PID.TID 0000.0001)      cg2d_iters(min,last) =      -1      10
(PID.TID 0000.0001)      cg2d_last_res =   4.86823287560576E-08
(PID.TID 0000.0001) DEBUG_MSG: CALLING S/R UPDATE_ETAH
(PID.TID 0000.0001) DEBUG_MSG: ENTERED S/R CALC_R_STAR
(PID.TID 0000.0001) DEBUG_MSG: LEAVING S/R CALC_R_STAR
(PID.TID 0000.0001) DEBUG_MSG: CALLING S/R DO_STAGGER_FIELDS_EXCH.
(PID.TID 0000.0001) DEBUG_MSG: CALLING S/R THERMODYNAMICS
(PID.TID 0000.0001) DEBUG_MSG: ENTERED S/R THERMODYNAMICS
(PID.TID 0000.0001) DEBUG_MSG: CALLING S/R TEMP_INTEGRATE
(PID.TID 0000.0001) DEBUG_MSG: CALLING S/R SALT_INTEGRATE
DEBUG_STATS_RL:          Uvel (THERMODYNAMICS)  min= -7.18023649698835E-01
DEBUG_STATS_RL:          Uvel (THERMODYNAMICS)  max=  1.91158430854726E+00
DEBUG_STATS_RL:          Uvel (THERMODYNAMICS) mean=  5.65606003833128E-04
DEBUG_STATS_RL:          Uvel (THERMODYNAMICS) S.D.=  2.35243461295191E-02
DEBUG_STATS_RL:          Vvel (THERMODYNAMICS)  min= -1.55201374724395E+00
DEBUG_STATS_RL:          Vvel (THERMODYNAMICS)  max=  1.47465878443321E+00
DEBUG_STATS_RL:          Vvel (THERMODYNAMICS) mean= -2.27716639417516E-04
DEBUG_STATS_RL:          Vvel (THERMODYNAMICS) S.D.=  2.26177732281643E-02
DEBUG_STATS_RL:          Wvel (THERMODYNAMICS)  min= -5.69491514229396E-04
DEBUG_STATS_RL:          Wvel (THERMODYNAMICS)  max=  6.11637062558036E-05
DEBUG_STATS_RL:          Wvel (THERMODYNAMICS) mean= -6.22313483010281E-07
DEBUG_STATS_RL:          Wvel (THERMODYNAMICS) S.D.=  1.02290195145779E-05
DEBUG_STATS_RL:         Theta (THERMODYNAMICS)  min=  1.63395032172348E+01
DEBUG_STATS_RL:         Theta (THERMODYNAMICS)  max=  2.06485868261286E+01
DEBUG_STATS_RL:         Theta (THERMODYNAMICS) mean=  1.99934134756758E+01
DEBUG_STATS_RL:         Theta (THERMODYNAMICS) S.D.=  5.31725701832234E-02
DEBUG_STATS_RL:          Salt (THERMODYNAMICS)  min=  3.21879653217298E+01
DEBUG_STATS_RL:          Salt (THERMODYNAMICS)  max=  3.51361715334198E+01
DEBUG_STATS_RL:          Salt (THERMODYNAMICS) mean=  3.49992209195389E+01
DEBUG_STATS_RL:          Salt (THERMODYNAMICS) S.D.=  3.16247740286882E-02
DEBUG_STATS_RL:         GtNm1 (THERMODYNAMICS)  min= -2.42536293005039E-05
DEBUG_STATS_RL:         GtNm1 (THERMODYNAMICS)  max=  1.54020932167145E-06
DEBUG_STATS_RL:         GtNm1 (THERMODYNAMICS) mean= -4.75253524796147E-09
DEBUG_STATS_RL:         GtNm1 (THERMODYNAMICS) S.D.=  2.35079412261771E-07
DEBUG_STATS_RL:         GsNm1 (THERMODYNAMICS)  min= -7.02133787879187E-06
DEBUG_STATS_RL:         GsNm1 (THERMODYNAMICS)  max=  8.86677132061717E-07
DEBUG_STATS_RL:         GsNm1 (THERMODYNAMICS) mean= -2.02303428979451E-09
DEBUG_STATS_RL:         GsNm1 (THERMODYNAMICS) S.D.=  8.49705522183934E-08
(PID.TID 0000.0001) DEBUG_MSG: LEAVING S/R THERMODYNAMICS
(PID.TID 0000.0001) // =======================================================
(PID.TID 0000.0001) // Begin MONITOR dynamic field statistics
(PID.TID 0000.0001) // =======================================================
(PID.TID 0000.0001) %MON time_tsnumber                =                     9
(PID.TID 0000.0001) %MON time_secondsf                =   8.1000000000000E+03
(PID.TID 0000.0001) %MON dynstat_eta_max              =   4.4013517106137E+00
(PID.TID 0000.0001) %MON dynstat_eta_min              =  -3.4817737703763E+00
(PID.TID 0000.0001) %MON dynstat_eta_mean             =   1.5670920610437E-02
(PID.TID 0000.0001) %MON dynstat_eta_sd               =   1.5254962370080E-01
(PID.TID 0000.0001) %MON dynstat_eta_del2             =   3.7078154265619E-03
(PID.TID 0000.0001) %MON dynstat_uvel_max             =   1.9115843085473E+00
(PID.TID 0000.0001) %MON dynstat_uvel_min             =  -7.1802364969884E-01
(PID.TID 0000.0001) %MON dynstat_uvel_mean            =   2.6307913276760E-04
(PID.TID 0000.0001) %MON dynstat_uvel_sd              =   7.8215601553781E-03
(PID.TID 0000.0001) %MON dynstat_uvel_del2            =   1.7052198942886E-04
(PID.TID 0000.0001) %MON dynstat_vvel_max             =   1.4746587844332E+00
(PID.TID 0000.0001) %MON dynstat_vvel_min             =  -1.5520137472439E+00
(PID.TID 0000.0001) %MON dynstat_vvel_mean            =  -2.1676092534793E-05
(PID.TID 0000.0001) %MON dynstat_vvel_sd              =   7.5925016480351E-03
(PID.TID 0000.0001) %MON dynstat_vvel_del2            =   2.2668723761044E-04
(PID.TID 0000.0001) %MON dynstat_wvel_max             =   6.1163706255804E-05
(PID.TID 0000.0001) %MON dynstat_wvel_min             =  -5.6949151422940E-04
(PID.TID 0000.0001) %MON dynstat_wvel_mean            =  -4.9667160305912E-07
(PID.TID 0000.0001) %MON dynstat_wvel_sd              =   8.8846739910952E-06
(PID.TID 0000.0001) %MON dynstat_wvel_del2            =   7.6062916270441E-08
(PID.TID 0000.0001) %MON dynstat_theta_max            =   2.0648586826129E+01
(PID.TID 0000.0001) %MON dynstat_theta_min            =   1.6339503217235E+01
(PID.TID 0000.0001) %MON dynstat_theta_mean           =   1.9997698406535E+01
(PID.TID 0000.0001) %MON dynstat_theta_sd             =   1.9353253403412E-02
(PID.TID 0000.0001) %MON dynstat_theta_del2           =   3.5955549459153E-04
(PID.TID 0000.0001) %MON dynstat_salt_max             =   3.5136171533420E+01
(PID.TID 0000.0001) %MON dynstat_salt_min             =   3.2187965321730E+01
(PID.TID 0000.0001) %MON dynstat_salt_mean            =   3.4999867558301E+01
(PID.TID 0000.0001) %MON dynstat_salt_sd              =   9.8208499941583E-03
(PID.TID 0000.0001) %MON dynstat_salt_del2            =   3.4188468200761E-04
(PID.TID 0000.0001) %MON dynstat_sst_max              =   2.0648586826129E+01
(PID.TID 0000.0001) %MON dynstat_sst_min              =   1.6339503217235E+01
(PID.TID 0000.0001) %MON dynstat_sst_mean             =   2.0009364598249E+01
(PID.TID 0000.0001) %MON dynstat_sst_sd               =   1.3935528583135E-01
(PID.TID 0000.0001) %MON dynstat_sst_del2             =   3.4404932347978E-03
(PID.TID 0000.0001) %MON dynstat_sss_max              =   3.5136171533420E+01
(PID.TID 0000.0001) %MON dynstat_sss_min              =   3.2187965321730E+01
(PID.TID 0000.0001) %MON dynstat_sss_mean             =   3.4992633242281E+01
(PID.TID 0000.0001) %MON dynstat_sss_sd               =   1.1709447109549E-01
(PID.TID 0000.0001) %MON dynstat_sss_del2             =   4.6232815618671E-03
(PID.TID 0000.0001) %MON forcing_qnet_max             =   9.0504285935820E+04
(PID.TID 0000.0001) %MON forcing_qnet_min             =  -7.6708438019081E+03
(PID.TID 0000.0001) %MON forcing_qnet_mean            =  -1.9225677667324E+02
(PID.TID 0000.0001) %MON forcing_qnet_sd              =   1.7381689126246E+03
(PID.TID 0000.0001) %MON forcing_qnet_del2            =   3.1689857943523E+01
(PID.TID 0000.0001) %MON forcing_qsw_max              =   0.0000000000000E+00
(PID.TID 0000.0001) %MON forcing_qsw_min              =  -1.0669669294749E+02
(PID.TID 0000.0001) %MON forcing_qsw_mean             =  -2.2763418948641E+01
(PID.TID 0000.0001) %MON forcing_qsw_sd               =   3.0753937662876E+01
(PID.TID 0000.0001) %MON forcing_qsw_del2             =   2.3377328924925E-01
(PID.TID 0000.0001) %MON forcing_empmr_max            =   1.0212142951787E-02
(PID.TID 0000.0001) %MON forcing_empmr_min            =  -1.4675790071487E-01
(PID.TID 0000.0001) %MON forcing_empmr_mean           =  -5.7690760853747E-04
(PID.TID 0000.0001) %MON forcing_empmr_sd             =   6.4693886209166E-03
(PID.TID 0000.0001) %MON forcing_empmr_del2           =   2.5507640813229E-04
(PID.TID 0000.0001) %MON forcing_fu_max               =   9.8792290675373E-01
(PID.TID 0000.0001) %MON forcing_fu_min               =  -5.5589086598036E-01
(PID.TID 0000.0001) %MON forcing_fu_mean              =  -2.7750774397694E-03
(PID.TID 0000.0001) %MON forcing_fu_sd                =   1.1061209535063E-01
(PID.TID 0000.0001) %MON forcing_fu_del2              =   9.7738087490869E-04
(PID.TID 0000.0001) %MON forcing_fv_max               =   4.9510261631758E-01
(PID.TID 0000.0001) %MON forcing_fv_min               =  -5.6413652288712E-01
(PID.TID 0000.0001) %MON forcing_fv_mean              =  -7.3422693495126E-03
(PID.TID 0000.0001) %MON forcing_fv_sd                =   9.4063810417576E-02
(PID.TID 0000.0001) %MON forcing_fv_del2              =   8.4496422025500E-04
(PID.TID 0000.0001) %MON trAdv_CFL_u_max              =   6.1439884707442E-03
(PID.TID 0000.0001) %MON trAdv_CFL_v_max              =   8.4429294979746E-03
(PID.TID 0000.0001) %MON trAdv_CFL_w_max              =   1.3902819791801E-02
(PID.TID 0000.0001) %MON advcfl_uvel_max              =   6.3746875682547E-03
(PID.TID 0000.0001) %MON advcfl_vvel_max              =   4.8123495252512E-03
(PID.TID 0000.0001) %MON advcfl_wvel_max              =   1.0209245267122E-02
(PID.TID 0000.0001) %MON advcfl_W_hf_max              =   1.3902819791801E-02
(PID.TID 0000.0001) %MON pe_b_mean                    =   3.1328814742188E-05
(PID.TID 0000.0001) %MON ke_max                       =   1.5873505040719E+00
(PID.TID 0000.0001) %MON ke_mean                      =   5.4882060853924E-05
(PID.TID 0000.0001) %MON ke_vol                       =   1.3398079652560E+18
(PID.TID 0000.0001) %MON vort_r_min                   =  -5.2884398120052E-06
(PID.TID 0000.0001) %MON vort_r_max                   =   4.7892491045503E-06
(PID.TID 0000.0001) %MON vort_a_mean                  =  -2.0549865324846E-05
(PID.TID 0000.0001) %MON vort_a_sd                    =   7.5259269471214E-05
(PID.TID 0000.0001) %MON vort_p_mean                  =  -2.4783428872300E-05
(PID.TID 0000.0001) %MON vort_p_sd                    =   1.2810599731074E-04
(PID.TID 0000.0001) %MON surfExpan_theta_mean         =   1.7580272427362E-06
(PID.TID 0000.0001) %MON surfExpan_salt_mean          =   7.8119591918538E-07
(PID.TID 0000.0001) // =======================================================
(PID.TID 0000.0001) // End MONITOR dynamic field statistics
(PID.TID 0000.0001) // =======================================================
(PID.TID 0000.0001) DEBUG_MSG: LEAVING S/R FORWARD_STEP
(PID.TID 0000.0001) DEBUG_MSG: ENTERED S/R FORWARD_STEP
(PID.TID 0000.0001) DEBUG_MSG: CALLING S/R LOAD_FIELDS_DRIVER
(PID.TID 0000.0001) DEBUG_MSG: ENTERED S/R LOAD_FIELDS_DRIVER
(PID.TID 0000.0001) DEBUG_MSG: CALLING S/R EXTERNAL_FIELDS_LOAD
(PID.TID 0000.0001) DEBUG_MSG: LEAVING S/R LOAD_FIELDS_DRIVER
(PID.TID 0000.0001) DEBUG_MSG: CALLING S/R DO_ATMOSPHERIC_PHYS
(PID.TID 0000.0001) DEBUG_MSG: ENTERED S/R DO_ATMOSPHERIC_PHYS
(PID.TID 0000.0001) DEBUG_MSG: LEAVING S/R DO_ATMOSPHERIC_PHYS
(PID.TID 0000.0001) DEBUG_MSG: CALLING S/R DO_OCEANIC_PHYS
(PID.TID 0000.0001) DEBUG_MSG: ENTERED S/R DO_OCEANIC_PHYS
(PID.TID 0000.0001) DEBUG_MSG: CALLING S/R EXTERNAL_FORCING_SURF
(PID.TID 0000.0001) DEBUG_MSG: CALLING S/R FIND_RHO_2D (xNr)
(PID.TID 0000.0001) DEBUG_MSG:                  ENTERING UPWARD K LOOP (bi=   1, bj=   1)
(PID.TID 0000.0001) DEBUG_MSG: CALLING S/R GRAD_SIGMA
(PID.TID 0000.0001) DEBUG_MSG: CALLING S/R CALC_IVDC
(PID.TID 0000.0001) DEBUG_MSG: CALLING S/R GRAD_SIGMA
(PID.TID 0000.0001) DEBUG_MSG: CALLING S/R CALC_IVDC
(PID.TID 0000.0001) DEBUG_MSG: CALLING S/R GRAD_SIGMA
(PID.TID 0000.0001) DEBUG_MSG: CALLING S/R CALC_IVDC
(PID.TID 0000.0001) DEBUG_MSG: CALLING S/R GRAD_SIGMA
(PID.TID 0000.0001) DEBUG_MSG: CALLING S/R CALC_IVDC
(PID.TID 0000.0001) DEBUG_MSG: CALLING S/R GRAD_SIGMA
(PID.TID 0000.0001) DEBUG_MSG: CALLING S/R CALC_IVDC
(PID.TID 0000.0001) DEBUG_MSG: CALLING S/R GRAD_SIGMA
(PID.TID 0000.0001) DEBUG_MSG: CALLING S/R CALC_IVDC
(PID.TID 0000.0001) DEBUG_MSG: CALLING S/R GRAD_SIGMA
(PID.TID 0000.0001) DEBUG_MSG: CALLING S/R CALC_IVDC
(PID.TID 0000.0001) DEBUG_MSG: CALLING S/R GRAD_SIGMA
(PID.TID 0000.0001) DEBUG_MSG: CALLING S/R CALC_IVDC
(PID.TID 0000.0001) DEBUG_MSG: CALLING S/R GRAD_SIGMA
(PID.TID 0000.0001) DEBUG_MSG: CALLING S/R CALC_IVDC
(PID.TID 0000.0001) DEBUG_MSG: CALLING S/R GRAD_SIGMA
(PID.TID 0000.0001) DEBUG_MSG: CALLING S/R CALC_IVDC
(PID.TID 0000.0001) DEBUG_MSG: CALLING S/R GRAD_SIGMA
(PID.TID 0000.0001) DEBUG_MSG: CALLING S/R CALC_IVDC
(PID.TID 0000.0001) DEBUG_MSG: CALLING S/R GRAD_SIGMA
(PID.TID 0000.0001) DEBUG_MSG: CALLING S/R CALC_IVDC
(PID.TID 0000.0001) DEBUG_MSG: CALLING S/R GRAD_SIGMA
(PID.TID 0000.0001) DEBUG_MSG: CALLING S/R CALC_IVDC
(PID.TID 0000.0001) DEBUG_MSG: CALLING S/R GRAD_SIGMA
(PID.TID 0000.0001) DEBUG_MSG: CALLING S/R CALC_IVDC
(PID.TID 0000.0001) DEBUG_MSG: CALLING S/R GRAD_SIGMA
(PID.TID 0000.0001) DEBUG_MSG: CALLING S/R CALC_IVDC
(PID.TID 0000.0001) DEBUG_MSG: CALLING S/R GRAD_SIGMA
(PID.TID 0000.0001) DEBUG_MSG: CALLING S/R GMREDI_CALC_TENSOR
(PID.TID 0000.0001) DEBUG_MSG: LEAVING S/R DO_OCEANIC_PHYS
(PID.TID 0000.0001) DEBUG_MSG: CALLING S/R DYNAMICS
(PID.TID 0000.0001) DEBUG_MSG: ENTERED S/R DYNAMICS
DEBUG_STATS_RL:                EtaN (DYNAMICS)  min= -3.48177377037629E+00
DEBUG_STATS_RL:                EtaN (DYNAMICS)  max=  4.40135171061372E+00
DEBUG_STATS_RL:                EtaN (DYNAMICS) mean=  1.61940487082149E-02
DEBUG_STATS_RL:                EtaN (DYNAMICS) S.D.=  1.54495041074260E-01
DEBUG_STATS_RL:                Uvel (DYNAMICS)  min= -7.18023649698835E-01
DEBUG_STATS_RL:                Uvel (DYNAMICS)  max=  1.91158430854726E+00
DEBUG_STATS_RL:                Uvel (DYNAMICS) mean=  5.65606003833128E-04
DEBUG_STATS_RL:                Uvel (DYNAMICS) S.D.=  2.35243461295191E-02
DEBUG_STATS_RL:                Vvel (DYNAMICS)  min= -1.55201374724395E+00
DEBUG_STATS_RL:                Vvel (DYNAMICS)  max=  1.47465878443321E+00
DEBUG_STATS_RL:                Vvel (DYNAMICS) mean= -2.27716639417516E-04
DEBUG_STATS_RL:                Vvel (DYNAMICS) S.D.=  2.26177732281643E-02
DEBUG_STATS_RL:                Wvel (DYNAMICS)  min= -5.69491514229396E-04
DEBUG_STATS_RL:                Wvel (DYNAMICS)  max=  6.11637062558036E-05
DEBUG_STATS_RL:                Wvel (DYNAMICS) mean= -6.22313483010281E-07
DEBUG_STATS_RL:                Wvel (DYNAMICS) S.D.=  1.02290195145779E-05
DEBUG_STATS_RL:               Theta (DYNAMICS)  min=  1.63395032172348E+01
DEBUG_STATS_RL:               Theta (DYNAMICS)  max=  2.06485868261286E+01
DEBUG_STATS_RL:               Theta (DYNAMICS) mean=  1.99934134756758E+01
DEBUG_STATS_RL:               Theta (DYNAMICS) S.D.=  5.31725701832234E-02
DEBUG_STATS_RL:                Salt (DYNAMICS)  min=  3.21879653217298E+01
DEBUG_STATS_RL:                Salt (DYNAMICS)  max=  3.51361715334198E+01
DEBUG_STATS_RL:                Salt (DYNAMICS) mean=  3.49992209195389E+01
DEBUG_STATS_RL:                Salt (DYNAMICS) S.D.=  3.16247740286882E-02
DEBUG_STATS_RL:                  Gu (DYNAMICS)  min= -7.01859051435779E-01
DEBUG_STATS_RL:                  Gu (DYNAMICS)  max=  1.94045226405338E+00
DEBUG_STATS_RL:                  Gu (DYNAMICS) mean=  5.66709109944793E-04
DEBUG_STATS_RL:                  Gu (DYNAMICS) S.D.=  2.38256745937001E-02
DEBUG_STATS_RL:                  Gv (DYNAMICS)  min= -1.55264772501379E+00
DEBUG_STATS_RL:                  Gv (DYNAMICS)  max=  1.39779250741988E+00
DEBUG_STATS_RL:                  Gv (DYNAMICS) mean= -2.75135589534784E-04
DEBUG_STATS_RL:                  Gv (DYNAMICS) S.D.=  2.23060228865729E-02
DEBUG_STATS_RL:               GuNm1 (DYNAMICS)  min= -4.92471865102128E-05
DEBUG_STATS_RL:               GuNm1 (DYNAMICS)  max=  4.76609874763510E-05
DEBUG_STATS_RL:               GuNm1 (DYNAMICS) mean=  3.08083141494404E-09
DEBUG_STATS_RL:               GuNm1 (DYNAMICS) S.D.=  1.49372753967692E-06
DEBUG_STATS_RL:               GvNm1 (DYNAMICS)  min= -1.13131160862803E-04
DEBUG_STATS_RL:               GvNm1 (DYNAMICS)  max=  2.50678563026424E-05
DEBUG_STATS_RL:               GvNm1 (DYNAMICS) mean= -5.30819502410617E-08
DEBUG_STATS_RL:               GvNm1 (DYNAMICS) S.D.=  1.82428343050976E-06
DEBUG_STATS_RL:               GtNm1 (DYNAMICS)  min= -2.42536293005039E-05
DEBUG_STATS_RL:               GtNm1 (DYNAMICS)  max=  1.54020932167145E-06
DEBUG_STATS_RL:               GtNm1 (DYNAMICS) mean= -4.75253524796147E-09
DEBUG_STATS_RL:               GtNm1 (DYNAMICS) S.D.=  2.35079412261771E-07
DEBUG_STATS_RL:               GsNm1 (DYNAMICS)  min= -7.02133787879187E-06
DEBUG_STATS_RL:               GsNm1 (DYNAMICS)  max=  8.86677132061717E-07
DEBUG_STATS_RL:               GsNm1 (DYNAMICS) mean= -2.02303428979451E-09
DEBUG_STATS_RL:               GsNm1 (DYNAMICS) S.D.=  8.49705522183934E-08
(PID.TID 0000.0001) DEBUG_MSG: LEAVING S/R DYNAMICS
DEBUG_STATS_RL:    cg2d_b (SOLVE_FOR_PRESSURE)  min= -4.08301648161480E+05
DEBUG_STATS_RL:    cg2d_b (SOLVE_FOR_PRESSURE)  max=  4.18637704162801E+05
DEBUG_STATS_RL:    cg2d_b (SOLVE_FOR_PRESSURE) mean= -1.64331589835091E+03
DEBUG_STATS_RL:    cg2d_b (SOLVE_FOR_PRESSURE) S.D.=  1.49291405210685E+04
 cg2d: Sum(rhs),rhsMax =  -1.73502200076236E+01  8.01966003747549E+01
(PID.TID 0000.0001)  cg2d: iter=     1 ; resid.=  3.76943719176504E-02
(PID.TID 0000.0001)  cg2d: iter=     2 ; resid.=  4.90193875816415E-03
(PID.TID 0000.0001)  cg2d: iter=     3 ; resid.=  8.73786317274514E-04
(PID.TID 0000.0001)  cg2d: iter=     4 ; resid.=  1.96010958884740E-04
(PID.TID 0000.0001)  cg2d: iter=     5 ; resid.=  6.66120350729278E-05
(PID.TID 0000.0001)  cg2d: iter=     6 ; resid.=  1.80484388953263E-05
(PID.TID 0000.0001)  cg2d: iter=     7 ; resid.=  4.06754718631202E-06
(PID.TID 0000.0001)  cg2d: iter=     8 ; resid.=  8.69806374317274E-07
(PID.TID 0000.0001)  cg2d: iter=     9 ; resid.=  2.20310725639362E-07
(PID.TID 0000.0001)  cg2d: iter=    10 ; resid.=  6.15452192371192E-08
DEBUG_STATS_RL:    cg2d_x (SOLVE_FOR_PRESSURE)  min= -3.44999894131015E+01
DEBUG_STATS_RL:    cg2d_x (SOLVE_FOR_PRESSURE)  max=  3.60783834533820E+01
DEBUG_STATS_RL:    cg2d_x (SOLVE_FOR_PRESSURE) mean=  1.64191917267365E-01
DEBUG_STATS_RL:    cg2d_x (SOLVE_FOR_PRESSURE) S.D.=  1.39971057626224E+00
(PID.TID 0000.0001)      cg2d_init_res =   4.80409436310414E-01
(PID.TID 0000.0001)      cg2d_iters(min,last) =      -1      10
(PID.TID 0000.0001)      cg2d_last_res =   6.15452192371192E-08
(PID.TID 0000.0001) DEBUG_MSG: CALLING S/R UPDATE_ETAH
(PID.TID 0000.0001) DEBUG_MSG: ENTERED S/R CALC_R_STAR
(PID.TID 0000.0001) DEBUG_MSG: LEAVING S/R CALC_R_STAR
(PID.TID 0000.0001) DEBUG_MSG: CALLING S/R DO_STAGGER_FIELDS_EXCH.
(PID.TID 0000.0001) DEBUG_MSG: CALLING S/R THERMODYNAMICS
(PID.TID 0000.0001) DEBUG_MSG: ENTERED S/R THERMODYNAMICS
(PID.TID 0000.0001) DEBUG_MSG: CALLING S/R TEMP_INTEGRATE
(PID.TID 0000.0001) DEBUG_MSG: CALLING S/R SALT_INTEGRATE
DEBUG_STATS_RL:          Uvel (THERMODYNAMICS)  min= -7.53253293069256E-01
DEBUG_STATS_RL:          Uvel (THERMODYNAMICS)  max=  1.99308992261145E+00
DEBUG_STATS_RL:          Uvel (THERMODYNAMICS) mean=  5.88143069819391E-04
DEBUG_STATS_RL:          Uvel (THERMODYNAMICS) S.D.=  2.44775504351207E-02
DEBUG_STATS_RL:          Vvel (THERMODYNAMICS)  min= -1.59565468148498E+00
DEBUG_STATS_RL:          Vvel (THERMODYNAMICS)  max=  1.48292523634105E+00
DEBUG_STATS_RL:          Vvel (THERMODYNAMICS) mean= -2.57043241188509E-04
DEBUG_STATS_RL:          Vvel (THERMODYNAMICS) S.D.=  2.29893882828282E-02
DEBUG_STATS_RL:          Wvel (THERMODYNAMICS)  min= -5.65328153834846E-04
DEBUG_STATS_RL:          Wvel (THERMODYNAMICS)  max=  6.98816397056032E-05
DEBUG_STATS_RL:          Wvel (THERMODYNAMICS) mean= -5.63256420528716E-07
DEBUG_STATS_RL:          Wvel (THERMODYNAMICS) S.D.=  9.55613813746660E-06
DEBUG_STATS_RL:         Theta (THERMODYNAMICS)  min=  1.63154869575808E+01
DEBUG_STATS_RL:         Theta (THERMODYNAMICS)  max=  2.07159139640498E+01
DEBUG_STATS_RL:         Theta (THERMODYNAMICS) mean=  1.99938607455821E+01
DEBUG_STATS_RL:         Theta (THERMODYNAMICS) S.D.=  5.36700566861047E-02
DEBUG_STATS_RL:          Salt (THERMODYNAMICS)  min=  3.19180373823794E+01
DEBUG_STATS_RL:          Salt (THERMODYNAMICS)  max=  3.51361684714143E+01
DEBUG_STATS_RL:          Salt (THERMODYNAMICS) mean=  3.49991699745257E+01
DEBUG_STATS_RL:          Salt (THERMODYNAMICS) S.D.=  3.45791215590549E-02
DEBUG_STATS_RL:         GtNm1 (THERMODYNAMICS)  min= -2.53839259314422E-05
DEBUG_STATS_RL:         GtNm1 (THERMODYNAMICS)  max=  1.71101936878673E-06
DEBUG_STATS_RL:         GtNm1 (THERMODYNAMICS) mean= -4.73484861285463E-09
DEBUG_STATS_RL:         GtNm1 (THERMODYNAMICS) S.D.=  2.39136281503920E-07
DEBUG_STATS_RL:         GsNm1 (THERMODYNAMICS)  min= -7.67947666602419E-06
DEBUG_STATS_RL:         GsNm1 (THERMODYNAMICS)  max=  1.05970435066010E-06
DEBUG_STATS_RL:         GsNm1 (THERMODYNAMICS) mean= -2.21123274422547E-09
DEBUG_STATS_RL:         GsNm1 (THERMODYNAMICS) S.D.=  9.35990696943196E-08
(PID.TID 0000.0001) DEBUG_MSG: LEAVING S/R THERMODYNAMICS
(PID.TID 0000.0001) // =======================================================
(PID.TID 0000.0001) // Begin MONITOR dynamic field statistics
(PID.TID 0000.0001) // =======================================================
(PID.TID 0000.0001) %MON time_tsnumber                =                    10
(PID.TID 0000.0001) %MON time_secondsf                =   9.0000000000000E+03
(PID.TID 0000.0001) %MON dynstat_eta_max              =   3.6777149231171E+00
(PID.TID 0000.0001) %MON dynstat_eta_min              =  -3.5168184817387E+00
(PID.TID 0000.0001) %MON dynstat_eta_mean             =   1.6168216570806E-02
(PID.TID 0000.0001) %MON dynstat_eta_sd               =   1.4120371337523E-01
(PID.TID 0000.0001) %MON dynstat_eta_del2             =   3.3107505534554E-03
(PID.TID 0000.0001) %MON dynstat_uvel_max             =   1.9930899226114E+00
(PID.TID 0000.0001) %MON dynstat_uvel_min             =  -7.5325329306926E-01
(PID.TID 0000.0001) %MON dynstat_uvel_mean            =   2.9207527440039E-04
(PID.TID 0000.0001) %MON dynstat_uvel_sd              =   8.1464408840922E-03
(PID.TID 0000.0001) %MON dynstat_uvel_del2            =   1.7369140528268E-04
(PID.TID 0000.0001) %MON dynstat_vvel_max             =   1.4829252363410E+00
(PID.TID 0000.0001) %MON dynstat_vvel_min             =  -1.5956546814850E+00
(PID.TID 0000.0001) %MON dynstat_vvel_mean            =  -2.5249506954912E-05
(PID.TID 0000.0001) %MON dynstat_vvel_sd              =   7.6071167320954E-03
(PID.TID 0000.0001) %MON dynstat_vvel_del2            =   2.2406935964433E-04
(PID.TID 0000.0001) %MON dynstat_wvel_max             =   6.9881639705603E-05
(PID.TID 0000.0001) %MON dynstat_wvel_min             =  -5.6532815383485E-04
(PID.TID 0000.0001) %MON dynstat_wvel_mean            =  -4.2214451148529E-07
(PID.TID 0000.0001) %MON dynstat_wvel_sd              =   7.9761257729190E-06
(PID.TID 0000.0001) %MON dynstat_wvel_del2            =   7.1684059203568E-08
(PID.TID 0000.0001) %MON dynstat_theta_max            =   2.0715913964050E+01
(PID.TID 0000.0001) %MON dynstat_theta_min            =   1.6315486957581E+01
(PID.TID 0000.0001) %MON dynstat_theta_mean           =   1.9997710119500E+01
(PID.TID 0000.0001) %MON dynstat_theta_sd             =   1.9386765936818E-02
(PID.TID 0000.0001) %MON dynstat_theta_del2           =   3.6306910098615E-04
(PID.TID 0000.0001) %MON dynstat_salt_max             =   3.5136168471414E+01
(PID.TID 0000.0001) %MON dynstat_salt_min             =   3.1918037382379E+01
(PID.TID 0000.0001) %MON dynstat_salt_mean            =   3.4999861415915E+01
(PID.TID 0000.0001) %MON dynstat_salt_sd              =   1.0727612200072E-02
(PID.TID 0000.0001) %MON dynstat_salt_del2            =   3.7439129728108E-04
(PID.TID 0000.0001) %MON dynstat_sst_max              =   2.0715913964050E+01
(PID.TID 0000.0001) %MON dynstat_sst_min              =   1.6315486957581E+01
(PID.TID 0000.0001) %MON dynstat_sst_mean             =   2.0014014456507E+01
(PID.TID 0000.0001) %MON dynstat_sst_sd               =   1.4221155626753E-01
(PID.TID 0000.0001) %MON dynstat_sst_del2             =   3.4938245201829E-03
(PID.TID 0000.0001) %MON dynstat_sss_max              =   3.5136168471414E+01
(PID.TID 0000.0001) %MON dynstat_sss_min              =   3.1918037382379E+01
(PID.TID 0000.0001) %MON dynstat_sss_mean             =   3.4991935998276E+01
(PID.TID 0000.0001) %MON dynstat_sss_sd               =   1.2821921548703E-01
(PID.TID 0000.0001) %MON dynstat_sss_del2             =   5.0651367796581E-03
(PID.TID 0000.0001) %MON forcing_qnet_max             =   2.7191033228610E+04
(PID.TID 0000.0001) %MON forcing_qnet_min             =  -7.5505431975696E+03
(PID.TID 0000.0001) %MON forcing_qnet_mean            =  -1.9748887125185E+02
(PID.TID 0000.0001) %MON forcing_qnet_sd              =   9.7613991327416E+02
(PID.TID 0000.0001) %MON forcing_qnet_del2            =   1.7678845584554E+01
(PID.TID 0000.0001) %MON forcing_qsw_max              =   0.0000000000000E+00
(PID.TID 0000.0001) %MON forcing_qsw_min              =  -1.0778352465649E+02
(PID.TID 0000.0001) %MON forcing_qsw_mean             =  -2.2673737483906E+01
(PID.TID 0000.0001) %MON forcing_qsw_sd               =   3.0703102716387E+01
(PID.TID 0000.0001) %MON forcing_qsw_del2             =   2.3517718298290E-01
(PID.TID 0000.0001) %MON forcing_empmr_max            =   1.0106851346791E-02
(PID.TID 0000.0001) %MON forcing_empmr_min            =  -1.4524587988853E-01
(PID.TID 0000.0001) %MON forcing_empmr_mean           =  -5.7189035442392E-04
(PID.TID 0000.0001) %MON forcing_empmr_sd             =   6.4028417055482E-03
(PID.TID 0000.0001) %MON forcing_empmr_del2           =   2.5245230819907E-04
(PID.TID 0000.0001) %MON forcing_fu_max               =   1.0026808207545E+00
(PID.TID 0000.0001) %MON forcing_fu_min               =  -5.6035029814209E-01
(PID.TID 0000.0001) %MON forcing_fu_mean              =  -2.5629864363068E-03
(PID.TID 0000.0001) %MON forcing_fu_sd                =   1.0997164064070E-01
(PID.TID 0000.0001) %MON forcing_fu_del2              =   9.6726873001897E-04
(PID.TID 0000.0001) %MON forcing_fv_max               =   4.9169777136074E-01
(PID.TID 0000.0001) %MON forcing_fv_min               =  -5.7496982074542E-01
(PID.TID 0000.0001) %MON forcing_fv_mean              =  -6.9405123920606E-03
(PID.TID 0000.0001) %MON forcing_fv_sd                =   9.3484407250628E-02
(PID.TID 0000.0001) %MON forcing_fv_del2              =   8.3910763746457E-04
(PID.TID 0000.0001) %MON trAdv_CFL_u_max              =   6.4383077236282E-03
(PID.TID 0000.0001) %MON trAdv_CFL_v_max              =   8.7204762987228E-03
(PID.TID 0000.0001) %MON trAdv_CFL_w_max              =   1.3663357916747E-02
(PID.TID 0000.0001) %MON advcfl_uvel_max              =   6.6464897704357E-03
(PID.TID 0000.0001) %MON advcfl_vvel_max              =   4.8393259731821E-03
(PID.TID 0000.0001) %MON advcfl_wvel_max              =   1.0104061209637E-02
(PID.TID 0000.0001) %MON advcfl_W_hf_max              =   1.3663357916747E-02
(PID.TID 0000.0001) %MON pe_b_mean                    =   2.6909884993405E-05
(PID.TID 0000.0001) %MON ke_max                       =   1.6857444596704E+00
(PID.TID 0000.0001) %MON ke_mean                      =   5.7376014622750E-05
(PID.TID 0000.0001) %MON ke_vol                       =   1.3398081478029E+18
(PID.TID 0000.0001) %MON vort_r_min                   =  -6.0462838376475E-06
(PID.TID 0000.0001) %MON vort_r_max                   =   4.7267074384826E-06
(PID.TID 0000.0001) %MON vort_a_mean                  =  -2.0549865324846E-05
(PID.TID 0000.0001) %MON vort_a_sd                    =   7.5259268592234E-05
(PID.TID 0000.0001) %MON vort_p_mean                  =  -2.4783424049994E-05
(PID.TID 0000.0001) %MON vort_p_sd                    =   1.2810600672639E-04
(PID.TID 0000.0001) %MON surfExpan_theta_mean         =   1.7311023286789E-06
(PID.TID 0000.0001) %MON surfExpan_salt_mean          =   8.4266284565906E-07
(PID.TID 0000.0001) // =======================================================
(PID.TID 0000.0001) // End MONITOR dynamic field statistics
(PID.TID 0000.0001) // =======================================================
(PID.TID 0000.0001) DEBUG_MSG: LEAVING S/R FORWARD_STEP
(PID.TID 0000.0001) DEBUG_MSG: ENTERED S/R FORWARD_STEP
(PID.TID 0000.0001) DEBUG_MSG: CALLING S/R LOAD_FIELDS_DRIVER
(PID.TID 0000.0001) DEBUG_MSG: ENTERED S/R LOAD_FIELDS_DRIVER
(PID.TID 0000.0001) DEBUG_MSG: CALLING S/R EXTERNAL_FIELDS_LOAD
(PID.TID 0000.0001) DEBUG_MSG: LEAVING S/R LOAD_FIELDS_DRIVER
(PID.TID 0000.0001) DEBUG_MSG: CALLING S/R DO_ATMOSPHERIC_PHYS
(PID.TID 0000.0001) DEBUG_MSG: ENTERED S/R DO_ATMOSPHERIC_PHYS
(PID.TID 0000.0001) DEBUG_MSG: LEAVING S/R DO_ATMOSPHERIC_PHYS
(PID.TID 0000.0001) DEBUG_MSG: CALLING S/R DO_OCEANIC_PHYS
(PID.TID 0000.0001) DEBUG_MSG: ENTERED S/R DO_OCEANIC_PHYS
(PID.TID 0000.0001) DEBUG_MSG: CALLING S/R EXTERNAL_FORCING_SURF
(PID.TID 0000.0001) DEBUG_MSG: CALLING S/R FIND_RHO_2D (xNr)
(PID.TID 0000.0001) DEBUG_MSG:                  ENTERING UPWARD K LOOP (bi=   1, bj=   1)
(PID.TID 0000.0001) DEBUG_MSG: CALLING S/R GRAD_SIGMA
(PID.TID 0000.0001) DEBUG_MSG: CALLING S/R CALC_IVDC
(PID.TID 0000.0001) DEBUG_MSG: CALLING S/R GRAD_SIGMA
(PID.TID 0000.0001) DEBUG_MSG: CALLING S/R CALC_IVDC
(PID.TID 0000.0001) DEBUG_MSG: CALLING S/R GRAD_SIGMA
(PID.TID 0000.0001) DEBUG_MSG: CALLING S/R CALC_IVDC
(PID.TID 0000.0001) DEBUG_MSG: CALLING S/R GRAD_SIGMA
(PID.TID 0000.0001) DEBUG_MSG: CALLING S/R CALC_IVDC
(PID.TID 0000.0001) DEBUG_MSG: CALLING S/R GRAD_SIGMA
(PID.TID 0000.0001) DEBUG_MSG: CALLING S/R CALC_IVDC
(PID.TID 0000.0001) DEBUG_MSG: CALLING S/R GRAD_SIGMA
(PID.TID 0000.0001) DEBUG_MSG: CALLING S/R CALC_IVDC
(PID.TID 0000.0001) DEBUG_MSG: CALLING S/R GRAD_SIGMA
(PID.TID 0000.0001) DEBUG_MSG: CALLING S/R CALC_IVDC
(PID.TID 0000.0001) DEBUG_MSG: CALLING S/R GRAD_SIGMA
(PID.TID 0000.0001) DEBUG_MSG: CALLING S/R CALC_IVDC
(PID.TID 0000.0001) DEBUG_MSG: CALLING S/R GRAD_SIGMA
(PID.TID 0000.0001) DEBUG_MSG: CALLING S/R CALC_IVDC
(PID.TID 0000.0001) DEBUG_MSG: CALLING S/R GRAD_SIGMA
(PID.TID 0000.0001) DEBUG_MSG: CALLING S/R CALC_IVDC
(PID.TID 0000.0001) DEBUG_MSG: CALLING S/R GRAD_SIGMA
(PID.TID 0000.0001) DEBUG_MSG: CALLING S/R CALC_IVDC
(PID.TID 0000.0001) DEBUG_MSG: CALLING S/R GRAD_SIGMA
(PID.TID 0000.0001) DEBUG_MSG: CALLING S/R CALC_IVDC
(PID.TID 0000.0001) DEBUG_MSG: CALLING S/R GRAD_SIGMA
(PID.TID 0000.0001) DEBUG_MSG: CALLING S/R CALC_IVDC
(PID.TID 0000.0001) DEBUG_MSG: CALLING S/R GRAD_SIGMA
(PID.TID 0000.0001) DEBUG_MSG: CALLING S/R CALC_IVDC
(PID.TID 0000.0001) DEBUG_MSG: CALLING S/R GRAD_SIGMA
(PID.TID 0000.0001) DEBUG_MSG: CALLING S/R CALC_IVDC
(PID.TID 0000.0001) DEBUG_MSG: CALLING S/R GRAD_SIGMA
(PID.TID 0000.0001) DEBUG_MSG: CALLING S/R GMREDI_CALC_TENSOR
(PID.TID 0000.0001) DEBUG_MSG: LEAVING S/R DO_OCEANIC_PHYS
(PID.TID 0000.0001) DEBUG_MSG: CALLING S/R DYNAMICS
(PID.TID 0000.0001) DEBUG_MSG: ENTERED S/R DYNAMICS
DEBUG_STATS_RL:                EtaN (DYNAMICS)  min= -3.51681848173869E+00
DEBUG_STATS_RL:                EtaN (DYNAMICS)  max=  3.67771492311709E+00
DEBUG_STATS_RL:                EtaN (DYNAMICS) mean=  1.67371986995547E-02
DEBUG_STATS_RL:                EtaN (DYNAMICS) S.D.=  1.42682015796732E-01
DEBUG_STATS_RL:                Uvel (DYNAMICS)  min= -7.53253293069256E-01
DEBUG_STATS_RL:                Uvel (DYNAMICS)  max=  1.99308992261145E+00
DEBUG_STATS_RL:                Uvel (DYNAMICS) mean=  5.88143069819391E-04
DEBUG_STATS_RL:                Uvel (DYNAMICS) S.D.=  2.44775504351207E-02
DEBUG_STATS_RL:                Vvel (DYNAMICS)  min= -1.59565468148498E+00
DEBUG_STATS_RL:                Vvel (DYNAMICS)  max=  1.48292523634105E+00
DEBUG_STATS_RL:                Vvel (DYNAMICS) mean= -2.57043241188509E-04
DEBUG_STATS_RL:                Vvel (DYNAMICS) S.D.=  2.29893882828282E-02
DEBUG_STATS_RL:                Wvel (DYNAMICS)  min= -5.65328153834846E-04
DEBUG_STATS_RL:                Wvel (DYNAMICS)  max=  6.98816397056032E-05
DEBUG_STATS_RL:                Wvel (DYNAMICS) mean= -5.63256420528716E-07
DEBUG_STATS_RL:                Wvel (DYNAMICS) S.D.=  9.55613813746660E-06
DEBUG_STATS_RL:               Theta (DYNAMICS)  min=  1.63154869575808E+01
DEBUG_STATS_RL:               Theta (DYNAMICS)  max=  2.07159139640498E+01
DEBUG_STATS_RL:               Theta (DYNAMICS) mean=  1.99938607455821E+01
DEBUG_STATS_RL:               Theta (DYNAMICS) S.D.=  5.36700566861047E-02
DEBUG_STATS_RL:                Salt (DYNAMICS)  min=  3.19180373823794E+01
DEBUG_STATS_RL:                Salt (DYNAMICS)  max=  3.51361684714143E+01
DEBUG_STATS_RL:                Salt (DYNAMICS) mean=  3.49991699745257E+01
DEBUG_STATS_RL:                Salt (DYNAMICS) S.D.=  3.45791215590549E-02
DEBUG_STATS_RL:                  Gu (DYNAMICS)  min= -7.36643760573313E-01
DEBUG_STATS_RL:                  Gu (DYNAMICS)  max=  2.01724201928859E+00
DEBUG_STATS_RL:                  Gu (DYNAMICS) mean=  5.84395204479339E-04
DEBUG_STATS_RL:                  Gu (DYNAMICS) S.D.=  2.47558901589337E-02
DEBUG_STATS_RL:                  Gv (DYNAMICS)  min= -1.59677494973524E+00
DEBUG_STATS_RL:                  Gv (DYNAMICS)  max=  1.40308057385635E+00
DEBUG_STATS_RL:                  Gv (DYNAMICS) mean= -3.03958929921192E-04
DEBUG_STATS_RL:                  Gv (DYNAMICS) S.D.=  2.27402792921720E-02
DEBUG_STATS_RL:               GuNm1 (DYNAMICS)  min= -5.34784889678735E-05
DEBUG_STATS_RL:               GuNm1 (DYNAMICS)  max=  4.66769775460429E-05
DEBUG_STATS_RL:               GuNm1 (DYNAMICS) mean= -1.74399061077085E-09
DEBUG_STATS_RL:               GuNm1 (DYNAMICS) S.D.=  1.48794441260555E-06
DEBUG_STATS_RL:               GvNm1 (DYNAMICS)  min= -1.12863482689618E-04
DEBUG_STATS_RL:               GvNm1 (DYNAMICS)  max=  2.85162717757776E-05
DEBUG_STATS_RL:               GvNm1 (DYNAMICS) mean= -5.27605199040135E-08
DEBUG_STATS_RL:               GvNm1 (DYNAMICS) S.D.=  1.87473491594174E-06
DEBUG_STATS_RL:               GtNm1 (DYNAMICS)  min= -2.53839259314422E-05
DEBUG_STATS_RL:               GtNm1 (DYNAMICS)  max=  1.71101936878673E-06
DEBUG_STATS_RL:               GtNm1 (DYNAMICS) mean= -4.73484861285463E-09
DEBUG_STATS_RL:               GtNm1 (DYNAMICS) S.D.=  2.39136281503920E-07
DEBUG_STATS_RL:               GsNm1 (DYNAMICS)  min= -7.67947666602419E-06
DEBUG_STATS_RL:               GsNm1 (DYNAMICS)  max=  1.05970435066010E-06
DEBUG_STATS_RL:               GsNm1 (DYNAMICS) mean= -2.21123274422547E-09
DEBUG_STATS_RL:               GsNm1 (DYNAMICS) S.D.=  9.35990696943196E-08
(PID.TID 0000.0001) DEBUG_MSG: LEAVING S/R DYNAMICS
DEBUG_STATS_RL:    cg2d_b (SOLVE_FOR_PRESSURE)  min= -3.27175899855157E+05
DEBUG_STATS_RL:    cg2d_b (SOLVE_FOR_PRESSURE)  max=  3.82139777976179E+05
DEBUG_STATS_RL:    cg2d_b (SOLVE_FOR_PRESSURE) mean= -1.69362201024157E+03
DEBUG_STATS_RL:    cg2d_b (SOLVE_FOR_PRESSURE) S.D.=  1.38603524464635E+04
 cg2d: Sum(rhs),rhsMax =  -1.95891914861959E+01  7.32048517295885E+01
(PID.TID 0000.0001)  cg2d: iter=     1 ; resid.=  4.12316571494907E-02
(PID.TID 0000.0001)  cg2d: iter=     2 ; resid.=  5.34253645891385E-03
(PID.TID 0000.0001)  cg2d: iter=     3 ; resid.=  1.03382178034902E-03
(PID.TID 0000.0001)  cg2d: iter=     4 ; resid.=  2.20015393530631E-04
(PID.TID 0000.0001)  cg2d: iter=     5 ; resid.=  7.41755222439756E-05
(PID.TID 0000.0001)  cg2d: iter=     6 ; resid.=  2.08849875482829E-05
(PID.TID 0000.0001)  cg2d: iter=     7 ; resid.=  4.78118263293972E-06
(PID.TID 0000.0001)  cg2d: iter=     8 ; resid.=  1.05075309545868E-06
(PID.TID 0000.0001)  cg2d: iter=     9 ; resid.=  2.69826519729449E-07
(PID.TID 0000.0001)  cg2d: iter=    10 ; resid.=  7.48939380881957E-08
DEBUG_STATS_RL:    cg2d_x (SOLVE_FOR_PRESSURE)  min= -3.18413090596860E+01
DEBUG_STATS_RL:    cg2d_x (SOLVE_FOR_PRESSURE)  max=  2.89625279218973E+01
DEBUG_STATS_RL:    cg2d_x (SOLVE_FOR_PRESSURE) mean=  1.69559993421291E-01
DEBUG_STATS_RL:    cg2d_x (SOLVE_FOR_PRESSURE) S.D.=  1.28859156126975E+00
(PID.TID 0000.0001)      cg2d_init_res =   5.19895124979403E-01
(PID.TID 0000.0001)      cg2d_iters(min,last) =      -1      10
(PID.TID 0000.0001)      cg2d_last_res =   7.48939380881957E-08
(PID.TID 0000.0001) DEBUG_MSG: CALLING S/R UPDATE_ETAH
(PID.TID 0000.0001) DEBUG_MSG: ENTERED S/R CALC_R_STAR
(PID.TID 0000.0001) DEBUG_MSG: LEAVING S/R CALC_R_STAR
(PID.TID 0000.0001) DEBUG_MSG: CALLING S/R DO_STAGGER_FIELDS_EXCH.
(PID.TID 0000.0001) DEBUG_MSG: CALLING S/R THERMODYNAMICS
(PID.TID 0000.0001) DEBUG_MSG: ENTERED S/R THERMODYNAMICS
(PID.TID 0000.0001) DEBUG_MSG: CALLING S/R TEMP_INTEGRATE
(PID.TID 0000.0001) DEBUG_MSG: CALLING S/R SALT_INTEGRATE
DEBUG_STATS_RL:          Uvel (THERMODYNAMICS)  min= -7.78513958278414E-01
DEBUG_STATS_RL:          Uvel (THERMODYNAMICS)  max=  2.04762038214309E+00
DEBUG_STATS_RL:          Uvel (THERMODYNAMICS) mean=  6.03853723090688E-04
DEBUG_STATS_RL:          Uvel (THERMODYNAMICS) S.D.=  2.52325933334183E-02
DEBUG_STATS_RL:          Vvel (THERMODYNAMICS)  min= -1.60928171909447E+00
DEBUG_STATS_RL:          Vvel (THERMODYNAMICS)  max=  1.46106160619365E+00
DEBUG_STATS_RL:          Vvel (THERMODYNAMICS) mean= -2.83962460376019E-04
DEBUG_STATS_RL:          Vvel (THERMODYNAMICS) S.D.=  2.31762356777561E-02
DEBUG_STATS_RL:          Wvel (THERMODYNAMICS)  min= -5.53866932723274E-04
DEBUG_STATS_RL:          Wvel (THERMODYNAMICS)  max=  8.18806609786812E-05
DEBUG_STATS_RL:          Wvel (THERMODYNAMICS) mean= -5.13071020163159E-07
DEBUG_STATS_RL:          Wvel (THERMODYNAMICS) S.D.=  9.31250423467534E-06
DEBUG_STATS_RL:         Theta (THERMODYNAMICS)  min=  1.62913602956488E+01
DEBUG_STATS_RL:         Theta (THERMODYNAMICS)  max=  2.07823546919060E+01
DEBUG_STATS_RL:         Theta (THERMODYNAMICS) mean=  1.99942495785483E+01
DEBUG_STATS_RL:         Theta (THERMODYNAMICS) S.D.=  5.43418523931975E-02
DEBUG_STATS_RL:          Salt (THERMODYNAMICS)  min=  3.16556652393845E+01
DEBUG_STATS_RL:          Salt (THERMODYNAMICS)  max=  3.51361637867304E+01
DEBUG_STATS_RL:          Salt (THERMODYNAMICS) mean=  3.49991152084348E+01
DEBUG_STATS_RL:          Salt (THERMODYNAMICS) S.D.=  3.74712493963543E-02
DEBUG_STATS_RL:         GtNm1 (THERMODYNAMICS)  min= -2.62377372644128E-05
DEBUG_STATS_RL:         GtNm1 (THERMODYNAMICS)  max=  1.87555128782440E-06
DEBUG_STATS_RL:         GtNm1 (THERMODYNAMICS) mean= -4.63575592634384E-09
DEBUG_STATS_RL:         GtNm1 (THERMODYNAMICS) S.D.=  2.39344201354529E-07
DEBUG_STATS_RL:         GsNm1 (THERMODYNAMICS)  min= -8.30410358143955E-06
DEBUG_STATS_RL:         GsNm1 (THERMODYNAMICS)  max=  1.04729949348605E-06
DEBUG_STATS_RL:         GsNm1 (THERMODYNAMICS) mean= -2.39118047340729E-09
DEBUG_STATS_RL:         GsNm1 (THERMODYNAMICS) S.D.=  1.01804642591223E-07
(PID.TID 0000.0001) DEBUG_MSG: LEAVING S/R THERMODYNAMICS
(PID.TID 0000.0001) // =======================================================
(PID.TID 0000.0001) // Begin MONITOR dynamic field statistics
(PID.TID 0000.0001) // =======================================================
(PID.TID 0000.0001) %MON time_tsnumber                =                    11
(PID.TID 0000.0001) %MON time_secondsf                =   9.9000000000000E+03
(PID.TID 0000.0001) %MON dynstat_eta_max              =   2.9523473879629E+00
(PID.TID 0000.0001) %MON dynstat_eta_min              =  -3.2458011199598E+00
(PID.TID 0000.0001) %MON dynstat_eta_mean             =   1.6663167123344E-02
(PID.TID 0000.0001) %MON dynstat_eta_sd               =   1.3055337314194E-01
(PID.TID 0000.0001) %MON dynstat_eta_del2             =   2.9806959941583E-03
(PID.TID 0000.0001) %MON dynstat_uvel_max             =   2.0476203821431E+00
(PID.TID 0000.0001) %MON dynstat_uvel_min             =  -7.7851395827841E-01
(PID.TID 0000.0001) %MON dynstat_uvel_mean            =   3.1909788196952E-04
(PID.TID 0000.0001) %MON dynstat_uvel_sd              =   8.4213134947803E-03
(PID.TID 0000.0001) %MON dynstat_uvel_del2            =   1.7547708695587E-04
(PID.TID 0000.0001) %MON dynstat_vvel_max             =   1.4610616061936E+00
(PID.TID 0000.0001) %MON dynstat_vvel_min             =  -1.6092817190945E+00
(PID.TID 0000.0001) %MON dynstat_vvel_mean            =  -2.7708315072812E-05
(PID.TID 0000.0001) %MON dynstat_vvel_sd              =   7.6167091022803E-03
(PID.TID 0000.0001) %MON dynstat_vvel_del2            =   2.1820393922806E-04
(PID.TID 0000.0001) %MON dynstat_wvel_max             =   8.1880660978681E-05
(PID.TID 0000.0001) %MON dynstat_wvel_min             =  -5.5386693272327E-04
(PID.TID 0000.0001) %MON dynstat_wvel_mean            =  -3.5651737980345E-07
(PID.TID 0000.0001) %MON dynstat_wvel_sd              =   7.6297506392880E-06
(PID.TID 0000.0001) %MON dynstat_wvel_del2            =   7.1687019002043E-08
(PID.TID 0000.0001) %MON dynstat_theta_max            =   2.0782354691906E+01
(PID.TID 0000.0001) %MON dynstat_theta_min            =   1.6291360295649E+01
(PID.TID 0000.0001) %MON dynstat_theta_mean           =   1.9997719054679E+01
(PID.TID 0000.0001) %MON dynstat_theta_sd             =   1.9485848422783E-02
(PID.TID 0000.0001) %MON dynstat_theta_del2           =   3.6675963240080E-04
(PID.TID 0000.0001) %MON dynstat_salt_max             =   3.5136163786730E+01
(PID.TID 0000.0001) %MON dynstat_salt_min             =   3.1655665239385E+01
(PID.TID 0000.0001) %MON dynstat_salt_mean            =   3.4999854817186E+01
(PID.TID 0000.0001) %MON dynstat_salt_sd              =   1.1616792778866E-02
(PID.TID 0000.0001) %MON dynstat_salt_del2            =   4.0608180725623E-04
(PID.TID 0000.0001) %MON dynstat_sst_max              =   2.0782354691906E+01
(PID.TID 0000.0001) %MON dynstat_sst_min              =   1.6291360295649E+01
(PID.TID 0000.0001) %MON dynstat_sst_mean             =   2.0018225522806E+01
(PID.TID 0000.0001) %MON dynstat_sst_sd               =   1.4548627344327E-01
(PID.TID 0000.0001) %MON dynstat_sst_del2             =   3.5493391983317E-03
(PID.TID 0000.0001) %MON dynstat_sss_max              =   3.5136163786730E+01
(PID.TID 0000.0001) %MON dynstat_sss_min              =   3.1655665239385E+01
(PID.TID 0000.0001) %MON dynstat_sss_mean             =   3.4991212949948E+01
(PID.TID 0000.0001) %MON dynstat_sss_sd               =   1.3908093362723E-01
(PID.TID 0000.0001) %MON dynstat_sss_del2             =   5.4956366306084E-03
(PID.TID 0000.0001) %MON forcing_qnet_max             =   9.4549279011999E+04
(PID.TID 0000.0001) %MON forcing_qnet_min             =  -9.2809296875000E+03
(PID.TID 0000.0001) %MON forcing_qnet_mean            =  -1.5027273809360E+02
(PID.TID 0000.0001) %MON forcing_qnet_sd              =   2.2526870360770E+03
(PID.TID 0000.0001) %MON forcing_qnet_del2            =   5.8894711399531E+01
(PID.TID 0000.0001) %MON forcing_qsw_max              =   0.0000000000000E+00
(PID.TID 0000.0001) %MON forcing_qsw_min              =  -1.0841420366671E+02
(PID.TID 0000.0001) %MON forcing_qsw_mean             =  -2.2514710650084E+01
(PID.TID 0000.0001) %MON forcing_qsw_sd               =   3.0592339627928E+01
(PID.TID 0000.0001) %MON forcing_qsw_del2             =   2.3635507228144E-01
(PID.TID 0000.0001) %MON forcing_empmr_max            =   1.0002689436078E-02
(PID.TID 0000.0001) %MON forcing_empmr_min            =  -1.4375060796738E-01
(PID.TID 0000.0001) %MON forcing_empmr_mean           =  -5.6919313541877E-04
(PID.TID 0000.0001) %MON forcing_empmr_sd             =   6.3373899051697E-03
(PID.TID 0000.0001) %MON forcing_empmr_del2           =   2.4985000856669E-04
(PID.TID 0000.0001) %MON forcing_fu_max               =   1.0060949182704E+00
(PID.TID 0000.0001) %MON forcing_fu_min               =  -5.6745131387511E-01
(PID.TID 0000.0001) %MON forcing_fu_mean              =  -2.3490189272372E-03
(PID.TID 0000.0001) %MON forcing_fu_sd                =   1.0913486779143E-01
(PID.TID 0000.0001) %MON forcing_fu_del2              =   9.5576291659451E-04
(PID.TID 0000.0001) %MON forcing_fv_max               =   4.8599321621942E-01
(PID.TID 0000.0001) %MON forcing_fv_min               =  -5.7489310925258E-01
(PID.TID 0000.0001) %MON forcing_fv_mean              =  -6.5303956756489E-03
(PID.TID 0000.0001) %MON forcing_fv_sd                =   9.2750177614821E-02
(PID.TID 0000.0001) %MON forcing_fv_del2              =   8.3141729637534E-04
(PID.TID 0000.0001) %MON trAdv_CFL_u_max              =   6.6453290275535E-03
(PID.TID 0000.0001) %MON trAdv_CFL_v_max              =   8.8479522252217E-03
(PID.TID 0000.0001) %MON trAdv_CFL_w_max              =   1.3220311435771E-02
(PID.TID 0000.0001) %MON advcfl_uvel_max              =   6.8283361273625E-03
(PID.TID 0000.0001) %MON advcfl_vvel_max              =   4.8226462275679E-03
(PID.TID 0000.0001) %MON advcfl_wvel_max              =   1.0000042293383E-02
(PID.TID 0000.0001) %MON advcfl_W_hf_max              =   1.3220311435771E-02
(PID.TID 0000.0001) %MON pe_b_mean                    =   2.3075796388260E-05
(PID.TID 0000.0001) %MON ke_max                       =   1.7277485282828E+00
(PID.TID 0000.0001) %MON ke_mean                      =   5.9543601517608E-05
(PID.TID 0000.0001) %MON ke_vol                       =   1.3398083287623E+18
(PID.TID 0000.0001) %MON vort_r_min                   =  -6.7585932883329E-06
(PID.TID 0000.0001) %MON vort_r_max                   =   4.5555934145501E-06
(PID.TID 0000.0001) %MON vort_a_mean                  =  -2.0549865324846E-05
(PID.TID 0000.0001) %MON vort_a_sd                    =   7.5259267804574E-05
(PID.TID 0000.0001) %MON vort_p_mean                  =  -2.4783419525288E-05
(PID.TID 0000.0001) %MON vort_p_sd                    =   1.2810602187114E-04
(PID.TID 0000.0001) %MON surfExpan_theta_mean         =   1.6767297117993E-06
(PID.TID 0000.0001) %MON surfExpan_salt_mean          =   9.0091259919338E-07
(PID.TID 0000.0001) // =======================================================
(PID.TID 0000.0001) // End MONITOR dynamic field statistics
(PID.TID 0000.0001) // =======================================================
 Computing Diagnostic #     81  oceTAUX      Counter:       1   Parms: UU      U1      
           Vector  Mate for  oceTAUX      Diagnostic #     82  oceTAUY  exists 
(PID.TID 0000.0001)  MDS_WRITE_FIELD: it,rec,kS,kL,kH=      10    -1  32   1   1 file=oceTAUX.0000000010
 Computing Diagnostic #     82  oceTAUY      Counter:       1   Parms: VV      U1      
           Vector  Mate for  oceTAUY      Diagnostic #     81  oceTAUX  exists 
(PID.TID 0000.0001)  MDS_WRITE_FIELD: it,rec,kS,kL,kH=      10    -1  32   1   1 file=oceTAUY.0000000010
 Computing Diagnostic #     85  oceFWflx     Counter:       1   Parms: SM      U1      
(PID.TID 0000.0001)  MDS_WRITE_FIELD: it,rec,kS,kL,kH=      10    -1  32   1   1 file=oceFWflx.0000000010
 Computing Diagnostic #     86  oceSflux     Counter:       1   Parms: SM      U1      
(PID.TID 0000.0001)  MDS_WRITE_FIELD: it,rec,kS,kL,kH=      10    -1  32   1   1 file=oceSflux.0000000010
 Computing Diagnostic #     87  oceQnet      Counter:       1   Parms: SM      U1      
(PID.TID 0000.0001)  MDS_WRITE_FIELD: it,rec,kS,kL,kH=      10    -1  32   1   1 file=oceQnet.0000000010
 Computing Diagnostic #     88  oceQsw       Counter:       1   Parms: SM      U1      
(PID.TID 0000.0001)  MDS_WRITE_FIELD: it,rec,kS,kL,kH=      10    -1  32   1   1 file=oceQsw.0000000010
 Computing Diagnostic #     27  SALT         Counter:       1   Parms: SMR     MR      
(PID.TID 0000.0001)  MDS_WRITE_FIELD: it,rec,kS,kL,kH=      10    -1  32   1   1 file=SSS.0000000010
 Computing Diagnostic #     26  THETA        Counter:       1   Parms: SMR     MR      
(PID.TID 0000.0001)  MDS_WRITE_FIELD: it,rec,kS,kL,kH=      10    -1  32   1   1 file=SST.0000000010
 Computing Diagnostic #     45  UVELMASS     Counter:       1   Parms: UUr     MR      
           Vector  Mate for  UVELMASS     Diagnostic #     46  VVELMASS exists 
(PID.TID 0000.0001)  MDS_WRITE_FIELD: it,rec,kS,kL,kH=      10    -1  32   1   1 file=UVEL1.0000000010
 Computing Diagnostic #     46  VVELMASS     Counter:       1   Parms: VVr     MR      
           Vector  Mate for  VVELMASS     Diagnostic #     45  UVELMASS exists 
(PID.TID 0000.0001)  MDS_WRITE_FIELD: it,rec,kS,kL,kH=      10    -1  32   1   1 file=VVEL1.0000000010
 Computing Diagnostic #     83  atmPload     Counter:       1   Parms: SM      U1      
(PID.TID 0000.0001)  MDS_WRITE_FIELD: it,rec,kS,kL,kH=      10    -1  32   1   1 file=atmPload.0000000010
(PID.TID 0000.0001)  write diagnostics summary to file: diagnostics_status.0000000011.txt
(PID.TID 0000.0001) DEBUG_MSG: LEAVING S/R FORWARD_STEP
(PID.TID 0000.0001) DEBUG_MSG: ENTERED S/R FORWARD_STEP
(PID.TID 0000.0001) DEBUG_MSG: CALLING S/R LOAD_FIELDS_DRIVER
(PID.TID 0000.0001) DEBUG_MSG: ENTERED S/R LOAD_FIELDS_DRIVER
(PID.TID 0000.0001) DEBUG_MSG: CALLING S/R EXTERNAL_FIELDS_LOAD
(PID.TID 0000.0001) DEBUG_MSG: LEAVING S/R LOAD_FIELDS_DRIVER
(PID.TID 0000.0001) DEBUG_MSG: CALLING S/R DO_ATMOSPHERIC_PHYS
(PID.TID 0000.0001) DEBUG_MSG: ENTERED S/R DO_ATMOSPHERIC_PHYS
(PID.TID 0000.0001) DEBUG_MSG: LEAVING S/R DO_ATMOSPHERIC_PHYS
(PID.TID 0000.0001) DEBUG_MSG: CALLING S/R DO_OCEANIC_PHYS
(PID.TID 0000.0001) DEBUG_MSG: ENTERED S/R DO_OCEANIC_PHYS
(PID.TID 0000.0001) DEBUG_MSG: CALLING S/R EXTERNAL_FORCING_SURF
(PID.TID 0000.0001) DEBUG_MSG: CALLING S/R FIND_RHO_2D (xNr)
(PID.TID 0000.0001) DEBUG_MSG:                  ENTERING UPWARD K LOOP (bi=   1, bj=   1)
(PID.TID 0000.0001) DEBUG_MSG: CALLING S/R GRAD_SIGMA
(PID.TID 0000.0001) DEBUG_MSG: CALLING S/R CALC_IVDC
(PID.TID 0000.0001) DEBUG_MSG: CALLING S/R GRAD_SIGMA
(PID.TID 0000.0001) DEBUG_MSG: CALLING S/R CALC_IVDC
(PID.TID 0000.0001) DEBUG_MSG: CALLING S/R GRAD_SIGMA
(PID.TID 0000.0001) DEBUG_MSG: CALLING S/R CALC_IVDC
(PID.TID 0000.0001) DEBUG_MSG: CALLING S/R GRAD_SIGMA
(PID.TID 0000.0001) DEBUG_MSG: CALLING S/R CALC_IVDC
(PID.TID 0000.0001) DEBUG_MSG: CALLING S/R GRAD_SIGMA
(PID.TID 0000.0001) DEBUG_MSG: CALLING S/R CALC_IVDC
(PID.TID 0000.0001) DEBUG_MSG: CALLING S/R GRAD_SIGMA
(PID.TID 0000.0001) DEBUG_MSG: CALLING S/R CALC_IVDC
(PID.TID 0000.0001) DEBUG_MSG: CALLING S/R GRAD_SIGMA
(PID.TID 0000.0001) DEBUG_MSG: CALLING S/R CALC_IVDC
(PID.TID 0000.0001) DEBUG_MSG: CALLING S/R GRAD_SIGMA
(PID.TID 0000.0001) DEBUG_MSG: CALLING S/R CALC_IVDC
(PID.TID 0000.0001) DEBUG_MSG: CALLING S/R GRAD_SIGMA
(PID.TID 0000.0001) DEBUG_MSG: CALLING S/R CALC_IVDC
(PID.TID 0000.0001) DEBUG_MSG: CALLING S/R GRAD_SIGMA
(PID.TID 0000.0001) DEBUG_MSG: CALLING S/R CALC_IVDC
(PID.TID 0000.0001) DEBUG_MSG: CALLING S/R GRAD_SIGMA
(PID.TID 0000.0001) DEBUG_MSG: CALLING S/R CALC_IVDC
(PID.TID 0000.0001) DEBUG_MSG: CALLING S/R GRAD_SIGMA
(PID.TID 0000.0001) DEBUG_MSG: CALLING S/R CALC_IVDC
(PID.TID 0000.0001) DEBUG_MSG: CALLING S/R GRAD_SIGMA
(PID.TID 0000.0001) DEBUG_MSG: CALLING S/R CALC_IVDC
(PID.TID 0000.0001) DEBUG_MSG: CALLING S/R GRAD_SIGMA
(PID.TID 0000.0001) DEBUG_MSG: CALLING S/R CALC_IVDC
(PID.TID 0000.0001) DEBUG_MSG: CALLING S/R GRAD_SIGMA
(PID.TID 0000.0001) DEBUG_MSG: CALLING S/R CALC_IVDC
(PID.TID 0000.0001) DEBUG_MSG: CALLING S/R GRAD_SIGMA
(PID.TID 0000.0001) DEBUG_MSG: CALLING S/R GMREDI_CALC_TENSOR
(PID.TID 0000.0001) DEBUG_MSG: LEAVING S/R DO_OCEANIC_PHYS
(PID.TID 0000.0001) DEBUG_MSG: CALLING S/R DYNAMICS
(PID.TID 0000.0001) DEBUG_MSG: ENTERED S/R DYNAMICS
DEBUG_STATS_RL:                EtaN (DYNAMICS)  min= -3.24580111995983E+00
DEBUG_STATS_RL:                EtaN (DYNAMICS)  max=  2.95234738796293E+00
DEBUG_STATS_RL:                EtaN (DYNAMICS) mean=  1.72844031322167E-02
DEBUG_STATS_RL:                EtaN (DYNAMICS) S.D.=  1.31354899022971E-01
DEBUG_STATS_RL:                Uvel (DYNAMICS)  min= -7.78513958278414E-01
DEBUG_STATS_RL:                Uvel (DYNAMICS)  max=  2.04762038214309E+00
DEBUG_STATS_RL:                Uvel (DYNAMICS) mean=  6.03853723090688E-04
DEBUG_STATS_RL:                Uvel (DYNAMICS) S.D.=  2.52325933334183E-02
DEBUG_STATS_RL:                Vvel (DYNAMICS)  min= -1.60928171909447E+00
DEBUG_STATS_RL:                Vvel (DYNAMICS)  max=  1.46106160619365E+00
DEBUG_STATS_RL:                Vvel (DYNAMICS) mean= -2.83962460376019E-04
DEBUG_STATS_RL:                Vvel (DYNAMICS) S.D.=  2.31762356777561E-02
DEBUG_STATS_RL:                Wvel (DYNAMICS)  min= -5.53866932723274E-04
DEBUG_STATS_RL:                Wvel (DYNAMICS)  max=  8.18806609786812E-05
DEBUG_STATS_RL:                Wvel (DYNAMICS) mean= -5.13071020163159E-07
DEBUG_STATS_RL:                Wvel (DYNAMICS) S.D.=  9.31250423467534E-06
DEBUG_STATS_RL:               Theta (DYNAMICS)  min=  1.62913602956488E+01
DEBUG_STATS_RL:               Theta (DYNAMICS)  max=  2.07823546919060E+01
DEBUG_STATS_RL:               Theta (DYNAMICS) mean=  1.99942495785483E+01
DEBUG_STATS_RL:               Theta (DYNAMICS) S.D.=  5.43418523931975E-02
DEBUG_STATS_RL:                Salt (DYNAMICS)  min=  3.16556652393845E+01
DEBUG_STATS_RL:                Salt (DYNAMICS)  max=  3.51361637867304E+01
DEBUG_STATS_RL:                Salt (DYNAMICS) mean=  3.49991152084348E+01
DEBUG_STATS_RL:                Salt (DYNAMICS) S.D.=  3.74712493963543E-02
DEBUG_STATS_RL:                  Gu (DYNAMICS)  min= -7.61719173236072E-01
DEBUG_STATS_RL:                  Gu (DYNAMICS)  max=  2.06585237828784E+00
DEBUG_STATS_RL:                  Gu (DYNAMICS) mean=  5.94651712258824E-04
DEBUG_STATS_RL:                  Gu (DYNAMICS) S.D.=  2.54783544083050E-02
DEBUG_STATS_RL:                  Gv (DYNAMICS)  min= -1.61099253863911E+00
DEBUG_STATS_RL:                  Gv (DYNAMICS)  max=  1.37913779958623E+00
DEBUG_STATS_RL:                  Gv (DYNAMICS) mean= -3.30179380852540E-04
DEBUG_STATS_RL:                  Gv (DYNAMICS) S.D.=  2.30058033567824E-02
DEBUG_STATS_RL:               GuNm1 (DYNAMICS)  min= -5.72938375624926E-05
DEBUG_STATS_RL:               GuNm1 (DYNAMICS)  max=  4.42728076450426E-05
DEBUG_STATS_RL:               GuNm1 (DYNAMICS) mean= -7.34705163786720E-09
DEBUG_STATS_RL:               GuNm1 (DYNAMICS) S.D.=  1.48067163640792E-06
DEBUG_STATS_RL:               GvNm1 (DYNAMICS)  min= -1.10539565961348E-04
DEBUG_STATS_RL:               GvNm1 (DYNAMICS)  max=  3.16019214693958E-05
DEBUG_STATS_RL:               GvNm1 (DYNAMICS) mean= -5.21476224709215E-08
DEBUG_STATS_RL:               GvNm1 (DYNAMICS) S.D.=  1.91079754667899E-06
DEBUG_STATS_RL:               GtNm1 (DYNAMICS)  min= -2.62377372644128E-05
DEBUG_STATS_RL:               GtNm1 (DYNAMICS)  max=  1.87555128782440E-06
DEBUG_STATS_RL:               GtNm1 (DYNAMICS) mean= -4.63575592634384E-09
DEBUG_STATS_RL:               GtNm1 (DYNAMICS) S.D.=  2.39344201354529E-07
DEBUG_STATS_RL:               GsNm1 (DYNAMICS)  min= -8.30410358143955E-06
DEBUG_STATS_RL:               GsNm1 (DYNAMICS)  max=  1.04729949348605E-06
DEBUG_STATS_RL:               GsNm1 (DYNAMICS) mean= -2.39118047340729E-09
DEBUG_STATS_RL:               GsNm1 (DYNAMICS) S.D.=  1.01804642591223E-07
(PID.TID 0000.0001) DEBUG_MSG: LEAVING S/R DYNAMICS
DEBUG_STATS_RL:    cg2d_b (SOLVE_FOR_PRESSURE)  min= -3.20885369479152E+05
DEBUG_STATS_RL:    cg2d_b (SOLVE_FOR_PRESSURE)  max=  3.20590929699330E+05
DEBUG_STATS_RL:    cg2d_b (SOLVE_FOR_PRESSURE) mean= -1.74355792310297E+03
DEBUG_STATS_RL:    cg2d_b (SOLVE_FOR_PRESSURE) S.D.=  1.29614086895383E+04
 cg2d: Sum(rhs),rhsMax =  -2.40164456005709E+01  6.14706116681206E+01
(PID.TID 0000.0001)  cg2d: iter=     1 ; resid.=  4.90990521266905E-02
(PID.TID 0000.0001)  cg2d: iter=     2 ; resid.=  6.29719890273176E-03
(PID.TID 0000.0001)  cg2d: iter=     3 ; resid.=  1.27318716175310E-03
(PID.TID 0000.0001)  cg2d: iter=     4 ; resid.=  2.63656337291163E-04
(PID.TID 0000.0001)  cg2d: iter=     5 ; resid.=  8.66173850537296E-05
(PID.TID 0000.0001)  cg2d: iter=     6 ; resid.=  2.53459922950137E-05
(PID.TID 0000.0001)  cg2d: iter=     7 ; resid.=  5.93014248104141E-06
(PID.TID 0000.0001)  cg2d: iter=     8 ; resid.=  1.40602546756839E-06
(PID.TID 0000.0001)  cg2d: iter=     9 ; resid.=  3.46582940367428E-07
(PID.TID 0000.0001)  cg2d: iter=    10 ; resid.=  9.77012235682611E-08
DEBUG_STATS_RL:    cg2d_x (SOLVE_FOR_PRESSURE)  min= -2.70598394185670E+01
DEBUG_STATS_RL:    cg2d_x (SOLVE_FOR_PRESSURE)  max=  2.77236015449222E+01
DEBUG_STATS_RL:    cg2d_x (SOLVE_FOR_PRESSURE) mean=  1.74960788575808E-01
DEBUG_STATS_RL:    cg2d_x (SOLVE_FOR_PRESSURE) S.D.=  1.19399227274822E+00
(PID.TID 0000.0001)      cg2d_init_res =   6.10100547347377E-01
(PID.TID 0000.0001)      cg2d_iters(min,last) =      -1      10
(PID.TID 0000.0001)      cg2d_last_res =   9.77012235682611E-08
(PID.TID 0000.0001) DEBUG_MSG: CALLING S/R UPDATE_ETAH
(PID.TID 0000.0001) DEBUG_MSG: ENTERED S/R CALC_R_STAR
(PID.TID 0000.0001) DEBUG_MSG: LEAVING S/R CALC_R_STAR
(PID.TID 0000.0001) DEBUG_MSG: CALLING S/R DO_STAGGER_FIELDS_EXCH.
(PID.TID 0000.0001) DEBUG_MSG: CALLING S/R THERMODYNAMICS
(PID.TID 0000.0001) DEBUG_MSG: ENTERED S/R THERMODYNAMICS
(PID.TID 0000.0001) DEBUG_MSG: CALLING S/R TEMP_INTEGRATE
(PID.TID 0000.0001) DEBUG_MSG: CALLING S/R SALT_INTEGRATE
DEBUG_STATS_RL:          Uvel (THERMODYNAMICS)  min= -7.93997880761805E-01
DEBUG_STATS_RL:          Uvel (THERMODYNAMICS)  max=  2.07644354662102E+00
DEBUG_STATS_RL:          Uvel (THERMODYNAMICS) mean=  6.14053460604025E-04
DEBUG_STATS_RL:          Uvel (THERMODYNAMICS) S.D.=  2.57617034033379E-02
DEBUG_STATS_RL:          Vvel (THERMODYNAMICS)  min= -1.59368540009046E+00
DEBUG_STATS_RL:          Vvel (THERMODYNAMICS)  max=  1.41090079972002E+00
DEBUG_STATS_RL:          Vvel (THERMODYNAMICS) mean= -3.08343299032541E-04
DEBUG_STATS_RL:          Vvel (THERMODYNAMICS) S.D.=  2.32148192619812E-02
DEBUG_STATS_RL:          Wvel (THERMODYNAMICS)  min= -5.48123455116692E-04
DEBUG_STATS_RL:          Wvel (THERMODYNAMICS)  max=  1.40762946032138E-04
DEBUG_STATS_RL:          Wvel (THERMODYNAMICS) mean= -4.74809846109057E-07
DEBUG_STATS_RL:          Wvel (THERMODYNAMICS) S.D.=  9.39197940628078E-06
DEBUG_STATS_RL:         Theta (THERMODYNAMICS)  min=  1.62675552804310E+01
DEBUG_STATS_RL:         Theta (THERMODYNAMICS)  max=  2.08479012307539E+01
DEBUG_STATS_RL:         Theta (THERMODYNAMICS) mean=  1.99946179072379E+01
DEBUG_STATS_RL:         Theta (THERMODYNAMICS) S.D.=  5.49734603396231E-02
DEBUG_STATS_RL:          Salt (THERMODYNAMICS)  min=  3.14006030790586E+01
DEBUG_STATS_RL:          Salt (THERMODYNAMICS)  max=  3.51361565890816E+01
DEBUG_STATS_RL:          Salt (THERMODYNAMICS) mean=  3.49990629557676E+01
DEBUG_STATS_RL:          Salt (THERMODYNAMICS) S.D.=  4.02862799633703E-02
DEBUG_STATS_RL:         GtNm1 (THERMODYNAMICS)  min= -2.67764365652101E-05
DEBUG_STATS_RL:         GtNm1 (THERMODYNAMICS)  max=  2.03381052882828E-06
DEBUG_STATS_RL:         GtNm1 (THERMODYNAMICS) mean= -4.46324122450843E-09
DEBUG_STATS_RL:         GtNm1 (THERMODYNAMICS) S.D.=  2.35953217457289E-07
DEBUG_STATS_RL:         GsNm1 (THERMODYNAMICS)  min= -8.89955706564741E-06
DEBUG_STATS_RL:         GsNm1 (THERMODYNAMICS)  max=  1.06806539153911E-06
DEBUG_STATS_RL:         GsNm1 (THERMODYNAMICS) mean= -2.56232672737848E-09
DEBUG_STATS_RL:         GsNm1 (THERMODYNAMICS) S.D.=  1.09686782943510E-07
(PID.TID 0000.0001) DEBUG_MSG: LEAVING S/R THERMODYNAMICS
(PID.TID 0000.0001) // =======================================================
(PID.TID 0000.0001) // Begin MONITOR dynamic field statistics
(PID.TID 0000.0001) // =======================================================
(PID.TID 0000.0001) %MON time_tsnumber                =                    12
(PID.TID 0000.0001) %MON time_secondsf                =   1.0800000000000E+04
(PID.TID 0000.0001) %MON dynstat_eta_max              =   2.8260552101016E+00
(PID.TID 0000.0001) %MON dynstat_eta_min              =  -2.7583934156895E+00
(PID.TID 0000.0001) %MON dynstat_eta_mean             =   1.7154475370659E-02
(PID.TID 0000.0001) %MON dynstat_eta_sd               =   1.2157765792316E-01
(PID.TID 0000.0001) %MON dynstat_eta_del2             =   2.7695087511465E-03
(PID.TID 0000.0001) %MON dynstat_uvel_max             =   2.0764435466210E+00
(PID.TID 0000.0001) %MON dynstat_uvel_min             =  -7.9399788076181E-01
(PID.TID 0000.0001) %MON dynstat_uvel_mean            =   3.4435629374970E-04
(PID.TID 0000.0001) %MON dynstat_uvel_sd              =   8.6169192881847E-03
(PID.TID 0000.0001) %MON dynstat_uvel_del2            =   1.7556694106889E-04
(PID.TID 0000.0001) %MON dynstat_vvel_max             =   1.4109007997200E+00
(PID.TID 0000.0001) %MON dynstat_vvel_min             =  -1.5936854000905E+00
(PID.TID 0000.0001) %MON dynstat_vvel_mean            =  -2.8225387081051E-05
(PID.TID 0000.0001) %MON dynstat_vvel_sd              =   7.6216870248669E-03
(PID.TID 0000.0001) %MON dynstat_vvel_del2            =   2.0970458812880E-04
(PID.TID 0000.0001) %MON dynstat_wvel_max             =   1.4076294603214E-04
(PID.TID 0000.0001) %MON dynstat_wvel_min             =  -5.4812345511669E-04
(PID.TID 0000.0001) %MON dynstat_wvel_mean            =  -3.0593025324755E-07
(PID.TID 0000.0001) %MON dynstat_wvel_sd              =   7.7541283606911E-06
(PID.TID 0000.0001) %MON dynstat_wvel_del2            =   7.4235279228065E-08
(PID.TID 0000.0001) %MON dynstat_theta_max            =   2.0847901230754E+01
(PID.TID 0000.0001) %MON dynstat_theta_min            =   1.6267555280431E+01
(PID.TID 0000.0001) %MON dynstat_theta_mean           =   1.9997729602884E+01
(PID.TID 0000.0001) %MON dynstat_theta_sd             =   1.9580316691520E-02
(PID.TID 0000.0001) %MON dynstat_theta_del2           =   3.7014994464911E-04
(PID.TID 0000.0001) %MON dynstat_salt_max             =   3.5136156589082E+01
(PID.TID 0000.0001) %MON dynstat_salt_min             =   3.1400603079059E+01
(PID.TID 0000.0001) %MON dynstat_salt_mean            =   3.4999848749752E+01
(PID.TID 0000.0001) %MON dynstat_salt_sd              =   1.2482435861760E-02
(PID.TID 0000.0001) %MON dynstat_salt_del2            =   4.3690747962808E-04
(PID.TID 0000.0001) %MON dynstat_sst_max              =   2.0847901230754E+01
(PID.TID 0000.0001) %MON dynstat_sst_min              =   1.6267555280431E+01
(PID.TID 0000.0001) %MON dynstat_sst_mean             =   2.0022256961112E+01
(PID.TID 0000.0001) %MON dynstat_sst_sd               =   1.4843603840300E-01
(PID.TID 0000.0001) %MON dynstat_sst_del2             =   3.6012867894544E-03
(PID.TID 0000.0001) %MON dynstat_sss_max              =   3.5136156589082E+01
(PID.TID 0000.0001) %MON dynstat_sss_min              =   3.1400603079059E+01
(PID.TID 0000.0001) %MON dynstat_sss_mean             =   3.4990501283163E+01
(PID.TID 0000.0001) %MON dynstat_sss_sd               =   1.4964736906005E-01
(PID.TID 0000.0001) %MON dynstat_sss_del2             =   5.9143349948296E-03
(PID.TID 0000.0001) %MON forcing_qnet_max             =   2.4749349894197E+04
(PID.TID 0000.0001) %MON forcing_qnet_min             =  -7.3131052654778E+03
(PID.TID 0000.0001) %MON forcing_qnet_mean            =  -1.7733373565056E+02
(PID.TID 0000.0001) %MON forcing_qnet_sd              =   9.3567204241976E+02
(PID.TID 0000.0001) %MON forcing_qnet_del2            =   2.1002921014611E+01
(PID.TID 0000.0001) %MON forcing_qsw_max              =   0.0000000000000E+00
(PID.TID 0000.0001) %MON forcing_qsw_min              =  -1.0858603051765E+02
(PID.TID 0000.0001) %MON forcing_qsw_mean             =  -2.2288833239052E+01
(PID.TID 0000.0001) %MON forcing_qsw_sd               =   3.0422036305511E+01
(PID.TID 0000.0001) %MON forcing_qsw_del2             =   2.3730138373768E-01
(PID.TID 0000.0001) %MON forcing_empmr_max            =   9.8995631560683E-03
(PID.TID 0000.0001) %MON forcing_empmr_min            =  -1.4227046072483E-01
(PID.TID 0000.0001) %MON forcing_empmr_mean           =  -5.6500448441253E-04
(PID.TID 0000.0001) %MON forcing_empmr_sd             =   6.2726846868742E-03
(PID.TID 0000.0001) %MON forcing_empmr_del2           =   2.4728108189230E-04
(PID.TID 0000.0001) %MON forcing_fu_max               =   1.0073580530024E+00
(PID.TID 0000.0001) %MON forcing_fu_min               =  -5.7661932196327E-01
(PID.TID 0000.0001) %MON forcing_fu_mean              =  -2.1345586475859E-03
(PID.TID 0000.0001) %MON forcing_fu_sd                =   1.0837464468967E-01
(PID.TID 0000.0001) %MON forcing_fu_del2              =   9.4580942198532E-04
(PID.TID 0000.0001) %MON forcing_fv_max               =   4.7947119712152E-01
(PID.TID 0000.0001) %MON forcing_fv_min               =  -5.7873049168019E-01
(PID.TID 0000.0001) %MON forcing_fv_mean              =  -6.1019258297691E-03
(PID.TID 0000.0001) %MON forcing_fv_sd                =   9.1958678525550E-02
(PID.TID 0000.0001) %MON forcing_fv_del2              =   8.2395717602538E-04
(PID.TID 0000.0001) %MON trAdv_CFL_u_max              =   6.7675106094389E-03
(PID.TID 0000.0001) %MON trAdv_CFL_v_max              =   8.8264915658609E-03
(PID.TID 0000.0001) %MON trAdv_CFL_w_max              =   1.2625177451075E-02
(PID.TID 0000.0001) %MON advcfl_uvel_max              =   6.9244546545201E-03
(PID.TID 0000.0001) %MON advcfl_vvel_max              =   4.7759076558709E-03
(PID.TID 0000.0001) %MON advcfl_wvel_max              =   9.8970755286839E-03
(PID.TID 0000.0001) %MON advcfl_W_hf_max              =   1.2625177451075E-02
(PID.TID 0000.0001) %MON pe_b_mean                    =   2.0083131690398E-05
(PID.TID 0000.0001) %MON ke_max                       =   1.7129350247807E+00
(PID.TID 0000.0001) %MON ke_mean                      =   6.1117587889828E-05
(PID.TID 0000.0001) %MON ke_vol                       =   1.3398085088683E+18
(PID.TID 0000.0001) %MON vort_r_min                   =  -7.4054589648847E-06
(PID.TID 0000.0001) %MON vort_r_max                   =   4.2841716519381E-06
(PID.TID 0000.0001) %MON vort_a_mean                  =  -2.0549865324846E-05
(PID.TID 0000.0001) %MON vort_a_sd                    =   7.5259267148015E-05
(PID.TID 0000.0001) %MON vort_p_mean                  =  -2.4783415264142E-05
(PID.TID 0000.0001) %MON vort_p_sd                    =   1.2810603272534E-04
(PID.TID 0000.0001) %MON surfExpan_theta_mean         =   1.5964390983510E-06
(PID.TID 0000.0001) %MON surfExpan_salt_mean          =   9.5571067593978E-07
(PID.TID 0000.0001) // =======================================================
(PID.TID 0000.0001) // End MONITOR dynamic field statistics
(PID.TID 0000.0001) // =======================================================
(PID.TID 0000.0001) DEBUG_MSG: LEAVING S/R FORWARD_STEP
(PID.TID 0000.0001) DEBUG_MSG: ENTERED S/R FORWARD_STEP
(PID.TID 0000.0001) DEBUG_MSG: CALLING S/R LOAD_FIELDS_DRIVER
(PID.TID 0000.0001) DEBUG_MSG: ENTERED S/R LOAD_FIELDS_DRIVER
(PID.TID 0000.0001) DEBUG_MSG: CALLING S/R EXTERNAL_FIELDS_LOAD
(PID.TID 0000.0001) DEBUG_MSG: LEAVING S/R LOAD_FIELDS_DRIVER
(PID.TID 0000.0001) DEBUG_MSG: CALLING S/R DO_ATMOSPHERIC_PHYS
(PID.TID 0000.0001) DEBUG_MSG: ENTERED S/R DO_ATMOSPHERIC_PHYS
(PID.TID 0000.0001) DEBUG_MSG: LEAVING S/R DO_ATMOSPHERIC_PHYS
(PID.TID 0000.0001) DEBUG_MSG: CALLING S/R DO_OCEANIC_PHYS
(PID.TID 0000.0001) DEBUG_MSG: ENTERED S/R DO_OCEANIC_PHYS
(PID.TID 0000.0001) DEBUG_MSG: CALLING S/R EXTERNAL_FORCING_SURF
(PID.TID 0000.0001) DEBUG_MSG: CALLING S/R FIND_RHO_2D (xNr)
(PID.TID 0000.0001) DEBUG_MSG:                  ENTERING UPWARD K LOOP (bi=   1, bj=   1)
(PID.TID 0000.0001) DEBUG_MSG: CALLING S/R GRAD_SIGMA
(PID.TID 0000.0001) DEBUG_MSG: CALLING S/R CALC_IVDC
(PID.TID 0000.0001) DEBUG_MSG: CALLING S/R GRAD_SIGMA
(PID.TID 0000.0001) DEBUG_MSG: CALLING S/R CALC_IVDC
(PID.TID 0000.0001) DEBUG_MSG: CALLING S/R GRAD_SIGMA
(PID.TID 0000.0001) DEBUG_MSG: CALLING S/R CALC_IVDC
(PID.TID 0000.0001) DEBUG_MSG: CALLING S/R GRAD_SIGMA
(PID.TID 0000.0001) DEBUG_MSG: CALLING S/R CALC_IVDC
(PID.TID 0000.0001) DEBUG_MSG: CALLING S/R GRAD_SIGMA
(PID.TID 0000.0001) DEBUG_MSG: CALLING S/R CALC_IVDC
(PID.TID 0000.0001) DEBUG_MSG: CALLING S/R GRAD_SIGMA
(PID.TID 0000.0001) DEBUG_MSG: CALLING S/R CALC_IVDC
(PID.TID 0000.0001) DEBUG_MSG: CALLING S/R GRAD_SIGMA
(PID.TID 0000.0001) DEBUG_MSG: CALLING S/R CALC_IVDC
(PID.TID 0000.0001) DEBUG_MSG: CALLING S/R GRAD_SIGMA
(PID.TID 0000.0001) DEBUG_MSG: CALLING S/R CALC_IVDC
(PID.TID 0000.0001) DEBUG_MSG: CALLING S/R GRAD_SIGMA
(PID.TID 0000.0001) DEBUG_MSG: CALLING S/R CALC_IVDC
(PID.TID 0000.0001) DEBUG_MSG: CALLING S/R GRAD_SIGMA
(PID.TID 0000.0001) DEBUG_MSG: CALLING S/R CALC_IVDC
(PID.TID 0000.0001) DEBUG_MSG: CALLING S/R GRAD_SIGMA
(PID.TID 0000.0001) DEBUG_MSG: CALLING S/R CALC_IVDC
(PID.TID 0000.0001) DEBUG_MSG: CALLING S/R GRAD_SIGMA
(PID.TID 0000.0001) DEBUG_MSG: CALLING S/R CALC_IVDC
(PID.TID 0000.0001) DEBUG_MSG: CALLING S/R GRAD_SIGMA
(PID.TID 0000.0001) DEBUG_MSG: CALLING S/R CALC_IVDC
(PID.TID 0000.0001) DEBUG_MSG: CALLING S/R GRAD_SIGMA
(PID.TID 0000.0001) DEBUG_MSG: CALLING S/R CALC_IVDC
(PID.TID 0000.0001) DEBUG_MSG: CALLING S/R GRAD_SIGMA
(PID.TID 0000.0001) DEBUG_MSG: CALLING S/R CALC_IVDC
(PID.TID 0000.0001) DEBUG_MSG: CALLING S/R GRAD_SIGMA
(PID.TID 0000.0001) DEBUG_MSG: CALLING S/R GMREDI_CALC_TENSOR
(PID.TID 0000.0001) DEBUG_MSG: LEAVING S/R DO_OCEANIC_PHYS
(PID.TID 0000.0001) DEBUG_MSG: CALLING S/R DYNAMICS
(PID.TID 0000.0001) DEBUG_MSG: ENTERED S/R DYNAMICS
DEBUG_STATS_RL:                EtaN (DYNAMICS)  min= -2.75839341568947E+00
DEBUG_STATS_RL:                EtaN (DYNAMICS)  max=  2.82605521010159E+00
DEBUG_STATS_RL:                EtaN (DYNAMICS) mean=  1.78349427323533E-02
DEBUG_STATS_RL:                EtaN (DYNAMICS) S.D.=  1.21711750281719E-01
DEBUG_STATS_RL:                Uvel (DYNAMICS)  min= -7.93997880761805E-01
DEBUG_STATS_RL:                Uvel (DYNAMICS)  max=  2.07644354662102E+00
DEBUG_STATS_RL:                Uvel (DYNAMICS) mean=  6.14053460604025E-04
DEBUG_STATS_RL:                Uvel (DYNAMICS) S.D.=  2.57617034033379E-02
DEBUG_STATS_RL:                Vvel (DYNAMICS)  min= -1.59368540009046E+00
DEBUG_STATS_RL:                Vvel (DYNAMICS)  max=  1.41090079972002E+00
DEBUG_STATS_RL:                Vvel (DYNAMICS) mean= -3.08343299032541E-04
DEBUG_STATS_RL:                Vvel (DYNAMICS) S.D.=  2.32148192619812E-02
DEBUG_STATS_RL:                Wvel (DYNAMICS)  min= -5.48123455116692E-04
DEBUG_STATS_RL:                Wvel (DYNAMICS)  max=  1.40762946032138E-04
DEBUG_STATS_RL:                Wvel (DYNAMICS) mean= -4.74809846109057E-07
DEBUG_STATS_RL:                Wvel (DYNAMICS) S.D.=  9.39197940628078E-06
DEBUG_STATS_RL:               Theta (DYNAMICS)  min=  1.62675552804310E+01
DEBUG_STATS_RL:               Theta (DYNAMICS)  max=  2.08479012307539E+01
DEBUG_STATS_RL:               Theta (DYNAMICS) mean=  1.99946179072379E+01
DEBUG_STATS_RL:               Theta (DYNAMICS) S.D.=  5.49734603396231E-02
DEBUG_STATS_RL:                Salt (DYNAMICS)  min=  3.14006030790586E+01
DEBUG_STATS_RL:                Salt (DYNAMICS)  max=  3.51361565890816E+01
DEBUG_STATS_RL:                Salt (DYNAMICS) mean=  3.49990629557676E+01
DEBUG_STATS_RL:                Salt (DYNAMICS) S.D.=  4.02862799633703E-02
DEBUG_STATS_RL:                  Gu (DYNAMICS)  min= -7.77304670425508E-01
DEBUG_STATS_RL:                  Gu (DYNAMICS)  max=  2.08779032575418E+00
DEBUG_STATS_RL:                  Gu (DYNAMICS) mean=  5.99015775239333E-04
DEBUG_STATS_RL:                  Gu (DYNAMICS) S.D.=  2.59681072631536E-02
DEBUG_STATS_RL:                  Gv (DYNAMICS)  min= -1.59611009526116E+00
DEBUG_STATS_RL:                  Gv (DYNAMICS)  max=  1.32779130452454E+00
DEBUG_STATS_RL:                  Gv (DYNAMICS) mean= -3.53913898176267E-04
DEBUG_STATS_RL:                  Gv (DYNAMICS) S.D.=  2.31350087180439E-02
DEBUG_STATS_RL:               GuNm1 (DYNAMICS)  min= -6.06881454223961E-05
DEBUG_STATS_RL:               GuNm1 (DYNAMICS)  max=  4.15632107659882E-05
DEBUG_STATS_RL:               GuNm1 (DYNAMICS) mean= -1.34981536196851E-08
DEBUG_STATS_RL:               GuNm1 (DYNAMICS) S.D.=  1.47359560772394E-06
DEBUG_STATS_RL:               GvNm1 (DYNAMICS)  min= -1.06433174311255E-04
DEBUG_STATS_RL:               GvNm1 (DYNAMICS)  max=  3.42021424389171E-05
DEBUG_STATS_RL:               GvNm1 (DYNAMICS) mean= -5.14663090549276E-08
DEBUG_STATS_RL:               GvNm1 (DYNAMICS) S.D.=  1.93083717313288E-06
DEBUG_STATS_RL:               GtNm1 (DYNAMICS)  min= -2.67764365652101E-05
DEBUG_STATS_RL:               GtNm1 (DYNAMICS)  max=  2.03381052882828E-06
DEBUG_STATS_RL:               GtNm1 (DYNAMICS) mean= -4.46324122450843E-09
DEBUG_STATS_RL:               GtNm1 (DYNAMICS) S.D.=  2.35953217457289E-07
DEBUG_STATS_RL:               GsNm1 (DYNAMICS)  min= -8.89955706564741E-06
DEBUG_STATS_RL:               GsNm1 (DYNAMICS)  max=  1.06806539153911E-06
DEBUG_STATS_RL:               GsNm1 (DYNAMICS) mean= -2.56232672737848E-09
DEBUG_STATS_RL:               GsNm1 (DYNAMICS) S.D.=  1.09686782943510E-07
(PID.TID 0000.0001) DEBUG_MSG: LEAVING S/R DYNAMICS
DEBUG_STATS_RL:    cg2d_b (SOLVE_FOR_PRESSURE)  min= -3.53213065954196E+05
DEBUG_STATS_RL:    cg2d_b (SOLVE_FOR_PRESSURE)  max=  2.82384969768847E+05
DEBUG_STATS_RL:    cg2d_b (SOLVE_FOR_PRESSURE) mean= -1.79316255231349E+03
DEBUG_STATS_RL:    cg2d_b (SOLVE_FOR_PRESSURE) S.D.=  1.23145594207829E+04
 cg2d: Sum(rhs),rhsMax =  -2.24390863339507E+01  6.76634875831798E+01
(PID.TID 0000.0001)  cg2d: iter=     1 ; resid.=  4.46304931883142E-02
(PID.TID 0000.0001)  cg2d: iter=     2 ; resid.=  5.55987537484335E-03
(PID.TID 0000.0001)  cg2d: iter=     3 ; resid.=  1.09596061190642E-03
(PID.TID 0000.0001)  cg2d: iter=     4 ; resid.=  2.39151419281796E-04
(PID.TID 0000.0001)  cg2d: iter=     5 ; resid.=  7.47850425127389E-05
(PID.TID 0000.0001)  cg2d: iter=     6 ; resid.=  2.27110736433804E-05
(PID.TID 0000.0001)  cg2d: iter=     7 ; resid.=  5.54256987405420E-06
(PID.TID 0000.0001)  cg2d: iter=     8 ; resid.=  1.38315241871455E-06
(PID.TID 0000.0001)  cg2d: iter=     9 ; resid.=  3.21901423350026E-07
(PID.TID 0000.0001)  cg2d: iter=    10 ; resid.=  8.89105022657503E-08
DEBUG_STATS_RL:    cg2d_x (SOLVE_FOR_PRESSURE)  min= -2.37695499333119E+01
DEBUG_STATS_RL:    cg2d_x (SOLVE_FOR_PRESSURE)  max=  3.04653780721353E+01
DEBUG_STATS_RL:    cg2d_x (SOLVE_FOR_PRESSURE) mean=  1.80395601107044E-01
DEBUG_STATS_RL:    cg2d_x (SOLVE_FOR_PRESSURE) S.D.=  1.12764703774200E+00
(PID.TID 0000.0001)      cg2d_init_res =   5.38768696554455E-01
(PID.TID 0000.0001)      cg2d_iters(min,last) =      -1      10
(PID.TID 0000.0001)      cg2d_last_res =   8.89105022657503E-08
(PID.TID 0000.0001) DEBUG_MSG: CALLING S/R UPDATE_ETAH
(PID.TID 0000.0001) DEBUG_MSG: ENTERED S/R CALC_R_STAR
(PID.TID 0000.0001) DEBUG_MSG: LEAVING S/R CALC_R_STAR
(PID.TID 0000.0001) DEBUG_MSG: CALLING S/R DO_STAGGER_FIELDS_EXCH.
(PID.TID 0000.0001) DEBUG_MSG: CALLING S/R THERMODYNAMICS
(PID.TID 0000.0001) DEBUG_MSG: ENTERED S/R THERMODYNAMICS
(PID.TID 0000.0001) DEBUG_MSG: CALLING S/R TEMP_INTEGRATE
(PID.TID 0000.0001) DEBUG_MSG: CALLING S/R SALT_INTEGRATE
DEBUG_STATS_RL:          Uvel (THERMODYNAMICS)  min= -8.00061229565111E-01
DEBUG_STATS_RL:          Uvel (THERMODYNAMICS)  max=  2.08080601897845E+00
DEBUG_STATS_RL:          Uvel (THERMODYNAMICS) mean=  6.19613531212707E-04
DEBUG_STATS_RL:          Uvel (THERMODYNAMICS) S.D.=  2.60552773268482E-02
DEBUG_STATS_RL:          Vvel (THERMODYNAMICS)  min= -1.55019618686542E+00
DEBUG_STATS_RL:          Vvel (THERMODYNAMICS)  max=  1.34020936353326E+00
DEBUG_STATS_RL:          Vvel (THERMODYNAMICS) mean= -3.30470457487181E-04
DEBUG_STATS_RL:          Vvel (THERMODYNAMICS) S.D.=  2.31409487405491E-02
DEBUG_STATS_RL:          Wvel (THERMODYNAMICS)  min= -5.66894846653225E-04
DEBUG_STATS_RL:          Wvel (THERMODYNAMICS)  max=  1.87596002374175E-04
DEBUG_STATS_RL:          Wvel (THERMODYNAMICS) mean= -4.51732655296673E-07
DEBUG_STATS_RL:          Wvel (THERMODYNAMICS) S.D.=  9.62564233812606E-06
DEBUG_STATS_RL:         Theta (THERMODYNAMICS)  min=  1.62445234117932E+01
DEBUG_STATS_RL:         Theta (THERMODYNAMICS)  max=  2.09125946373304E+01
DEBUG_STATS_RL:         Theta (THERMODYNAMICS) mean=  1.99949452829790E+01
DEBUG_STATS_RL:         Theta (THERMODYNAMICS) S.D.=  5.58175842422798E-02
DEBUG_STATS_RL:          Salt (THERMODYNAMICS)  min=  3.11526148768104E+01
DEBUG_STATS_RL:          Salt (THERMODYNAMICS)  max=  3.51361429836059E+01
DEBUG_STATS_RL:          Salt (THERMODYNAMICS) mean=  3.49990078980463E+01
DEBUG_STATS_RL:          Salt (THERMODYNAMICS) S.D.=  4.30469551305280E-02
DEBUG_STATS_RL:         GtNm1 (THERMODYNAMICS)  min= -2.70219818652355E-05
DEBUG_STATS_RL:         GtNm1 (THERMODYNAMICS)  max=  2.18586014558449E-06
DEBUG_STATS_RL:         GtNm1 (THERMODYNAMICS) mean= -4.21944493807110E-09
DEBUG_STATS_RL:         GtNm1 (THERMODYNAMICS) S.D.=  2.29289283991592E-07
DEBUG_STATS_RL:         GsNm1 (THERMODYNAMICS)  min= -9.46776598955885E-06
DEBUG_STATS_RL:         GsNm1 (THERMODYNAMICS)  max=  1.24467628141298E-06
DEBUG_STATS_RL:         GsNm1 (THERMODYNAMICS) mean= -2.72495665578050E-09
DEBUG_STATS_RL:         GsNm1 (THERMODYNAMICS) S.D.=  1.17277103798379E-07
(PID.TID 0000.0001) DEBUG_MSG: LEAVING S/R THERMODYNAMICS
(PID.TID 0000.0001) // =======================================================
(PID.TID 0000.0001) // Begin MONITOR dynamic field statistics
(PID.TID 0000.0001) // =======================================================
(PID.TID 0000.0001) %MON time_tsnumber                =                    13
(PID.TID 0000.0001) %MON time_secondsf                =   1.1700000000000E+04
(PID.TID 0000.0001) %MON dynstat_eta_max              =   3.1055431326920E+00
(PID.TID 0000.0001) %MON dynstat_eta_min              =  -2.4229918400175E+00
(PID.TID 0000.0001) %MON dynstat_eta_mean             =   1.7642524192432E-02
(PID.TID 0000.0001) %MON dynstat_eta_sd               =   1.1519064089000E-01
(PID.TID 0000.0001) %MON dynstat_eta_del2             =   2.7080922941969E-03
(PID.TID 0000.0001) %MON dynstat_uvel_max             =   2.0808060189785E+00
(PID.TID 0000.0001) %MON dynstat_uvel_min             =  -8.0006122956511E-01
(PID.TID 0000.0001) %MON dynstat_uvel_mean            =   3.6785223549038E-04
(PID.TID 0000.0001) %MON dynstat_uvel_sd              =   8.7217790074888E-03
(PID.TID 0000.0001) %MON dynstat_uvel_del2            =   1.7384803448150E-04
(PID.TID 0000.0001) %MON dynstat_vvel_max             =   1.3402093635333E+00
(PID.TID 0000.0001) %MON dynstat_vvel_min             =  -1.5501961868654E+00
(PID.TID 0000.0001) %MON dynstat_vvel_mean            =  -2.6179753078703E-05
(PID.TID 0000.0001) %MON dynstat_vvel_sd              =   7.6178805223768E-03
(PID.TID 0000.0001) %MON dynstat_vvel_del2            =   1.9917331076724E-04
(PID.TID 0000.0001) %MON dynstat_wvel_max             =   1.8759600237418E-04
(PID.TID 0000.0001) %MON dynstat_wvel_min             =  -5.6689484665323E-04
(PID.TID 0000.0001) %MON dynstat_wvel_mean            =  -2.7419269232097E-07
(PID.TID 0000.0001) %MON dynstat_wvel_sd              =   8.1282216769930E-06
(PID.TID 0000.0001) %MON dynstat_wvel_del2            =   7.7402290870121E-08
(PID.TID 0000.0001) %MON dynstat_theta_max            =   2.0912594637330E+01
(PID.TID 0000.0001) %MON dynstat_theta_min            =   1.6244523411793E+01
(PID.TID 0000.0001) %MON dynstat_theta_mean           =   1.9997738143208E+01
(PID.TID 0000.0001) %MON dynstat_theta_sd             =   1.9749002486543E-02
(PID.TID 0000.0001) %MON dynstat_theta_del2           =   3.7391135606571E-04
(PID.TID 0000.0001) %MON dynstat_salt_max             =   3.5136142983606E+01
(PID.TID 0000.0001) %MON dynstat_salt_min             =   3.1152614876810E+01
(PID.TID 0000.0001) %MON dynstat_salt_mean            =   3.4999842394678E+01
(PID.TID 0000.0001) %MON dynstat_salt_sd              =   1.3332248575790E-02
(PID.TID 0000.0001) %MON dynstat_salt_del2            =   4.6695673965409E-04
(PID.TID 0000.0001) %MON dynstat_sst_max              =   2.0912594637330E+01
(PID.TID 0000.0001) %MON dynstat_sst_min              =   1.6244523411793E+01
(PID.TID 0000.0001) %MON dynstat_sst_mean             =   2.0025984129898E+01
(PID.TID 0000.0001) %MON dynstat_sst_sd               =   1.5203258648944E-01
(PID.TID 0000.0001) %MON dynstat_sst_del2             =   3.6586093121137E-03
(PID.TID 0000.0001) %MON dynstat_sss_max              =   3.5136142983606E+01
(PID.TID 0000.0001) %MON dynstat_sss_min              =   3.1152614876810E+01
(PID.TID 0000.0001) %MON dynstat_sss_mean             =   3.4989778637887E+01
(PID.TID 0000.0001) %MON dynstat_sss_sd               =   1.5998315534783E-01
(PID.TID 0000.0001) %MON dynstat_sss_del2             =   6.3222603495993E-03
(PID.TID 0000.0001) %MON forcing_qnet_max             =   1.3114375940398E+05
(PID.TID 0000.0001) %MON forcing_qnet_min             =  -7.1998705923264E+03
(PID.TID 0000.0001) %MON forcing_qnet_mean            =  -1.4318498226603E+02
(PID.TID 0000.0001) %MON forcing_qnet_sd              =   2.3336573483035E+03
(PID.TID 0000.0001) %MON forcing_qnet_del2            =   7.3496370191119E+01
(PID.TID 0000.0001) %MON forcing_qsw_max              =   0.0000000000000E+00
(PID.TID 0000.0001) %MON forcing_qsw_min              =  -1.0842495722564E+02
(PID.TID 0000.0001) %MON forcing_qsw_mean             =  -2.2244797752841E+01
(PID.TID 0000.0001) %MON forcing_qsw_sd               =   3.0528862253158E+01
(PID.TID 0000.0001) %MON forcing_qsw_del2             =   2.4306858584843E-01
(PID.TID 0000.0001) %MON forcing_empmr_max            =   9.7974697127938E-03
(PID.TID 0000.0001) %MON forcing_empmr_min            =  -1.4080542325974E-01
(PID.TID 0000.0001) %MON forcing_empmr_mean           =  -5.6125614503832E-04
(PID.TID 0000.0001) %MON forcing_empmr_sd             =   6.2087311001148E-03
(PID.TID 0000.0001) %MON forcing_empmr_del2           =   2.4473362104319E-04
(PID.TID 0000.0001) %MON forcing_fu_max               =   9.9846258310517E-01
(PID.TID 0000.0001) %MON forcing_fu_min               =  -5.8030277050113E-01
(PID.TID 0000.0001) %MON forcing_fu_mean              =  -1.9157873955454E-03
(PID.TID 0000.0001) %MON forcing_fu_sd                =   1.0754234023450E-01
(PID.TID 0000.0001) %MON forcing_fu_del2              =   9.3427979277369E-04
(PID.TID 0000.0001) %MON forcing_fv_max               =   4.7337411439102E-01
(PID.TID 0000.0001) %MON forcing_fv_min               =  -5.7245175696053E-01
(PID.TID 0000.0001) %MON forcing_fv_mean              =  -5.6790969212893E-03
(PID.TID 0000.0001) %MON forcing_fv_sd                =   9.1116250000957E-02
(PID.TID 0000.0001) %MON forcing_fv_del2              =   8.1517071832465E-04
(PID.TID 0000.0001) %MON trAdv_CFL_u_max              =   6.8077687982260E-03
(PID.TID 0000.0001) %MON trAdv_CFL_v_max              =   8.6595006170120E-03
(PID.TID 0000.0001) %MON trAdv_CFL_w_max              =   1.1922631925637E-02
(PID.TID 0000.0001) %MON advcfl_uvel_max              =   6.9390024817749E-03
(PID.TID 0000.0001) %MON advcfl_vvel_max              =   4.6455805120209E-03
(PID.TID 0000.0001) %MON advcfl_wvel_max              =   9.7951598789381E-03
(PID.TID 0000.0001) %MON advcfl_W_hf_max              =   1.1922631925637E-02
(PID.TID 0000.0001) %MON pe_b_mean                    =   1.8091174956629E-05
(PID.TID 0000.0001) %MON ke_max                       =   1.6447187037005E+00
(PID.TID 0000.0001) %MON ke_mean                      =   6.1933556772197E-05
(PID.TID 0000.0001) %MON ke_vol                       =   1.3398086876488E+18
(PID.TID 0000.0001) %MON vort_r_min                   =  -7.9693032791263E-06
(PID.TID 0000.0001) %MON vort_r_max                   =   3.9220227679865E-06
(PID.TID 0000.0001) %MON vort_a_mean                  =  -2.0549865324846E-05
(PID.TID 0000.0001) %MON vort_a_sd                    =   7.5259266621591E-05
(PID.TID 0000.0001) %MON vort_p_mean                  =  -2.4783411240010E-05
(PID.TID 0000.0001) %MON vort_p_sd                    =   1.2810603332322E-04
(PID.TID 0000.0001) %MON surfExpan_theta_mean         =   1.4958633480495E-06
(PID.TID 0000.0001) %MON surfExpan_salt_mean          =   1.0076707065217E-06
(PID.TID 0000.0001) // =======================================================
(PID.TID 0000.0001) // End MONITOR dynamic field statistics
(PID.TID 0000.0001) // =======================================================
(PID.TID 0000.0001) DEBUG_MSG: LEAVING S/R FORWARD_STEP
(PID.TID 0000.0001) DEBUG_MSG: ENTERED S/R FORWARD_STEP
(PID.TID 0000.0001) DEBUG_MSG: CALLING S/R LOAD_FIELDS_DRIVER
(PID.TID 0000.0001) DEBUG_MSG: ENTERED S/R LOAD_FIELDS_DRIVER
(PID.TID 0000.0001) DEBUG_MSG: CALLING S/R EXTERNAL_FIELDS_LOAD
(PID.TID 0000.0001) DEBUG_MSG: LEAVING S/R LOAD_FIELDS_DRIVER
(PID.TID 0000.0001) DEBUG_MSG: CALLING S/R DO_ATMOSPHERIC_PHYS
(PID.TID 0000.0001) DEBUG_MSG: ENTERED S/R DO_ATMOSPHERIC_PHYS
(PID.TID 0000.0001) DEBUG_MSG: LEAVING S/R DO_ATMOSPHERIC_PHYS
(PID.TID 0000.0001) DEBUG_MSG: CALLING S/R DO_OCEANIC_PHYS
(PID.TID 0000.0001) DEBUG_MSG: ENTERED S/R DO_OCEANIC_PHYS
(PID.TID 0000.0001) DEBUG_MSG: CALLING S/R EXTERNAL_FORCING_SURF
(PID.TID 0000.0001) DEBUG_MSG: CALLING S/R FIND_RHO_2D (xNr)
(PID.TID 0000.0001) DEBUG_MSG:                  ENTERING UPWARD K LOOP (bi=   1, bj=   1)
(PID.TID 0000.0001) DEBUG_MSG: CALLING S/R GRAD_SIGMA
(PID.TID 0000.0001) DEBUG_MSG: CALLING S/R CALC_IVDC
(PID.TID 0000.0001) DEBUG_MSG: CALLING S/R GRAD_SIGMA
(PID.TID 0000.0001) DEBUG_MSG: CALLING S/R CALC_IVDC
(PID.TID 0000.0001) DEBUG_MSG: CALLING S/R GRAD_SIGMA
(PID.TID 0000.0001) DEBUG_MSG: CALLING S/R CALC_IVDC
(PID.TID 0000.0001) DEBUG_MSG: CALLING S/R GRAD_SIGMA
(PID.TID 0000.0001) DEBUG_MSG: CALLING S/R CALC_IVDC
(PID.TID 0000.0001) DEBUG_MSG: CALLING S/R GRAD_SIGMA
(PID.TID 0000.0001) DEBUG_MSG: CALLING S/R CALC_IVDC
(PID.TID 0000.0001) DEBUG_MSG: CALLING S/R GRAD_SIGMA
(PID.TID 0000.0001) DEBUG_MSG: CALLING S/R CALC_IVDC
(PID.TID 0000.0001) DEBUG_MSG: CALLING S/R GRAD_SIGMA
(PID.TID 0000.0001) DEBUG_MSG: CALLING S/R CALC_IVDC
(PID.TID 0000.0001) DEBUG_MSG: CALLING S/R GRAD_SIGMA
(PID.TID 0000.0001) DEBUG_MSG: CALLING S/R CALC_IVDC
(PID.TID 0000.0001) DEBUG_MSG: CALLING S/R GRAD_SIGMA
(PID.TID 0000.0001) DEBUG_MSG: CALLING S/R CALC_IVDC
(PID.TID 0000.0001) DEBUG_MSG: CALLING S/R GRAD_SIGMA
(PID.TID 0000.0001) DEBUG_MSG: CALLING S/R CALC_IVDC
(PID.TID 0000.0001) DEBUG_MSG: CALLING S/R GRAD_SIGMA
(PID.TID 0000.0001) DEBUG_MSG: CALLING S/R CALC_IVDC
(PID.TID 0000.0001) DEBUG_MSG: CALLING S/R GRAD_SIGMA
(PID.TID 0000.0001) DEBUG_MSG: CALLING S/R CALC_IVDC
(PID.TID 0000.0001) DEBUG_MSG: CALLING S/R GRAD_SIGMA
(PID.TID 0000.0001) DEBUG_MSG: CALLING S/R CALC_IVDC
(PID.TID 0000.0001) DEBUG_MSG: CALLING S/R GRAD_SIGMA
(PID.TID 0000.0001) DEBUG_MSG: CALLING S/R CALC_IVDC
(PID.TID 0000.0001) DEBUG_MSG: CALLING S/R GRAD_SIGMA
(PID.TID 0000.0001) DEBUG_MSG: CALLING S/R CALC_IVDC
(PID.TID 0000.0001) DEBUG_MSG: CALLING S/R GRAD_SIGMA
(PID.TID 0000.0001) DEBUG_MSG: CALLING S/R GMREDI_CALC_TENSOR
(PID.TID 0000.0001) DEBUG_MSG: LEAVING S/R DO_OCEANIC_PHYS
(PID.TID 0000.0001) DEBUG_MSG: CALLING S/R DYNAMICS
(PID.TID 0000.0001) DEBUG_MSG: ENTERED S/R DYNAMICS
DEBUG_STATS_RL:                EtaN (DYNAMICS)  min= -2.42299184001754E+00
DEBUG_STATS_RL:                EtaN (DYNAMICS)  max=  3.10554313269202E+00
DEBUG_STATS_RL:                EtaN (DYNAMICS) mean=  1.83889497728940E-02
DEBUG_STATS_RL:                EtaN (DYNAMICS) S.D.=  1.14948729393002E-01
DEBUG_STATS_RL:                Uvel (DYNAMICS)  min= -8.00061229565111E-01
DEBUG_STATS_RL:                Uvel (DYNAMICS)  max=  2.08080601897845E+00
DEBUG_STATS_RL:                Uvel (DYNAMICS) mean=  6.19613531212707E-04
DEBUG_STATS_RL:                Uvel (DYNAMICS) S.D.=  2.60552773268482E-02
DEBUG_STATS_RL:                Vvel (DYNAMICS)  min= -1.55019618686542E+00
DEBUG_STATS_RL:                Vvel (DYNAMICS)  max=  1.34020936353326E+00
DEBUG_STATS_RL:                Vvel (DYNAMICS) mean= -3.30470457487181E-04
DEBUG_STATS_RL:                Vvel (DYNAMICS) S.D.=  2.31409487405491E-02
DEBUG_STATS_RL:                Wvel (DYNAMICS)  min= -5.66894846653225E-04
DEBUG_STATS_RL:                Wvel (DYNAMICS)  max=  1.87596002374175E-04
DEBUG_STATS_RL:                Wvel (DYNAMICS) mean= -4.51732655296673E-07
DEBUG_STATS_RL:                Wvel (DYNAMICS) S.D.=  9.62564233812606E-06
DEBUG_STATS_RL:               Theta (DYNAMICS)  min=  1.62445234117932E+01
DEBUG_STATS_RL:               Theta (DYNAMICS)  max=  2.09125946373304E+01
DEBUG_STATS_RL:               Theta (DYNAMICS) mean=  1.99949452829790E+01
DEBUG_STATS_RL:               Theta (DYNAMICS) S.D.=  5.58175842422798E-02
DEBUG_STATS_RL:                Salt (DYNAMICS)  min=  3.11526148768104E+01
DEBUG_STATS_RL:                Salt (DYNAMICS)  max=  3.51361429836059E+01
DEBUG_STATS_RL:                Salt (DYNAMICS) mean=  3.49990078980463E+01
DEBUG_STATS_RL:                Salt (DYNAMICS) S.D.=  4.30469551305280E-02
DEBUG_STATS_RL:                  Gu (DYNAMICS)  min= -7.83812183030530E-01
DEBUG_STATS_RL:                  Gu (DYNAMICS)  max=  2.08456184824362E+00
DEBUG_STATS_RL:                  Gu (DYNAMICS) mean=  5.98524512017760E-04
DEBUG_STATS_RL:                  Gu (DYNAMICS) S.D.=  2.62196643527765E-02
DEBUG_STATS_RL:                  Gv (DYNAMICS)  min= -1.55343739781161E+00
DEBUG_STATS_RL:                  Gv (DYNAMICS)  max=  1.25869011459280E+00
DEBUG_STATS_RL:                  Gv (DYNAMICS) mean= -3.75639002067379E-04
DEBUG_STATS_RL:                  Gv (DYNAMICS) S.D.=  2.31597559945472E-02
DEBUG_STATS_RL:               GuNm1 (DYNAMICS)  min= -6.35844713996204E-05
DEBUG_STATS_RL:               GuNm1 (DYNAMICS)  max=  3.88150579829719E-05
DEBUG_STATS_RL:               GuNm1 (DYNAMICS) mean= -1.99991938636622E-08
DEBUG_STATS_RL:               GuNm1 (DYNAMICS) S.D.=  1.46802438637358E-06
DEBUG_STATS_RL:               GvNm1 (DYNAMICS)  min= -1.00808609240327E-04
DEBUG_STATS_RL:               GvNm1 (DYNAMICS)  max=  3.62816842519557E-05
DEBUG_STATS_RL:               GvNm1 (DYNAMICS) mean= -5.09344543619916E-08
DEBUG_STATS_RL:               GvNm1 (DYNAMICS) S.D.=  1.93500378132897E-06
DEBUG_STATS_RL:               GtNm1 (DYNAMICS)  min= -2.70219818652355E-05
DEBUG_STATS_RL:               GtNm1 (DYNAMICS)  max=  2.18586014558449E-06
DEBUG_STATS_RL:               GtNm1 (DYNAMICS) mean= -4.21944493807110E-09
DEBUG_STATS_RL:               GtNm1 (DYNAMICS) S.D.=  2.29289283991592E-07
DEBUG_STATS_RL:               GsNm1 (DYNAMICS)  min= -9.46776598955885E-06
DEBUG_STATS_RL:               GsNm1 (DYNAMICS)  max=  1.24467628141298E-06
DEBUG_STATS_RL:               GsNm1 (DYNAMICS) mean= -2.72495665578050E-09
DEBUG_STATS_RL:               GsNm1 (DYNAMICS) S.D.=  1.17277103798379E-07
(PID.TID 0000.0001) DEBUG_MSG: LEAVING S/R DYNAMICS
DEBUG_STATS_RL:    cg2d_b (SOLVE_FOR_PRESSURE)  min= -3.82578162547836E+05
DEBUG_STATS_RL:    cg2d_b (SOLVE_FOR_PRESSURE)  max=  2.85083404776117E+05
DEBUG_STATS_RL:    cg2d_b (SOLVE_FOR_PRESSURE) mean= -1.84247121642441E+03
DEBUG_STATS_RL:    cg2d_b (SOLVE_FOR_PRESSURE) S.D.=  1.19550310646993E+04
 cg2d: Sum(rhs),rhsMax =  -2.12864286930587E+01  7.32888311513034E+01
(PID.TID 0000.0001)  cg2d: iter=     1 ; resid.=  4.10298581063870E-02
(PID.TID 0000.0001)  cg2d: iter=     2 ; resid.=  4.95123050103211E-03
(PID.TID 0000.0001)  cg2d: iter=     3 ; resid.=  9.11408193301095E-04
(PID.TID 0000.0001)  cg2d: iter=     4 ; resid.=  2.20139658828153E-04
(PID.TID 0000.0001)  cg2d: iter=     5 ; resid.=  6.83002037393587E-05
(PID.TID 0000.0001)  cg2d: iter=     6 ; resid.=  2.05410525724350E-05
(PID.TID 0000.0001)  cg2d: iter=     7 ; resid.=  5.25988538510955E-06
(PID.TID 0000.0001)  cg2d: iter=     8 ; resid.=  1.28948530531202E-06
(PID.TID 0000.0001)  cg2d: iter=     9 ; resid.=  2.84688339510645E-07
(PID.TID 0000.0001)  cg2d: iter=    10 ; resid.=  7.53070435264128E-08
DEBUG_STATS_RL:    cg2d_x (SOLVE_FOR_PRESSURE)  min= -2.37780554199229E+01
DEBUG_STATS_RL:    cg2d_x (SOLVE_FOR_PRESSURE)  max=  3.29557309736314E+01
DEBUG_STATS_RL:    cg2d_x (SOLVE_FOR_PRESSURE) mean=  1.85855736862801E-01
DEBUG_STATS_RL:    cg2d_x (SOLVE_FOR_PRESSURE) S.D.=  1.09617408055506E+00
(PID.TID 0000.0001)      cg2d_init_res =   4.75957861084421E-01
(PID.TID 0000.0001)      cg2d_iters(min,last) =      -1      10
(PID.TID 0000.0001)      cg2d_last_res =   7.53070435264128E-08
(PID.TID 0000.0001) DEBUG_MSG: CALLING S/R UPDATE_ETAH
(PID.TID 0000.0001) DEBUG_MSG: ENTERED S/R CALC_R_STAR
(PID.TID 0000.0001) DEBUG_MSG: LEAVING S/R CALC_R_STAR
(PID.TID 0000.0001) DEBUG_MSG: CALLING S/R DO_STAGGER_FIELDS_EXCH.
(PID.TID 0000.0001) DEBUG_MSG: CALLING S/R THERMODYNAMICS
(PID.TID 0000.0001) DEBUG_MSG: ENTERED S/R THERMODYNAMICS
(PID.TID 0000.0001) DEBUG_MSG: CALLING S/R TEMP_INTEGRATE
(PID.TID 0000.0001) DEBUG_MSG: CALLING S/R SALT_INTEGRATE
DEBUG_STATS_RL:          Uvel (THERMODYNAMICS)  min= -7.97244910421053E-01
DEBUG_STATS_RL:          Uvel (THERMODYNAMICS)  max=  2.06183295014149E+00
DEBUG_STATS_RL:          Uvel (THERMODYNAMICS) mean=  6.20828453063956E-04
DEBUG_STATS_RL:          Uvel (THERMODYNAMICS) S.D.=  2.61255246051211E-02
DEBUG_STATS_RL:          Vvel (THERMODYNAMICS)  min= -1.48059133257906E+00
DEBUG_STATS_RL:          Vvel (THERMODYNAMICS)  max=  1.28529709050414E+00
DEBUG_STATS_RL:          Vvel (THERMODYNAMICS) mean= -3.50993246374242E-04
DEBUG_STATS_RL:          Vvel (THERMODYNAMICS) S.D.=  2.29925688185982E-02
DEBUG_STATS_RL:          Wvel (THERMODYNAMICS)  min= -5.75633647561822E-04
DEBUG_STATS_RL:          Wvel (THERMODYNAMICS)  max=  2.19047028728595E-04
DEBUG_STATS_RL:          Wvel (THERMODYNAMICS) mean= -4.43810005105458E-07
DEBUG_STATS_RL:          Wvel (THERMODYNAMICS) S.D.=  9.87065103876429E-06
DEBUG_STATS_RL:         Theta (THERMODYNAMICS)  min=  1.62214832100883E+01
DEBUG_STATS_RL:         Theta (THERMODYNAMICS)  max=  2.09764541506634E+01
DEBUG_STATS_RL:         Theta (THERMODYNAMICS) mean=  1.99952582003969E+01
DEBUG_STATS_RL:         Theta (THERMODYNAMICS) S.D.=  5.65594568306419E-02
DEBUG_STATS_RL:          Salt (THERMODYNAMICS)  min=  3.09114739610233E+01
DEBUG_STATS_RL:          Salt (THERMODYNAMICS)  max=  3.51361007416717E+01
DEBUG_STATS_RL:          Salt (THERMODYNAMICS) mean=  3.49989551732192E+01
DEBUG_STATS_RL:          Salt (THERMODYNAMICS) S.D.=  4.57317590522634E-02
DEBUG_STATS_RL:         GtNm1 (THERMODYNAMICS)  min= -2.70168491917512E-05
DEBUG_STATS_RL:         GtNm1 (THERMODYNAMICS)  max=  2.33215822580302E-06
DEBUG_STATS_RL:         GtNm1 (THERMODYNAMICS) mean= -3.91862632481890E-09
DEBUG_STATS_RL:         GtNm1 (THERMODYNAMICS) S.D.=  2.19819157577153E-07
DEBUG_STATS_RL:         GsNm1 (THERMODYNAMICS)  min= -1.00086581135835E-05
DEBUG_STATS_RL:         GsNm1 (THERMODYNAMICS)  max=  1.63907179101564E-06
DEBUG_STATS_RL:         GsNm1 (THERMODYNAMICS) mean= -2.87954860660855E-09
DEBUG_STATS_RL:         GsNm1 (THERMODYNAMICS) S.D.=  1.24623279643466E-07
(PID.TID 0000.0001) DEBUG_MSG: LEAVING S/R THERMODYNAMICS
(PID.TID 0000.0001) // =======================================================
(PID.TID 0000.0001) // Begin MONITOR dynamic field statistics
(PID.TID 0000.0001) // =======================================================
(PID.TID 0000.0001) %MON time_tsnumber                =                    14
(PID.TID 0000.0001) %MON time_secondsf                =   1.2600000000000E+04
(PID.TID 0000.0001) %MON dynstat_eta_max              =   3.3594017356927E+00
(PID.TID 0000.0001) %MON dynstat_eta_min              =  -2.4238588699818E+00
(PID.TID 0000.0001) %MON dynstat_eta_mean             =   1.8127661079967E-02
(PID.TID 0000.0001) %MON dynstat_eta_sd               =   1.1186861068287E-01
(PID.TID 0000.0001) %MON dynstat_eta_del2             =   2.7801600952804E-03
(PID.TID 0000.0001) %MON dynstat_uvel_max             =   2.0618329501415E+00
(PID.TID 0000.0001) %MON dynstat_uvel_min             =  -7.9724491042105E-01
(PID.TID 0000.0001) %MON dynstat_uvel_mean            =   3.8932418237801E-04
(PID.TID 0000.0001) %MON dynstat_uvel_sd              =   8.7409156974854E-03
(PID.TID 0000.0001) %MON dynstat_uvel_del2            =   1.7041316547056E-04
(PID.TID 0000.0001) %MON dynstat_vvel_max             =   1.2852970905041E+00
(PID.TID 0000.0001) %MON dynstat_vvel_min             =  -1.4805913325791E+00
(PID.TID 0000.0001) %MON dynstat_vvel_mean            =  -2.1347895943929E-05
(PID.TID 0000.0001) %MON dynstat_vvel_sd              =   7.6018796519791E-03
(PID.TID 0000.0001) %MON dynstat_vvel_del2            =   1.8721702211606E-04
(PID.TID 0000.0001) %MON dynstat_wvel_max             =   2.1904702872859E-04
(PID.TID 0000.0001) %MON dynstat_wvel_min             =  -5.7563364756182E-04
(PID.TID 0000.0001) %MON dynstat_wvel_mean            =  -2.6161384632225E-07
(PID.TID 0000.0001) %MON dynstat_wvel_sd              =   8.5531534907528E-06
(PID.TID 0000.0001) %MON dynstat_wvel_del2            =   8.0010143924636E-08
(PID.TID 0000.0001) %MON dynstat_theta_max            =   2.0976454150663E+01
(PID.TID 0000.0001) %MON dynstat_theta_min            =   1.6221483210088E+01
(PID.TID 0000.0001) %MON dynstat_theta_mean           =   1.9997747198781E+01
(PID.TID 0000.0001) %MON dynstat_theta_sd             =   1.9890593160288E-02
(PID.TID 0000.0001) %MON dynstat_theta_del2           =   3.7629763222609E-04
(PID.TID 0000.0001) %MON dynstat_salt_max             =   3.5136100741672E+01
(PID.TID 0000.0001) %MON dynstat_salt_min             =   3.0911473961023E+01
(PID.TID 0000.0001) %MON dynstat_salt_mean            =   3.4999836344762E+01
(PID.TID 0000.0001) %MON dynstat_salt_sd              =   1.4158185239454E-02
(PID.TID 0000.0001) %MON dynstat_salt_del2            =   4.9619027516055E-04
(PID.TID 0000.0001) %MON dynstat_sst_max              =   2.0976454150663E+01
(PID.TID 0000.0001) %MON dynstat_sst_min              =   1.6222599750358E+01
(PID.TID 0000.0001) %MON dynstat_sst_mean             =   2.0029650865646E+01
(PID.TID 0000.0001) %MON dynstat_sst_sd               =   1.5514744814829E-01
(PID.TID 0000.0001) %MON dynstat_sst_del2             =   3.7055211286488E-03
(PID.TID 0000.0001) %MON dynstat_sss_max              =   3.5136100741672E+01
(PID.TID 0000.0001) %MON dynstat_sss_min              =   3.0911473961023E+01
(PID.TID 0000.0001) %MON dynstat_sss_mean             =   3.4989090256147E+01
(PID.TID 0000.0001) %MON dynstat_sss_sd               =   1.7003857991252E-01
(PID.TID 0000.0001) %MON dynstat_sss_del2             =   6.7192120296207E-03
(PID.TID 0000.0001) %MON forcing_qnet_max             =   1.1399319280181E+05
(PID.TID 0000.0001) %MON forcing_qnet_min             =  -1.5094115234375E+04
(PID.TID 0000.0001) %MON forcing_qnet_mean            =  -1.5175447565734E+02
(PID.TID 0000.0001) %MON forcing_qnet_sd              =   1.7223062835943E+03
(PID.TID 0000.0001) %MON forcing_qnet_del2            =   6.5899205514115E+01
(PID.TID 0000.0001) %MON forcing_qsw_max              =   0.0000000000000E+00
(PID.TID 0000.0001) %MON forcing_qsw_min              =  -1.0767811010850E+02
(PID.TID 0000.0001) %MON forcing_qsw_mean             =  -2.2051005310808E+01
(PID.TID 0000.0001) %MON forcing_qsw_sd               =   3.0377052669787E+01
(PID.TID 0000.0001) %MON forcing_qsw_del2             =   2.4520176037688E-01
(PID.TID 0000.0001) %MON forcing_empmr_max            =   9.6965068951249E-03
(PID.TID 0000.0001) %MON forcing_empmr_min            =  -1.3935548067093E-01
(PID.TID 0000.0001) %MON forcing_empmr_mean           =  -5.5790742066516E-04
(PID.TID 0000.0001) %MON forcing_empmr_sd             =   6.1453518537816E-03
(PID.TID 0000.0001) %MON forcing_empmr_del2           =   2.4221724248296E-04
(PID.TID 0000.0001) %MON forcing_fu_max               =   9.8835216781223E-01
(PID.TID 0000.0001) %MON forcing_fu_min               =  -5.8042159134775E-01
(PID.TID 0000.0001) %MON forcing_fu_mean              =  -1.7040247440582E-03
(PID.TID 0000.0001) %MON forcing_fu_sd                =   1.0675836362559E-01
(PID.TID 0000.0001) %MON forcing_fu_del2              =   9.2366327831408E-04
(PID.TID 0000.0001) %MON forcing_fv_max               =   4.6490683940436E-01
(PID.TID 0000.0001) %MON forcing_fv_min               =  -5.7078759729171E-01
(PID.TID 0000.0001) %MON forcing_fv_mean              =  -5.2901433467874E-03
(PID.TID 0000.0001) %MON forcing_fv_sd                =   9.0323676670608E-02
(PID.TID 0000.0001) %MON forcing_fv_del2              =   8.0693929982143E-04
(PID.TID 0000.0001) %MON trAdv_CFL_u_max              =   6.7691073763868E-03
(PID.TID 0000.0001) %MON trAdv_CFL_v_max              =   8.3527269780996E-03
(PID.TID 0000.0001) %MON trAdv_CFL_w_max              =   1.1149333845576E-02
(PID.TID 0000.0001) %MON advcfl_uvel_max              =   6.8757317248924E-03
(PID.TID 0000.0001) %MON advcfl_vvel_max              =   4.4369908139204E-03
(PID.TID 0000.0001) %MON advcfl_wvel_max              =   9.6942943075429E-03
(PID.TID 0000.0001) %MON advcfl_W_hf_max              =   1.1149333845576E-02
(PID.TID 0000.0001) %MON pe_b_mean                    =   1.7109431329122E-05
(PID.TID 0000.0001) %MON ke_max                       =   1.5298644571330E+00
(PID.TID 0000.0001) %MON ke_mean                      =   6.1981488285073E-05
(PID.TID 0000.0001) %MON ke_vol                       =   1.3398088652433E+18
(PID.TID 0000.0001) %MON vort_r_min                   =  -8.4352806700112E-06
(PID.TID 0000.0001) %MON vort_r_max                   =   3.4798871424465E-06
(PID.TID 0000.0001) %MON vort_a_mean                  =  -2.0549865324846E-05
(PID.TID 0000.0001) %MON vort_a_sd                    =   7.5259266198169E-05
(PID.TID 0000.0001) %MON vort_p_mean                  =  -2.4783407409717E-05
(PID.TID 0000.0001) %MON vort_p_sd                    =   1.2810602167229E-04
(PID.TID 0000.0001) %MON surfExpan_theta_mean         =   1.3816684866927E-06
(PID.TID 0000.0001) %MON surfExpan_salt_mean          =   1.0576351741490E-06
(PID.TID 0000.0001) // =======================================================
(PID.TID 0000.0001) // End MONITOR dynamic field statistics
(PID.TID 0000.0001) // =======================================================
(PID.TID 0000.0001) DEBUG_MSG: LEAVING S/R FORWARD_STEP
(PID.TID 0000.0001) DEBUG_MSG: ENTERED S/R FORWARD_STEP
(PID.TID 0000.0001) DEBUG_MSG: CALLING S/R LOAD_FIELDS_DRIVER
(PID.TID 0000.0001) DEBUG_MSG: ENTERED S/R LOAD_FIELDS_DRIVER
(PID.TID 0000.0001) DEBUG_MSG: CALLING S/R EXTERNAL_FIELDS_LOAD
(PID.TID 0000.0001) DEBUG_MSG: LEAVING S/R LOAD_FIELDS_DRIVER
(PID.TID 0000.0001) DEBUG_MSG: CALLING S/R DO_ATMOSPHERIC_PHYS
(PID.TID 0000.0001) DEBUG_MSG: ENTERED S/R DO_ATMOSPHERIC_PHYS
(PID.TID 0000.0001) DEBUG_MSG: LEAVING S/R DO_ATMOSPHERIC_PHYS
(PID.TID 0000.0001) DEBUG_MSG: CALLING S/R DO_OCEANIC_PHYS
(PID.TID 0000.0001) DEBUG_MSG: ENTERED S/R DO_OCEANIC_PHYS
(PID.TID 0000.0001) DEBUG_MSG: CALLING S/R EXTERNAL_FORCING_SURF
(PID.TID 0000.0001) DEBUG_MSG: CALLING S/R FIND_RHO_2D (xNr)
(PID.TID 0000.0001) DEBUG_MSG:                  ENTERING UPWARD K LOOP (bi=   1, bj=   1)
(PID.TID 0000.0001) DEBUG_MSG: CALLING S/R GRAD_SIGMA
(PID.TID 0000.0001) DEBUG_MSG: CALLING S/R CALC_IVDC
(PID.TID 0000.0001) DEBUG_MSG: CALLING S/R GRAD_SIGMA
(PID.TID 0000.0001) DEBUG_MSG: CALLING S/R CALC_IVDC
(PID.TID 0000.0001) DEBUG_MSG: CALLING S/R GRAD_SIGMA
(PID.TID 0000.0001) DEBUG_MSG: CALLING S/R CALC_IVDC
(PID.TID 0000.0001) DEBUG_MSG: CALLING S/R GRAD_SIGMA
(PID.TID 0000.0001) DEBUG_MSG: CALLING S/R CALC_IVDC
(PID.TID 0000.0001) DEBUG_MSG: CALLING S/R GRAD_SIGMA
(PID.TID 0000.0001) DEBUG_MSG: CALLING S/R CALC_IVDC
(PID.TID 0000.0001) DEBUG_MSG: CALLING S/R GRAD_SIGMA
(PID.TID 0000.0001) DEBUG_MSG: CALLING S/R CALC_IVDC
(PID.TID 0000.0001) DEBUG_MSG: CALLING S/R GRAD_SIGMA
(PID.TID 0000.0001) DEBUG_MSG: CALLING S/R CALC_IVDC
(PID.TID 0000.0001) DEBUG_MSG: CALLING S/R GRAD_SIGMA
(PID.TID 0000.0001) DEBUG_MSG: CALLING S/R CALC_IVDC
(PID.TID 0000.0001) DEBUG_MSG: CALLING S/R GRAD_SIGMA
(PID.TID 0000.0001) DEBUG_MSG: CALLING S/R CALC_IVDC
(PID.TID 0000.0001) DEBUG_MSG: CALLING S/R GRAD_SIGMA
(PID.TID 0000.0001) DEBUG_MSG: CALLING S/R CALC_IVDC
(PID.TID 0000.0001) DEBUG_MSG: CALLING S/R GRAD_SIGMA
(PID.TID 0000.0001) DEBUG_MSG: CALLING S/R CALC_IVDC
(PID.TID 0000.0001) DEBUG_MSG: CALLING S/R GRAD_SIGMA
(PID.TID 0000.0001) DEBUG_MSG: CALLING S/R CALC_IVDC
(PID.TID 0000.0001) DEBUG_MSG: CALLING S/R GRAD_SIGMA
(PID.TID 0000.0001) DEBUG_MSG: CALLING S/R CALC_IVDC
(PID.TID 0000.0001) DEBUG_MSG: CALLING S/R GRAD_SIGMA
(PID.TID 0000.0001) DEBUG_MSG: CALLING S/R CALC_IVDC
(PID.TID 0000.0001) DEBUG_MSG: CALLING S/R GRAD_SIGMA
(PID.TID 0000.0001) DEBUG_MSG: CALLING S/R CALC_IVDC
(PID.TID 0000.0001) DEBUG_MSG: CALLING S/R GRAD_SIGMA
(PID.TID 0000.0001) DEBUG_MSG: CALLING S/R GMREDI_CALC_TENSOR
(PID.TID 0000.0001) DEBUG_MSG: LEAVING S/R DO_OCEANIC_PHYS
(PID.TID 0000.0001) DEBUG_MSG: CALLING S/R DYNAMICS
(PID.TID 0000.0001) DEBUG_MSG: ENTERED S/R DYNAMICS
DEBUG_STATS_RL:                EtaN (DYNAMICS)  min= -2.42385886998175E+00
DEBUG_STATS_RL:                EtaN (DYNAMICS)  max=  3.35940173569268E+00
DEBUG_STATS_RL:                EtaN (DYNAMICS) mean=  1.89455384328846E-02
DEBUG_STATS_RL:                EtaN (DYNAMICS) S.D.=  1.11740476987393E-01
DEBUG_STATS_RL:                Uvel (DYNAMICS)  min= -7.97244910421053E-01
DEBUG_STATS_RL:                Uvel (DYNAMICS)  max=  2.06183295014149E+00
DEBUG_STATS_RL:                Uvel (DYNAMICS) mean=  6.20828453063956E-04
DEBUG_STATS_RL:                Uvel (DYNAMICS) S.D.=  2.61255246051211E-02
DEBUG_STATS_RL:                Vvel (DYNAMICS)  min= -1.48059133257906E+00
DEBUG_STATS_RL:                Vvel (DYNAMICS)  max=  1.28529709050414E+00
DEBUG_STATS_RL:                Vvel (DYNAMICS) mean= -3.50993246374242E-04
DEBUG_STATS_RL:                Vvel (DYNAMICS) S.D.=  2.29925688185982E-02
DEBUG_STATS_RL:                Wvel (DYNAMICS)  min= -5.75633647561822E-04
DEBUG_STATS_RL:                Wvel (DYNAMICS)  max=  2.19047028728595E-04
DEBUG_STATS_RL:                Wvel (DYNAMICS) mean= -4.43810005105458E-07
DEBUG_STATS_RL:                Wvel (DYNAMICS) S.D.=  9.87065103876429E-06
DEBUG_STATS_RL:               Theta (DYNAMICS)  min=  1.62214832100883E+01
DEBUG_STATS_RL:               Theta (DYNAMICS)  max=  2.09764541506634E+01
DEBUG_STATS_RL:               Theta (DYNAMICS) mean=  1.99952582003969E+01
DEBUG_STATS_RL:               Theta (DYNAMICS) S.D.=  5.65594568306419E-02
DEBUG_STATS_RL:                Salt (DYNAMICS)  min=  3.09114739610233E+01
DEBUG_STATS_RL:                Salt (DYNAMICS)  max=  3.51361007416717E+01
DEBUG_STATS_RL:                Salt (DYNAMICS) mean=  3.49989551732192E+01
DEBUG_STATS_RL:                Salt (DYNAMICS) S.D.=  4.57317590522634E-02
DEBUG_STATS_RL:                  Gu (DYNAMICS)  min= -7.81560827632700E-01
DEBUG_STATS_RL:                  Gu (DYNAMICS)  max=  2.05755817682826E+00
DEBUG_STATS_RL:                  Gu (DYNAMICS) mean=  5.93527501966884E-04
DEBUG_STATS_RL:                  Gu (DYNAMICS) S.D.=  2.62455228055340E-02
DEBUG_STATS_RL:                  Gv (DYNAMICS)  min= -1.48478737078792E+00
DEBUG_STATS_RL:                  Gv (DYNAMICS)  max=  1.20511015811589E+00
DEBUG_STATS_RL:                  Gv (DYNAMICS) mean= -3.95979643725303E-04
DEBUG_STATS_RL:                  Gv (DYNAMICS) S.D.=  2.31119209219338E-02
DEBUG_STATS_RL:               GuNm1 (DYNAMICS)  min= -6.59197475329415E-05
DEBUG_STATS_RL:               GuNm1 (DYNAMICS)  max=  3.52400836878939E-05
DEBUG_STATS_RL:               GuNm1 (DYNAMICS) mean= -2.67431248389428E-08
DEBUG_STATS_RL:               GuNm1 (DYNAMICS) S.D.=  1.46440292366772E-06
DEBUG_STATS_RL:               GvNm1 (DYNAMICS)  min= -9.45341955421630E-05
DEBUG_STATS_RL:               GvNm1 (DYNAMICS)  max=  3.78164833896703E-05
DEBUG_STATS_RL:               GvNm1 (DYNAMICS) mean= -5.06180449766916E-08
DEBUG_STATS_RL:               GvNm1 (DYNAMICS) S.D.=  1.92361681556793E-06
DEBUG_STATS_RL:               GtNm1 (DYNAMICS)  min= -2.70168491917512E-05
DEBUG_STATS_RL:               GtNm1 (DYNAMICS)  max=  2.33215822580302E-06
DEBUG_STATS_RL:               GtNm1 (DYNAMICS) mean= -3.91862632481890E-09
DEBUG_STATS_RL:               GtNm1 (DYNAMICS) S.D.=  2.19819157577153E-07
DEBUG_STATS_RL:               GsNm1 (DYNAMICS)  min= -1.00086581135835E-05
DEBUG_STATS_RL:               GsNm1 (DYNAMICS)  max=  1.63907179101564E-06
DEBUG_STATS_RL:               GsNm1 (DYNAMICS) mean= -2.87954860660855E-09
DEBUG_STATS_RL:               GsNm1 (DYNAMICS) S.D.=  1.24623279643466E-07
(PID.TID 0000.0001) DEBUG_MSG: LEAVING S/R DYNAMICS
DEBUG_STATS_RL:    cg2d_b (SOLVE_FOR_PRESSURE)  min= -4.08363733769418E+05
DEBUG_STATS_RL:    cg2d_b (SOLVE_FOR_PRESSURE)  max=  2.58249506569285E+05
DEBUG_STATS_RL:    cg2d_b (SOLVE_FOR_PRESSURE) mean= -1.89139162857576E+03
DEBUG_STATS_RL:    cg2d_b (SOLVE_FOR_PRESSURE) S.D.=  1.18645855137381E+04
 cg2d: Sum(rhs),rhsMax =  -2.04718252552399E+01  7.82284606450860E+01
(PID.TID 0000.0001)  cg2d: iter=     1 ; resid.=  3.79220867249374E-02
(PID.TID 0000.0001)  cg2d: iter=     2 ; resid.=  4.54746247446391E-03
(PID.TID 0000.0001)  cg2d: iter=     3 ; resid.=  8.15247058321537E-04
(PID.TID 0000.0001)  cg2d: iter=     4 ; resid.=  2.16853627909309E-04
(PID.TID 0000.0001)  cg2d: iter=     5 ; resid.=  6.78410224256939E-05
(PID.TID 0000.0001)  cg2d: iter=     6 ; resid.=  1.96967956538122E-05
(PID.TID 0000.0001)  cg2d: iter=     7 ; resid.=  4.99515367294162E-06
(PID.TID 0000.0001)  cg2d: iter=     8 ; resid.=  1.15848314940443E-06
(PID.TID 0000.0001)  cg2d: iter=     9 ; resid.=  2.74773455676522E-07
(PID.TID 0000.0001)  cg2d: iter=    10 ; resid.=  8.03159559093529E-08
DEBUG_STATS_RL:    cg2d_x (SOLVE_FOR_PRESSURE)  min= -2.13974696635522E+01
DEBUG_STATS_RL:    cg2d_x (SOLVE_FOR_PRESSURE)  max=  3.51420993199858E+01
DEBUG_STATS_RL:    cg2d_x (SOLVE_FOR_PRESSURE) mean=  1.91313403028204E-01
DEBUG_STATS_RL:    cg2d_x (SOLVE_FOR_PRESSURE) S.D.=  1.09810660423239E+00
(PID.TID 0000.0001)      cg2d_init_res =   4.21969122189168E-01
(PID.TID 0000.0001)      cg2d_iters(min,last) =      -1      10
(PID.TID 0000.0001)      cg2d_last_res =   8.03159559093529E-08
(PID.TID 0000.0001) DEBUG_MSG: CALLING S/R UPDATE_ETAH
(PID.TID 0000.0001) DEBUG_MSG: ENTERED S/R CALC_R_STAR
(PID.TID 0000.0001) DEBUG_MSG: LEAVING S/R CALC_R_STAR
(PID.TID 0000.0001) DEBUG_MSG: CALLING S/R DO_STAGGER_FIELDS_EXCH.
(PID.TID 0000.0001) DEBUG_MSG: CALLING S/R THERMODYNAMICS
(PID.TID 0000.0001) DEBUG_MSG: ENTERED S/R THERMODYNAMICS
(PID.TID 0000.0001) DEBUG_MSG: CALLING S/R TEMP_INTEGRATE
(PID.TID 0000.0001) DEBUG_MSG: CALLING S/R SALT_INTEGRATE
DEBUG_STATS_RL:          Uvel (THERMODYNAMICS)  min= -7.85987731729312E-01
DEBUG_STATS_RL:          Uvel (THERMODYNAMICS)  max=  2.02048955018272E+00
DEBUG_STATS_RL:          Uvel (THERMODYNAMICS) mean=  6.17384961599271E-04
DEBUG_STATS_RL:          Uvel (THERMODYNAMICS) S.D.=  2.59980953330048E-02
DEBUG_STATS_RL:          Vvel (THERMODYNAMICS)  min= -1.38709436756268E+00
DEBUG_STATS_RL:          Vvel (THERMODYNAMICS)  max=  1.21368257845129E+00
DEBUG_STATS_RL:          Vvel (THERMODYNAMICS) mean= -3.70713697164542E-04
DEBUG_STATS_RL:          Vvel (THERMODYNAMICS) S.D.=  2.28086134139833E-02
DEBUG_STATS_RL:          Wvel (THERMODYNAMICS)  min= -5.73341383504236E-04
DEBUG_STATS_RL:          Wvel (THERMODYNAMICS)  max=  2.58304591855522E-04
DEBUG_STATS_RL:          Wvel (THERMODYNAMICS) mean= -4.47489951014732E-07
DEBUG_STATS_RL:          Wvel (THERMODYNAMICS) S.D.=  1.00434539680112E-05
DEBUG_STATS_RL:         Theta (THERMODYNAMICS)  min=  1.61981083184662E+01
DEBUG_STATS_RL:         Theta (THERMODYNAMICS)  max=  2.10394722869628E+01
DEBUG_STATS_RL:         Theta (THERMODYNAMICS) mean=  1.99955639376830E+01
DEBUG_STATS_RL:         Theta (THERMODYNAMICS) S.D.=  5.72742672462495E-02
DEBUG_STATS_RL:          Salt (THERMODYNAMICS)  min=  3.06769657825610E+01
DEBUG_STATS_RL:          Salt (THERMODYNAMICS)  max=  3.51378984404625E+01
DEBUG_STATS_RL:          Salt (THERMODYNAMICS) mean=  3.49989059001937E+01
DEBUG_STATS_RL:          Salt (THERMODYNAMICS) S.D.=  4.83468615730877E-02
DEBUG_STATS_RL:         GtNm1 (THERMODYNAMICS)  min= -2.68115183164310E-05
DEBUG_STATS_RL:         GtNm1 (THERMODYNAMICS)  max=  2.47329479993485E-06
DEBUG_STATS_RL:         GtNm1 (THERMODYNAMICS) mean= -3.57131135736686E-09
DEBUG_STATS_RL:         GtNm1 (THERMODYNAMICS) S.D.=  2.07895858267374E-07
DEBUG_STATS_RL:         GsNm1 (THERMODYNAMICS)  min= -1.05209658514798E-05
DEBUG_STATS_RL:         GsNm1 (THERMODYNAMICS)  max=  2.13693033832621E-06
DEBUG_STATS_RL:         GsNm1 (THERMODYNAMICS) mean= -3.02521878751714E-09
DEBUG_STATS_RL:         GsNm1 (THERMODYNAMICS) S.D.=  1.31716529051407E-07
(PID.TID 0000.0001) DEBUG_MSG: LEAVING S/R THERMODYNAMICS
(PID.TID 0000.0001) // =======================================================
(PID.TID 0000.0001) // Begin MONITOR dynamic field statistics
(PID.TID 0000.0001) // =======================================================
(PID.TID 0000.0001) %MON time_tsnumber                =                    15
(PID.TID 0000.0001) %MON time_secondsf                =   1.3500000000000E+04
(PID.TID 0000.0001) %MON dynstat_eta_max              =   3.5822731279477E+00
(PID.TID 0000.0001) %MON dynstat_eta_min              =  -2.1811895872008E+00
(PID.TID 0000.0001) %MON dynstat_eta_mean             =   1.8608978043546E-02
(PID.TID 0000.0001) %MON dynstat_eta_sd               =   1.1148013991573E-01
(PID.TID 0000.0001) %MON dynstat_eta_del2             =   2.9346137013593E-03
(PID.TID 0000.0001) %MON dynstat_uvel_max             =   2.0204895501827E+00
(PID.TID 0000.0001) %MON dynstat_uvel_min             =  -7.8598773172931E-01
(PID.TID 0000.0001) %MON dynstat_uvel_mean            =   4.0829258950518E-04
(PID.TID 0000.0001) %MON dynstat_uvel_sd              =   8.6885165340775E-03
(PID.TID 0000.0001) %MON dynstat_uvel_del2            =   1.6548568923745E-04
(PID.TID 0000.0001) %MON dynstat_vvel_max             =   1.2136825784513E+00
(PID.TID 0000.0001) %MON dynstat_vvel_min             =  -1.3870943675627E+00
(PID.TID 0000.0001) %MON dynstat_vvel_mean            =  -1.4011422666904E-05
(PID.TID 0000.0001) %MON dynstat_vvel_sd              =   7.5735348752121E-03
(PID.TID 0000.0001) %MON dynstat_vvel_del2            =   1.7445459194746E-04
(PID.TID 0000.0001) %MON dynstat_wvel_max             =   2.5830459185552E-04
(PID.TID 0000.0001) %MON dynstat_wvel_min             =  -5.7334138350424E-04
(PID.TID 0000.0001) %MON dynstat_wvel_mean            =  -2.6462515707170E-07
(PID.TID 0000.0001) %MON dynstat_wvel_sd              =   8.9114510721704E-06
(PID.TID 0000.0001) %MON dynstat_wvel_del2            =   8.1612286987225E-08
(PID.TID 0000.0001) %MON dynstat_theta_max            =   2.1039472286963E+01
(PID.TID 0000.0001) %MON dynstat_theta_min            =   1.6198108318466E+01
(PID.TID 0000.0001) %MON dynstat_theta_mean           =   1.9997757049030E+01
(PID.TID 0000.0001) %MON dynstat_theta_sd             =   2.0033216565125E-02
(PID.TID 0000.0001) %MON dynstat_theta_del2           =   3.8016120312867E-04
(PID.TID 0000.0001) %MON dynstat_salt_max             =   3.5137898440463E+01
(PID.TID 0000.0001) %MON dynstat_salt_min             =   3.0676965782561E+01
(PID.TID 0000.0001) %MON dynstat_salt_mean            =   3.4999830682833E+01
(PID.TID 0000.0001) %MON dynstat_salt_sd              =   1.4962773657059E-02
(PID.TID 0000.0001) %MON dynstat_salt_del2            =   5.2464841749534E-04
(PID.TID 0000.0001) %MON dynstat_sst_max              =   2.1039472286963E+01
(PID.TID 0000.0001) %MON dynstat_sst_min              =   1.6202152276253E+01
(PID.TID 0000.0001) %MON dynstat_sst_mean             =   2.0033234048557E+01
(PID.TID 0000.0001) %MON dynstat_sst_sd               =   1.5811231426251E-01
(PID.TID 0000.0001) %MON dynstat_sst_del2             =   3.7640217639444E-03
(PID.TID 0000.0001) %MON dynstat_sss_max              =   3.5137898440463E+01
(PID.TID 0000.0001) %MON dynstat_sss_min              =   3.0676965782561E+01
(PID.TID 0000.0001) %MON dynstat_sss_mean             =   3.4988429339249E+01
(PID.TID 0000.0001) %MON dynstat_sss_sd               =   1.7983190461267E-01
(PID.TID 0000.0001) %MON dynstat_sss_del2             =   7.1054211842205E-03
(PID.TID 0000.0001) %MON forcing_qnet_max             =   5.9347207479693E+03
(PID.TID 0000.0001) %MON forcing_qnet_min             =  -6.9789778653288E+03
(PID.TID 0000.0001) %MON forcing_qnet_mean            =  -1.6504103473916E+02
(PID.TID 0000.0001) %MON forcing_qnet_sd              =   7.4398046988253E+02
(PID.TID 0000.0001) %MON forcing_qnet_del2            =   1.4064557532381E+01
(PID.TID 0000.0001) %MON forcing_qsw_max              =   0.0000000000000E+00
(PID.TID 0000.0001) %MON forcing_qsw_min              =  -1.0647563434615E+02
(PID.TID 0000.0001) %MON forcing_qsw_mean             =  -2.1797932326967E+01
(PID.TID 0000.0001) %MON forcing_qsw_sd               =   3.0163016626937E+01
(PID.TID 0000.0001) %MON forcing_qsw_del2             =   2.4703131826100E-01
(PID.TID 0000.0001) %MON forcing_empmr_max            =   9.5965284854174E-03
(PID.TID 0000.0001) %MON forcing_empmr_min            =  -1.3791896402836E-01
(PID.TID 0000.0001) %MON forcing_empmr_mean           =  -5.5351450811630E-04
(PID.TID 0000.0001) %MON forcing_empmr_sd             =   6.0826593529891E-03
(PID.TID 0000.0001) %MON forcing_empmr_del2           =   2.3972574500358E-04
(PID.TID 0000.0001) %MON forcing_fu_max               =   9.7202783641167E-01
(PID.TID 0000.0001) %MON forcing_fu_min               =  -5.8130281861035E-01
(PID.TID 0000.0001) %MON forcing_fu_mean              =  -1.5388119143489E-03
(PID.TID 0000.0001) %MON forcing_fu_sd                =   1.0575574863358E-01
(PID.TID 0000.0001) %MON forcing_fu_del2              =   9.1033043143416E-04
(PID.TID 0000.0001) %MON forcing_fv_max               =   4.5867121402393E-01
(PID.TID 0000.0001) %MON forcing_fv_min               =  -5.6558639818373E-01
(PID.TID 0000.0001) %MON forcing_fv_mean              =  -4.9212928242275E-03
(PID.TID 0000.0001) %MON forcing_fv_sd                =   8.9481772833416E-02
(PID.TID 0000.0001) %MON forcing_fv_del2              =   7.9781739958208E-04
(PID.TID 0000.0001) %MON trAdv_CFL_u_max              =   6.6543764955731E-03
(PID.TID 0000.0001) %MON trAdv_CFL_v_max              =   7.9144308012178E-03
(PID.TID 0000.0001) %MON trAdv_CFL_w_max              =   1.0332955051565E-02
(PID.TID 0000.0001) %MON advcfl_uvel_max              =   6.7378611342163E-03
(PID.TID 0000.0001) %MON advcfl_vvel_max              =   4.1568019692481E-03
(PID.TID 0000.0001) %MON advcfl_wvel_max              =   9.5943627150162E-03
(PID.TID 0000.0001) %MON advcfl_W_hf_max              =   1.0332955051565E-02
(PID.TID 0000.0001) %MON pe_b_mean                    =   1.7017398881163E-05
(PID.TID 0000.0001) %MON ke_max                       =   1.3777789740531E+00
(PID.TID 0000.0001) %MON ke_mean                      =   6.1369270029588E-05
(PID.TID 0000.0001) %MON ke_vol                       =   1.3398090417782E+18
(PID.TID 0000.0001) %MON vort_r_min                   =  -8.7915178878376E-06
(PID.TID 0000.0001) %MON vort_r_max                   =   3.0913708539521E-06
(PID.TID 0000.0001) %MON vort_a_mean                  =  -2.0549865324846E-05
(PID.TID 0000.0001) %MON vort_a_sd                    =   7.5259265816682E-05
(PID.TID 0000.0001) %MON vort_p_mean                  =  -2.4783403729632E-05
(PID.TID 0000.0001) %MON vort_p_sd                    =   1.2810599900428E-04
(PID.TID 0000.0001) %MON surfExpan_theta_mean         =   1.2485498447857E-06
(PID.TID 0000.0001) %MON surfExpan_salt_mean          =   1.1036198069525E-06
(PID.TID 0000.0001) // =======================================================
(PID.TID 0000.0001) // End MONITOR dynamic field statistics
(PID.TID 0000.0001) // =======================================================
 Computing Diagnostic #     81  oceTAUX      Counter:       1   Parms: UU      U1      
           Vector  Mate for  oceTAUX      Diagnostic #     82  oceTAUY  exists 
(PID.TID 0000.0001)  MDS_WRITE_FIELD: it,rec,kS,kL,kH=      14    -1  32   1   1 file=oceTAUX.0000000014
 Computing Diagnostic #     82  oceTAUY      Counter:       1   Parms: VV      U1      
           Vector  Mate for  oceTAUY      Diagnostic #     81  oceTAUX  exists 
(PID.TID 0000.0001)  MDS_WRITE_FIELD: it,rec,kS,kL,kH=      14    -1  32   1   1 file=oceTAUY.0000000014
 Computing Diagnostic #     85  oceFWflx     Counter:       1   Parms: SM      U1      
(PID.TID 0000.0001)  MDS_WRITE_FIELD: it,rec,kS,kL,kH=      14    -1  32   1   1 file=oceFWflx.0000000014
 Computing Diagnostic #     86  oceSflux     Counter:       1   Parms: SM      U1      
(PID.TID 0000.0001)  MDS_WRITE_FIELD: it,rec,kS,kL,kH=      14    -1  32   1   1 file=oceSflux.0000000014
 Computing Diagnostic #     87  oceQnet      Counter:       1   Parms: SM      U1      
(PID.TID 0000.0001)  MDS_WRITE_FIELD: it,rec,kS,kL,kH=      14    -1  32   1   1 file=oceQnet.0000000014
 Computing Diagnostic #     88  oceQsw       Counter:       1   Parms: SM      U1      
(PID.TID 0000.0001)  MDS_WRITE_FIELD: it,rec,kS,kL,kH=      14    -1  32   1   1 file=oceQsw.0000000014
 Computing Diagnostic #     27  SALT         Counter:       1   Parms: SMR     MR      
(PID.TID 0000.0001)  MDS_WRITE_FIELD: it,rec,kS,kL,kH=      14    -1  32   1   1 file=SSS.0000000014
 Computing Diagnostic #     26  THETA        Counter:       1   Parms: SMR     MR      
(PID.TID 0000.0001)  MDS_WRITE_FIELD: it,rec,kS,kL,kH=      14    -1  32   1   1 file=SST.0000000014
 Computing Diagnostic #     45  UVELMASS     Counter:       1   Parms: UUr     MR      
           Vector  Mate for  UVELMASS     Diagnostic #     46  VVELMASS exists 
(PID.TID 0000.0001)  MDS_WRITE_FIELD: it,rec,kS,kL,kH=      14    -1  32   1   1 file=UVEL1.0000000014
 Computing Diagnostic #     46  VVELMASS     Counter:       1   Parms: VVr     MR      
           Vector  Mate for  VVELMASS     Diagnostic #     45  UVELMASS exists 
(PID.TID 0000.0001)  MDS_WRITE_FIELD: it,rec,kS,kL,kH=      14    -1  32   1   1 file=VVEL1.0000000014
 Computing Diagnostic #     83  atmPload     Counter:       1   Parms: SM      U1      
(PID.TID 0000.0001)  MDS_WRITE_FIELD: it,rec,kS,kL,kH=      14    -1  32   1   1 file=atmPload.0000000014
(PID.TID 0000.0001)  write diagnostics summary to file: diagnostics_status.0000000015.txt
(PID.TID 0000.0001) DEBUG_MSG: LEAVING S/R FORWARD_STEP
(PID.TID 0000.0001) DEBUG_MSG: ENTERED S/R FORWARD_STEP
(PID.TID 0000.0001) DEBUG_MSG: CALLING S/R LOAD_FIELDS_DRIVER
(PID.TID 0000.0001) DEBUG_MSG: ENTERED S/R LOAD_FIELDS_DRIVER
(PID.TID 0000.0001) DEBUG_MSG: CALLING S/R EXTERNAL_FIELDS_LOAD
(PID.TID 0000.0001) DEBUG_MSG: LEAVING S/R LOAD_FIELDS_DRIVER
(PID.TID 0000.0001) DEBUG_MSG: CALLING S/R DO_ATMOSPHERIC_PHYS
(PID.TID 0000.0001) DEBUG_MSG: ENTERED S/R DO_ATMOSPHERIC_PHYS
(PID.TID 0000.0001) DEBUG_MSG: LEAVING S/R DO_ATMOSPHERIC_PHYS
(PID.TID 0000.0001) DEBUG_MSG: CALLING S/R DO_OCEANIC_PHYS
(PID.TID 0000.0001) DEBUG_MSG: ENTERED S/R DO_OCEANIC_PHYS
(PID.TID 0000.0001) DEBUG_MSG: CALLING S/R EXTERNAL_FORCING_SURF
(PID.TID 0000.0001) DEBUG_MSG: CALLING S/R FIND_RHO_2D (xNr)
(PID.TID 0000.0001) DEBUG_MSG:                  ENTERING UPWARD K LOOP (bi=   1, bj=   1)
(PID.TID 0000.0001) DEBUG_MSG: CALLING S/R GRAD_SIGMA
(PID.TID 0000.0001) DEBUG_MSG: CALLING S/R CALC_IVDC
(PID.TID 0000.0001) DEBUG_MSG: CALLING S/R GRAD_SIGMA
(PID.TID 0000.0001) DEBUG_MSG: CALLING S/R CALC_IVDC
(PID.TID 0000.0001) DEBUG_MSG: CALLING S/R GRAD_SIGMA
(PID.TID 0000.0001) DEBUG_MSG: CALLING S/R CALC_IVDC
(PID.TID 0000.0001) DEBUG_MSG: CALLING S/R GRAD_SIGMA
(PID.TID 0000.0001) DEBUG_MSG: CALLING S/R CALC_IVDC
(PID.TID 0000.0001) DEBUG_MSG: CALLING S/R GRAD_SIGMA
(PID.TID 0000.0001) DEBUG_MSG: CALLING S/R CALC_IVDC
(PID.TID 0000.0001) DEBUG_MSG: CALLING S/R GRAD_SIGMA
(PID.TID 0000.0001) DEBUG_MSG: CALLING S/R CALC_IVDC
(PID.TID 0000.0001) DEBUG_MSG: CALLING S/R GRAD_SIGMA
(PID.TID 0000.0001) DEBUG_MSG: CALLING S/R CALC_IVDC
(PID.TID 0000.0001) DEBUG_MSG: CALLING S/R GRAD_SIGMA
(PID.TID 0000.0001) DEBUG_MSG: CALLING S/R CALC_IVDC
(PID.TID 0000.0001) DEBUG_MSG: CALLING S/R GRAD_SIGMA
(PID.TID 0000.0001) DEBUG_MSG: CALLING S/R CALC_IVDC
(PID.TID 0000.0001) DEBUG_MSG: CALLING S/R GRAD_SIGMA
(PID.TID 0000.0001) DEBUG_MSG: CALLING S/R CALC_IVDC
(PID.TID 0000.0001) DEBUG_MSG: CALLING S/R GRAD_SIGMA
(PID.TID 0000.0001) DEBUG_MSG: CALLING S/R CALC_IVDC
(PID.TID 0000.0001) DEBUG_MSG: CALLING S/R GRAD_SIGMA
(PID.TID 0000.0001) DEBUG_MSG: CALLING S/R CALC_IVDC
(PID.TID 0000.0001) DEBUG_MSG: CALLING S/R GRAD_SIGMA
(PID.TID 0000.0001) DEBUG_MSG: CALLING S/R CALC_IVDC
(PID.TID 0000.0001) DEBUG_MSG: CALLING S/R GRAD_SIGMA
(PID.TID 0000.0001) DEBUG_MSG: CALLING S/R CALC_IVDC
(PID.TID 0000.0001) DEBUG_MSG: CALLING S/R GRAD_SIGMA
(PID.TID 0000.0001) DEBUG_MSG: CALLING S/R CALC_IVDC
(PID.TID 0000.0001) DEBUG_MSG: CALLING S/R GRAD_SIGMA
(PID.TID 0000.0001) DEBUG_MSG: CALLING S/R GMREDI_CALC_TENSOR
(PID.TID 0000.0001) DEBUG_MSG: LEAVING S/R DO_OCEANIC_PHYS
(PID.TID 0000.0001) DEBUG_MSG: CALLING S/R DYNAMICS
(PID.TID 0000.0001) DEBUG_MSG: ENTERED S/R DYNAMICS
DEBUG_STATS_RL:                EtaN (DYNAMICS)  min= -2.18118958720078E+00
DEBUG_STATS_RL:                EtaN (DYNAMICS)  max=  3.58227312794774E+00
DEBUG_STATS_RL:                EtaN (DYNAMICS) mean=  1.95018761244442E-02
DEBUG_STATS_RL:                EtaN (DYNAMICS) S.D.=  1.11937472283609E-01
DEBUG_STATS_RL:                Uvel (DYNAMICS)  min= -7.85987731729312E-01
DEBUG_STATS_RL:                Uvel (DYNAMICS)  max=  2.02048955018272E+00
DEBUG_STATS_RL:                Uvel (DYNAMICS) mean=  6.17384961599271E-04
DEBUG_STATS_RL:                Uvel (DYNAMICS) S.D.=  2.59980953330048E-02
DEBUG_STATS_RL:                Vvel (DYNAMICS)  min= -1.38709436756268E+00
DEBUG_STATS_RL:                Vvel (DYNAMICS)  max=  1.21368257845129E+00
DEBUG_STATS_RL:                Vvel (DYNAMICS) mean= -3.70713697164542E-04
DEBUG_STATS_RL:                Vvel (DYNAMICS) S.D.=  2.28086134139833E-02
DEBUG_STATS_RL:                Wvel (DYNAMICS)  min= -5.73341383504236E-04
DEBUG_STATS_RL:                Wvel (DYNAMICS)  max=  2.58304591855522E-04
DEBUG_STATS_RL:                Wvel (DYNAMICS) mean= -4.47489951014732E-07
DEBUG_STATS_RL:                Wvel (DYNAMICS) S.D.=  1.00434539680112E-05
DEBUG_STATS_RL:               Theta (DYNAMICS)  min=  1.61981083184662E+01
DEBUG_STATS_RL:               Theta (DYNAMICS)  max=  2.10394722869628E+01
DEBUG_STATS_RL:               Theta (DYNAMICS) mean=  1.99955639376830E+01
DEBUG_STATS_RL:               Theta (DYNAMICS) S.D.=  5.72742672462495E-02
DEBUG_STATS_RL:                Salt (DYNAMICS)  min=  3.06769657825610E+01
DEBUG_STATS_RL:                Salt (DYNAMICS)  max=  3.51378984404625E+01
DEBUG_STATS_RL:                Salt (DYNAMICS) mean=  3.49989059001937E+01
DEBUG_STATS_RL:                Salt (DYNAMICS) S.D.=  4.83468615730877E-02
DEBUG_STATS_RL:                  Gu (DYNAMICS)  min= -7.71060515704157E-01
DEBUG_STATS_RL:                  Gu (DYNAMICS)  max=  2.00800538180394E+00
DEBUG_STATS_RL:                  Gu (DYNAMICS) mean=  5.84113149632864E-04
DEBUG_STATS_RL:                  Gu (DYNAMICS) S.D.=  2.60759440123170E-02
DEBUG_STATS_RL:                  Gv (DYNAMICS)  min= -1.39238152815742E+00
DEBUG_STATS_RL:                  Gv (DYNAMICS)  max=  1.13568222691350E+00
DEBUG_STATS_RL:                  Gv (DYNAMICS) mean= -4.15912671012668E-04
DEBUG_STATS_RL:                  Gv (DYNAMICS) S.D.=  2.30262787168315E-02
DEBUG_STATS_RL:               GuNm1 (DYNAMICS)  min= -6.76467504246643E-05
DEBUG_STATS_RL:               GuNm1 (DYNAMICS)  max=  3.09169702650013E-05
DEBUG_STATS_RL:               GuNm1 (DYNAMICS) mean= -3.34103751765228E-08
DEBUG_STATS_RL:               GuNm1 (DYNAMICS) S.D.=  1.46379602122971E-06
DEBUG_STATS_RL:               GvNm1 (DYNAMICS)  min= -9.28751302337035E-05
DEBUG_STATS_RL:               GvNm1 (DYNAMICS)  max=  3.88719694058380E-05
DEBUG_STATS_RL:               GvNm1 (DYNAMICS) mean= -5.06590317117724E-08
DEBUG_STATS_RL:               GvNm1 (DYNAMICS) S.D.=  1.89800207613133E-06
DEBUG_STATS_RL:               GtNm1 (DYNAMICS)  min= -2.68115183164310E-05
DEBUG_STATS_RL:               GtNm1 (DYNAMICS)  max=  2.47329479993485E-06
DEBUG_STATS_RL:               GtNm1 (DYNAMICS) mean= -3.57131135736686E-09
DEBUG_STATS_RL:               GtNm1 (DYNAMICS) S.D.=  2.07895858267374E-07
DEBUG_STATS_RL:               GsNm1 (DYNAMICS)  min= -1.05209658514798E-05
DEBUG_STATS_RL:               GsNm1 (DYNAMICS)  max=  2.13693033832621E-06
DEBUG_STATS_RL:               GsNm1 (DYNAMICS) mean= -3.02521878751714E-09
DEBUG_STATS_RL:               GsNm1 (DYNAMICS) S.D.=  1.31716529051407E-07
(PID.TID 0000.0001) DEBUG_MSG: LEAVING S/R DYNAMICS
DEBUG_STATS_RL:    cg2d_b (SOLVE_FOR_PRESSURE)  min= -4.30062944649552E+05
DEBUG_STATS_RL:    cg2d_b (SOLVE_FOR_PRESSURE)  max=  2.06505851799412E+05
DEBUG_STATS_RL:    cg2d_b (SOLVE_FOR_PRESSURE) mean= -1.93993610222289E+03
DEBUG_STATS_RL:    cg2d_b (SOLVE_FOR_PRESSURE) S.D.=  1.19914411657237E+04
 cg2d: Sum(rhs),rhsMax =  -1.99378199831012E+01  8.23852838984567E+01
(PID.TID 0000.0001)  cg2d: iter=     1 ; resid.=  3.51903303338950E-02
(PID.TID 0000.0001)  cg2d: iter=     2 ; resid.=  4.37249116208363E-03
(PID.TID 0000.0001)  cg2d: iter=     3 ; resid.=  8.29639157234616E-04
(PID.TID 0000.0001)  cg2d: iter=     4 ; resid.=  2.29612089017271E-04
(PID.TID 0000.0001)  cg2d: iter=     5 ; resid.=  7.07566640086804E-05
(PID.TID 0000.0001)  cg2d: iter=     6 ; resid.=  2.07874436254292E-05
(PID.TID 0000.0001)  cg2d: iter=     7 ; resid.=  4.68857779464213E-06
(PID.TID 0000.0001)  cg2d: iter=     8 ; resid.=  1.07082369432064E-06
(PID.TID 0000.0001)  cg2d: iter=     9 ; resid.=  3.08390612550351E-07
(PID.TID 0000.0001)  cg2d: iter=    10 ; resid.=  9.07686697217663E-08
DEBUG_STATS_RL:    cg2d_x (SOLVE_FOR_PRESSURE)  min= -1.71845900810074E+01
DEBUG_STATS_RL:    cg2d_x (SOLVE_FOR_PRESSURE)  max=  3.69812601749494E+01
DEBUG_STATS_RL:    cg2d_x (SOLVE_FOR_PRESSURE) mean=  1.96746236945463E-01
DEBUG_STATS_RL:    cg2d_x (SOLVE_FOR_PRESSURE) S.D.=  1.12545043267836E+00
(PID.TID 0000.0001)      cg2d_init_res =   3.77653050028835E-01
(PID.TID 0000.0001)      cg2d_iters(min,last) =      -1      10
(PID.TID 0000.0001)      cg2d_last_res =   9.07686697217663E-08
(PID.TID 0000.0001) DEBUG_MSG: CALLING S/R UPDATE_ETAH
(PID.TID 0000.0001) DEBUG_MSG: ENTERED S/R CALC_R_STAR
(PID.TID 0000.0001) DEBUG_MSG: LEAVING S/R CALC_R_STAR
(PID.TID 0000.0001) DEBUG_MSG: CALLING S/R DO_STAGGER_FIELDS_EXCH.
(PID.TID 0000.0001) DEBUG_MSG: CALLING S/R THERMODYNAMICS
(PID.TID 0000.0001) DEBUG_MSG: ENTERED S/R THERMODYNAMICS
(PID.TID 0000.0001) DEBUG_MSG: CALLING S/R TEMP_INTEGRATE
(PID.TID 0000.0001) DEBUG_MSG: CALLING S/R SALT_INTEGRATE
DEBUG_STATS_RL:          Uvel (THERMODYNAMICS)  min= -7.66908401415748E-01
DEBUG_STATS_RL:          Uvel (THERMODYNAMICS)  max=  1.95760137167539E+00
DEBUG_STATS_RL:          Uvel (THERMODYNAMICS) mean=  6.08874597957054E-04
DEBUG_STATS_RL:          Uvel (THERMODYNAMICS) S.D.=  2.57092477039381E-02
DEBUG_STATS_RL:          Vvel (THERMODYNAMICS)  min= -1.27226948670720E+00
DEBUG_STATS_RL:          Vvel (THERMODYNAMICS)  max=  1.12748443167173E+00
DEBUG_STATS_RL:          Vvel (THERMODYNAMICS) mean= -3.90745498100012E-04
DEBUG_STATS_RL:          Vvel (THERMODYNAMICS) S.D.=  2.26299044955881E-02
DEBUG_STATS_RL:          Wvel (THERMODYNAMICS)  min= -5.59722716693382E-04
DEBUG_STATS_RL:          Wvel (THERMODYNAMICS)  max=  2.89645579525977E-04
DEBUG_STATS_RL:          Wvel (THERMODYNAMICS) mean= -4.59527608208329E-07
DEBUG_STATS_RL:          Wvel (THERMODYNAMICS) S.D.=  1.01134096717211E-05
DEBUG_STATS_RL:         Theta (THERMODYNAMICS)  min=  1.61762326235502E+01
DEBUG_STATS_RL:         Theta (THERMODYNAMICS)  max=  2.11016571124122E+01
DEBUG_STATS_RL:         Theta (THERMODYNAMICS) mean=  1.99958512570347E+01
DEBUG_STATS_RL:         Theta (THERMODYNAMICS) S.D.=  5.79923908889941E-02
DEBUG_STATS_RL:          Salt (THERMODYNAMICS)  min=  3.04488825644618E+01
DEBUG_STATS_RL:          Salt (THERMODYNAMICS)  max=  3.51399426092552E+01
DEBUG_STATS_RL:          Salt (THERMODYNAMICS) mean=  3.49988566540159E+01
DEBUG_STATS_RL:          Salt (THERMODYNAMICS) S.D.=  5.08959069046341E-02
DEBUG_STATS_RL:         GtNm1 (THERMODYNAMICS)  min= -2.58132435035591E-05
DEBUG_STATS_RL:         GtNm1 (THERMODYNAMICS)  max=  2.60980052220736E-06
DEBUG_STATS_RL:         GtNm1 (THERMODYNAMICS) mean= -3.17788126352825E-09
DEBUG_STATS_RL:         GtNm1 (THERMODYNAMICS) S.D.=  1.93985159923627E-07
DEBUG_STATS_RL:         GsNm1 (THERMODYNAMICS)  min= -1.10036860841968E-05
DEBUG_STATS_RL:         GsNm1 (THERMODYNAMICS)  max=  2.73725441155512E-06
DEBUG_STATS_RL:         GsNm1 (THERMODYNAMICS) mean= -3.15940115984918E-09
DEBUG_STATS_RL:         GsNm1 (THERMODYNAMICS) S.D.=  1.38598277100207E-07
(PID.TID 0000.0001) DEBUG_MSG: LEAVING S/R THERMODYNAMICS
(PID.TID 0000.0001) // =======================================================
(PID.TID 0000.0001) // Begin MONITOR dynamic field statistics
(PID.TID 0000.0001) // =======================================================
(PID.TID 0000.0001) %MON time_tsnumber                =                    16
(PID.TID 0000.0001) %MON time_secondsf                =   1.4400000000000E+04
(PID.TID 0000.0001) %MON dynstat_eta_max              =   3.7697513006888E+00
(PID.TID 0000.0001) %MON dynstat_eta_min              =  -1.7517420986302E+00
(PID.TID 0000.0001) %MON dynstat_eta_mean             =   1.9086596232496E-02
(PID.TID 0000.0001) %MON dynstat_eta_sd               =   1.1342693978807E-01
(PID.TID 0000.0001) %MON dynstat_eta_del2             =   3.1201906031492E-03
(PID.TID 0000.0001) %MON dynstat_uvel_max             =   1.9576013716754E+00
(PID.TID 0000.0001) %MON dynstat_uvel_min             =  -7.6690840141575E-01
(PID.TID 0000.0001) %MON dynstat_uvel_mean            =   4.2420298768207E-04
(PID.TID 0000.0001) %MON dynstat_uvel_sd              =   8.5822014725099E-03
(PID.TID 0000.0001) %MON dynstat_uvel_del2            =   1.5934267038283E-04
(PID.TID 0000.0001) %MON dynstat_vvel_max             =   1.1274844316717E+00
(PID.TID 0000.0001) %MON dynstat_vvel_min             =  -1.2722694867072E+00
(PID.TID 0000.0001) %MON dynstat_vvel_mean            =  -4.9727096928768E-06
(PID.TID 0000.0001) %MON dynstat_vvel_sd              =   7.5372573101513E-03
(PID.TID 0000.0001) %MON dynstat_vvel_del2            =   1.6151870165427E-04
(PID.TID 0000.0001) %MON dynstat_wvel_max             =   2.8964557952598E-04
(PID.TID 0000.0001) %MON dynstat_wvel_min             =  -5.5972271669338E-04
(PID.TID 0000.0001) %MON dynstat_wvel_mean            =  -2.7911274586244E-07
(PID.TID 0000.0001) %MON dynstat_wvel_sd              =   9.1539440048913E-06
(PID.TID 0000.0001) %MON dynstat_wvel_del2            =   8.2210695947336E-08
(PID.TID 0000.0001) %MON dynstat_theta_max            =   2.1101657112412E+01
(PID.TID 0000.0001) %MON dynstat_theta_min            =   1.6176232623550E+01
(PID.TID 0000.0001) %MON dynstat_theta_mean           =   1.9997766583028E+01
(PID.TID 0000.0001) %MON dynstat_theta_sd             =   2.0183495020082E-02
(PID.TID 0000.0001) %MON dynstat_theta_del2           =   3.8355521891709E-04
(PID.TID 0000.0001) %MON dynstat_salt_max             =   3.5139942609255E+01
(PID.TID 0000.0001) %MON dynstat_salt_min             =   3.0448882564462E+01
(PID.TID 0000.0001) %MON dynstat_salt_mean            =   3.4999825142148E+01
(PID.TID 0000.0001) %MON dynstat_salt_sd              =   1.5747012700535E-02
(PID.TID 0000.0001) %MON dynstat_salt_del2            =   5.5232832140539E-04
(PID.TID 0000.0001) %MON dynstat_sst_max              =   2.1101657112412E+01
(PID.TID 0000.0001) %MON dynstat_sst_min              =   1.6182864293607E+01
(PID.TID 0000.0001) %MON dynstat_sst_mean             =   2.0036606313707E+01
(PID.TID 0000.0001) %MON dynstat_sst_sd               =   1.6100479713071E-01
(PID.TID 0000.0001) %MON dynstat_sst_del2             =   3.8140085289502E-03
(PID.TID 0000.0001) %MON dynstat_sss_max              =   3.5139942609255E+01
(PID.TID 0000.0001) %MON dynstat_sss_min              =   3.0448882564462E+01
(PID.TID 0000.0001) %MON dynstat_sss_mean             =   3.4987751466056E+01
(PID.TID 0000.0001) %MON dynstat_sss_sd               =   1.8936762927559E-01
(PID.TID 0000.0001) %MON dynstat_sss_del2             =   7.4809452481135E-03
(PID.TID 0000.0001) %MON forcing_qnet_max             =   5.8426302903613E+03
(PID.TID 0000.0001) %MON forcing_qnet_min             =  -2.0285058593750E+04
(PID.TID 0000.0001) %MON forcing_qnet_mean            =  -1.5955526204130E+02
(PID.TID 0000.0001) %MON forcing_qnet_sd              =   7.6568956999512E+02
(PID.TID 0000.0001) %MON forcing_qnet_del2            =   2.0063085216692E+01
(PID.TID 0000.0001) %MON forcing_qsw_max              =   0.0000000000000E+00
(PID.TID 0000.0001) %MON forcing_qsw_min              =  -1.0482278306452E+02
(PID.TID 0000.0001) %MON forcing_qsw_mean             =  -2.1481147601898E+01
(PID.TID 0000.0001) %MON forcing_qsw_sd               =   2.9893308012000E+01
(PID.TID 0000.0001) %MON forcing_qsw_del2             =   2.4852135051567E-01
(PID.TID 0000.0001) %MON forcing_empmr_max            =   9.4975838437676E-03
(PID.TID 0000.0001) %MON forcing_empmr_min            =  -1.3649922609329E-01
(PID.TID 0000.0001) %MON forcing_empmr_mean           =  -5.4926091729214E-04
(PID.TID 0000.0001) %MON forcing_empmr_sd             =   6.0206703897681E-03
(PID.TID 0000.0001) %MON forcing_empmr_del2           =   2.3726148832801E-04
(PID.TID 0000.0001) %MON forcing_fu_max               =   9.6002178199868E-01
(PID.TID 0000.0001) %MON forcing_fu_min               =  -5.8265899848817E-01
(PID.TID 0000.0001) %MON forcing_fu_mean              =  -1.3794478961276E-03
(PID.TID 0000.0001) %MON forcing_fu_sd                =   1.0484697479817E-01
(PID.TID 0000.0001) %MON forcing_fu_del2              =   8.9848955472665E-04
(PID.TID 0000.0001) %MON forcing_fv_max               =   4.5903720968750E-01
(PID.TID 0000.0001) %MON forcing_fv_min               =  -5.6710120428079E-01
(PID.TID 0000.0001) %MON forcing_fv_mean              =  -4.5962842658744E-03
(PID.TID 0000.0001) %MON forcing_fv_sd                =   8.8745156788816E-02
(PID.TID 0000.0001) %MON forcing_fv_del2              =   7.8986555246282E-04
(PID.TID 0000.0001) %MON trAdv_CFL_u_max              =   6.4661818697821E-03
(PID.TID 0000.0001) %MON trAdv_CFL_v_max              =   7.3553377635020E-03
(PID.TID 0000.0001) %MON trAdv_CFL_w_max              =   9.4935055095255E-03
(PID.TID 0000.0001) %MON advcfl_uvel_max              =   6.5281437349217E-03
(PID.TID 0000.0001) %MON advcfl_vvel_max              =   3.8126982788139E-03
(PID.TID 0000.0001) %MON advcfl_wvel_max              =   9.4955983369247E-03
(PID.TID 0000.0001) %MON advcfl_W_hf_max              =   9.4935055095255E-03
(PID.TID 0000.0001) %MON pe_b_mean                    =   1.7624674244274E-05
(PID.TID 0000.0001) %MON ke_max                       =   1.1996450218633E+00
(PID.TID 0000.0001) %MON ke_mean                      =   6.0277537890774E-05
(PID.TID 0000.0001) %MON ke_vol                       =   1.3398092169231E+18
(PID.TID 0000.0001) %MON vort_r_min                   =  -9.0292407091105E-06
(PID.TID 0000.0001) %MON vort_r_max                   =   2.7396600151912E-06
(PID.TID 0000.0001) %MON vort_a_mean                  =  -2.0549865324846E-05
(PID.TID 0000.0001) %MON vort_a_sd                    =   7.5259265383226E-05
(PID.TID 0000.0001) %MON vort_p_mean                  =  -2.4783400169723E-05
(PID.TID 0000.0001) %MON vort_p_sd                    =   1.2810596857116E-04
(PID.TID 0000.0001) %MON surfExpan_theta_mean         =   1.1032492940890E-06
(PID.TID 0000.0001) %MON surfExpan_salt_mean          =   1.1464666066895E-06
(PID.TID 0000.0001) // =======================================================
(PID.TID 0000.0001) // End MONITOR dynamic field statistics
(PID.TID 0000.0001) // =======================================================
(PID.TID 0000.0001) DEBUG_MSG: LEAVING S/R FORWARD_STEP
(PID.TID 0000.0001) DEBUG_MSG: ENTERED S/R FORWARD_STEP
(PID.TID 0000.0001) DEBUG_MSG: CALLING S/R LOAD_FIELDS_DRIVER
(PID.TID 0000.0001) DEBUG_MSG: ENTERED S/R LOAD_FIELDS_DRIVER
(PID.TID 0000.0001) DEBUG_MSG: CALLING S/R EXTERNAL_FIELDS_LOAD
(PID.TID 0000.0001) DEBUG_MSG: LEAVING S/R LOAD_FIELDS_DRIVER
(PID.TID 0000.0001) DEBUG_MSG: CALLING S/R DO_ATMOSPHERIC_PHYS
(PID.TID 0000.0001) DEBUG_MSG: ENTERED S/R DO_ATMOSPHERIC_PHYS
(PID.TID 0000.0001) DEBUG_MSG: LEAVING S/R DO_ATMOSPHERIC_PHYS
(PID.TID 0000.0001) DEBUG_MSG: CALLING S/R DO_OCEANIC_PHYS
(PID.TID 0000.0001) DEBUG_MSG: ENTERED S/R DO_OCEANIC_PHYS
(PID.TID 0000.0001) DEBUG_MSG: CALLING S/R EXTERNAL_FORCING_SURF
(PID.TID 0000.0001) DEBUG_MSG: CALLING S/R FIND_RHO_2D (xNr)
(PID.TID 0000.0001) DEBUG_MSG:                  ENTERING UPWARD K LOOP (bi=   1, bj=   1)
(PID.TID 0000.0001) DEBUG_MSG: CALLING S/R GRAD_SIGMA
(PID.TID 0000.0001) DEBUG_MSG: CALLING S/R CALC_IVDC
(PID.TID 0000.0001) DEBUG_MSG: CALLING S/R GRAD_SIGMA
(PID.TID 0000.0001) DEBUG_MSG: CALLING S/R CALC_IVDC
(PID.TID 0000.0001) DEBUG_MSG: CALLING S/R GRAD_SIGMA
(PID.TID 0000.0001) DEBUG_MSG: CALLING S/R CALC_IVDC
(PID.TID 0000.0001) DEBUG_MSG: CALLING S/R GRAD_SIGMA
(PID.TID 0000.0001) DEBUG_MSG: CALLING S/R CALC_IVDC
(PID.TID 0000.0001) DEBUG_MSG: CALLING S/R GRAD_SIGMA
(PID.TID 0000.0001) DEBUG_MSG: CALLING S/R CALC_IVDC
(PID.TID 0000.0001) DEBUG_MSG: CALLING S/R GRAD_SIGMA
(PID.TID 0000.0001) DEBUG_MSG: CALLING S/R CALC_IVDC
(PID.TID 0000.0001) DEBUG_MSG: CALLING S/R GRAD_SIGMA
(PID.TID 0000.0001) DEBUG_MSG: CALLING S/R CALC_IVDC
(PID.TID 0000.0001) DEBUG_MSG: CALLING S/R GRAD_SIGMA
(PID.TID 0000.0001) DEBUG_MSG: CALLING S/R CALC_IVDC
(PID.TID 0000.0001) DEBUG_MSG: CALLING S/R GRAD_SIGMA
(PID.TID 0000.0001) DEBUG_MSG: CALLING S/R CALC_IVDC
(PID.TID 0000.0001) DEBUG_MSG: CALLING S/R GRAD_SIGMA
(PID.TID 0000.0001) DEBUG_MSG: CALLING S/R CALC_IVDC
(PID.TID 0000.0001) DEBUG_MSG: CALLING S/R GRAD_SIGMA
(PID.TID 0000.0001) DEBUG_MSG: CALLING S/R CALC_IVDC
(PID.TID 0000.0001) DEBUG_MSG: CALLING S/R GRAD_SIGMA
(PID.TID 0000.0001) DEBUG_MSG: CALLING S/R CALC_IVDC
(PID.TID 0000.0001) DEBUG_MSG: CALLING S/R GRAD_SIGMA
(PID.TID 0000.0001) DEBUG_MSG: CALLING S/R CALC_IVDC
(PID.TID 0000.0001) DEBUG_MSG: CALLING S/R GRAD_SIGMA
(PID.TID 0000.0001) DEBUG_MSG: CALLING S/R CALC_IVDC
(PID.TID 0000.0001) DEBUG_MSG: CALLING S/R GRAD_SIGMA
(PID.TID 0000.0001) DEBUG_MSG: CALLING S/R CALC_IVDC
(PID.TID 0000.0001) DEBUG_MSG: CALLING S/R GRAD_SIGMA
(PID.TID 0000.0001) DEBUG_MSG: CALLING S/R GMREDI_CALC_TENSOR
(PID.TID 0000.0001) DEBUG_MSG: LEAVING S/R DO_OCEANIC_PHYS
(PID.TID 0000.0001) DEBUG_MSG: CALLING S/R DYNAMICS
(PID.TID 0000.0001) DEBUG_MSG: ENTERED S/R DYNAMICS
DEBUG_STATS_RL:                EtaN (DYNAMICS)  min= -1.75174209863022E+00
DEBUG_STATS_RL:                EtaN (DYNAMICS)  max=  3.76975130068882E+00
DEBUG_STATS_RL:                EtaN (DYNAMICS) mean=  2.00556823632889E-02
DEBUG_STATS_RL:                EtaN (DYNAMICS) S.D.=  1.14724814650359E-01
DEBUG_STATS_RL:                Uvel (DYNAMICS)  min= -7.66908401415748E-01
DEBUG_STATS_RL:                Uvel (DYNAMICS)  max=  1.95760137167539E+00
DEBUG_STATS_RL:                Uvel (DYNAMICS) mean=  6.08874597957054E-04
DEBUG_STATS_RL:                Uvel (DYNAMICS) S.D.=  2.57092477039381E-02
DEBUG_STATS_RL:                Vvel (DYNAMICS)  min= -1.27226948670720E+00
DEBUG_STATS_RL:                Vvel (DYNAMICS)  max=  1.12748443167173E+00
DEBUG_STATS_RL:                Vvel (DYNAMICS) mean= -3.90745498100012E-04
DEBUG_STATS_RL:                Vvel (DYNAMICS) S.D.=  2.26299044955881E-02
DEBUG_STATS_RL:                Wvel (DYNAMICS)  min= -5.59722716693382E-04
DEBUG_STATS_RL:                Wvel (DYNAMICS)  max=  2.89645579525977E-04
DEBUG_STATS_RL:                Wvel (DYNAMICS) mean= -4.59527608208329E-07
DEBUG_STATS_RL:                Wvel (DYNAMICS) S.D.=  1.01134096717211E-05
DEBUG_STATS_RL:               Theta (DYNAMICS)  min=  1.61762326235502E+01
DEBUG_STATS_RL:               Theta (DYNAMICS)  max=  2.11016571124122E+01
DEBUG_STATS_RL:               Theta (DYNAMICS) mean=  1.99958512570347E+01
DEBUG_STATS_RL:               Theta (DYNAMICS) S.D.=  5.79923908889941E-02
DEBUG_STATS_RL:                Salt (DYNAMICS)  min=  3.04488825644618E+01
DEBUG_STATS_RL:                Salt (DYNAMICS)  max=  3.51399426092552E+01
DEBUG_STATS_RL:                Salt (DYNAMICS) mean=  3.49988566540159E+01
DEBUG_STATS_RL:                Salt (DYNAMICS) S.D.=  5.08959069046341E-02
DEBUG_STATS_RL:                  Gu (DYNAMICS)  min= -7.52908085610469E-01
DEBUG_STATS_RL:                  Gu (DYNAMICS)  max=  1.93697588957191E+00
DEBUG_STATS_RL:                  Gu (DYNAMICS) mean=  5.70033206639194E-04
DEBUG_STATS_RL:                  Gu (DYNAMICS) S.D.=  2.57469991080021E-02
DEBUG_STATS_RL:                  Gv (DYNAMICS)  min= -1.27878762830880E+00
DEBUG_STATS_RL:                  Gv (DYNAMICS)  max=  1.05245286147750E+00
DEBUG_STATS_RL:                  Gv (DYNAMICS) mean= -4.36493577302153E-04
DEBUG_STATS_RL:                  Gv (DYNAMICS) S.D.=  2.29379076851893E-02
DEBUG_STATS_RL:               GuNm1 (DYNAMICS)  min= -6.87083292973448E-05
DEBUG_STATS_RL:               GuNm1 (DYNAMICS)  max=  2.61596962521090E-05
DEBUG_STATS_RL:               GuNm1 (DYNAMICS) mean= -3.97737098223936E-08
DEBUG_STATS_RL:               GuNm1 (DYNAMICS) S.D.=  1.46687346629284E-06
DEBUG_STATS_RL:               GvNm1 (DYNAMICS)  min= -9.09578048886663E-05
DEBUG_STATS_RL:               GvNm1 (DYNAMICS)  max=  3.94694299836288E-05
DEBUG_STATS_RL:               GvNm1 (DYNAMICS) mean= -5.10725311971610E-08
DEBUG_STATS_RL:               GvNm1 (DYNAMICS) S.D.=  1.86003849053559E-06
DEBUG_STATS_RL:               GtNm1 (DYNAMICS)  min= -2.58132435035591E-05
DEBUG_STATS_RL:               GtNm1 (DYNAMICS)  max=  2.60980052220736E-06
DEBUG_STATS_RL:               GtNm1 (DYNAMICS) mean= -3.17788126352825E-09
DEBUG_STATS_RL:               GtNm1 (DYNAMICS) S.D.=  1.93985159923627E-07
DEBUG_STATS_RL:               GsNm1 (DYNAMICS)  min= -1.10036860841968E-05
DEBUG_STATS_RL:               GsNm1 (DYNAMICS)  max=  2.73725441155512E-06
DEBUG_STATS_RL:               GsNm1 (DYNAMICS) mean= -3.15940115984918E-09
DEBUG_STATS_RL:               GsNm1 (DYNAMICS) S.D.=  1.38598277100207E-07
(PID.TID 0000.0001) DEBUG_MSG: LEAVING S/R DYNAMICS
DEBUG_STATS_RL:    cg2d_b (SOLVE_FOR_PRESSURE)  min= -4.47269179679023E+05
DEBUG_STATS_RL:    cg2d_b (SOLVE_FOR_PRESSURE)  max=  2.12374886431249E+05
DEBUG_STATS_RL:    cg2d_b (SOLVE_FOR_PRESSURE) mean= -1.98820517806441E+03
DEBUG_STATS_RL:    cg2d_b (SOLVE_FOR_PRESSURE) S.D.=  1.22746073354690E+04
 cg2d: Sum(rhs),rhsMax =  -1.96478257083379E+01  8.56814073505286E+01
(PID.TID 0000.0001)  cg2d: iter=     1 ; resid.=  3.28866362459560E-02
(PID.TID 0000.0001)  cg2d: iter=     2 ; resid.=  4.37697518625731E-03
(PID.TID 0000.0001)  cg2d: iter=     3 ; resid.=  8.90654068994989E-04
(PID.TID 0000.0001)  cg2d: iter=     4 ; resid.=  2.41395991471394E-04
(PID.TID 0000.0001)  cg2d: iter=     5 ; resid.=  7.53295857520160E-05
(PID.TID 0000.0001)  cg2d: iter=     6 ; resid.=  2.20666991176027E-05
(PID.TID 0000.0001)  cg2d: iter=     7 ; resid.=  4.36325878076889E-06
(PID.TID 0000.0001)  cg2d: iter=     8 ; resid.=  1.02783530711057E-06
(PID.TID 0000.0001)  cg2d: iter=     9 ; resid.=  3.30357539895080E-07
(PID.TID 0000.0001)  cg2d: iter=    10 ; resid.=  9.23676360753220E-08
DEBUG_STATS_RL:    cg2d_x (SOLVE_FOR_PRESSURE)  min= -2.24553488820569E+01
DEBUG_STATS_RL:    cg2d_x (SOLVE_FOR_PRESSURE)  max=  3.84384808606237E+01
DEBUG_STATS_RL:    cg2d_x (SOLVE_FOR_PRESSURE) mean=  2.02146664015763E-01
DEBUG_STATS_RL:    cg2d_x (SOLVE_FOR_PRESSURE) S.D.=  1.16793643362098E+00
(PID.TID 0000.0001)      cg2d_init_res =   3.42261053198514E-01
(PID.TID 0000.0001)      cg2d_iters(min,last) =      -1      10
(PID.TID 0000.0001)      cg2d_last_res =   9.23676360753220E-08
(PID.TID 0000.0001) DEBUG_MSG: CALLING S/R UPDATE_ETAH
(PID.TID 0000.0001) DEBUG_MSG: ENTERED S/R CALC_R_STAR
(PID.TID 0000.0001) DEBUG_MSG: LEAVING S/R CALC_R_STAR
(PID.TID 0000.0001) DEBUG_MSG: CALLING S/R DO_STAGGER_FIELDS_EXCH.
(PID.TID 0000.0001) DEBUG_MSG: CALLING S/R THERMODYNAMICS
(PID.TID 0000.0001) DEBUG_MSG: ENTERED S/R THERMODYNAMICS
(PID.TID 0000.0001) DEBUG_MSG: CALLING S/R TEMP_INTEGRATE
(PID.TID 0000.0001) DEBUG_MSG: CALLING S/R SALT_INTEGRATE
DEBUG_STATS_RL:          Uvel (THERMODYNAMICS)  min= -7.40700383409886E-01
DEBUG_STATS_RL:          Uvel (THERMODYNAMICS)  max=  1.87393377375276E+00
DEBUG_STATS_RL:          Uvel (THERMODYNAMICS) mean=  5.94735442841563E-04
DEBUG_STATS_RL:          Uvel (THERMODYNAMICS) S.D.=  2.52950751645092E-02
DEBUG_STATS_RL:          Vvel (THERMODYNAMICS)  min= -1.13896113873669E+00
DEBUG_STATS_RL:          Vvel (THERMODYNAMICS)  max=  1.02897652188556E+00
DEBUG_STATS_RL:          Vvel (THERMODYNAMICS) mean= -4.12201722049085E-04
DEBUG_STATS_RL:          Vvel (THERMODYNAMICS) S.D.=  2.24949984316475E-02
DEBUG_STATS_RL:          Wvel (THERMODYNAMICS)  min= -5.35456284761583E-04
DEBUG_STATS_RL:          Wvel (THERMODYNAMICS)  max=  2.95976465838980E-04
DEBUG_STATS_RL:          Wvel (THERMODYNAMICS) mean= -4.77244094189857E-07
DEBUG_STATS_RL:          Wvel (THERMODYNAMICS) S.D.=  1.00820231386045E-05
DEBUG_STATS_RL:         Theta (THERMODYNAMICS)  min=  1.61569878095804E+01
DEBUG_STATS_RL:         Theta (THERMODYNAMICS)  max=  2.11630348684433E+01
DEBUG_STATS_RL:         Theta (THERMODYNAMICS) mean=  1.99961266792571E+01
DEBUG_STATS_RL:         Theta (THERMODYNAMICS) S.D.=  5.87081147977196E-02
DEBUG_STATS_RL:          Salt (THERMODYNAMICS)  min=  3.02270281802143E+01
DEBUG_STATS_RL:          Salt (THERMODYNAMICS)  max=  3.51417531215312E+01
DEBUG_STATS_RL:          Salt (THERMODYNAMICS) mean=  3.49988089131165E+01
DEBUG_STATS_RL:          Salt (THERMODYNAMICS) S.D.=  5.33807907545336E-02
DEBUG_STATS_RL:         GtNm1 (THERMODYNAMICS)  min= -2.34657863833961E-05
DEBUG_STATS_RL:         GtNm1 (THERMODYNAMICS)  max=  2.75449355726863E-06
DEBUG_STATS_RL:         GtNm1 (THERMODYNAMICS) mean= -2.75370432028823E-09
DEBUG_STATS_RL:         GtNm1 (THERMODYNAMICS) S.D.=  1.77813413767102E-07
DEBUG_STATS_RL:         GsNm1 (THERMODYNAMICS)  min= -1.14559405051949E-05
DEBUG_STATS_RL:         GsNm1 (THERMODYNAMICS)  max=  2.70012540803780E-06
DEBUG_STATS_RL:         GsNm1 (THERMODYNAMICS) mean= -3.28307755270288E-09
DEBUG_STATS_RL:         GsNm1 (THERMODYNAMICS) S.D.=  1.44681687025537E-07
(PID.TID 0000.0001) DEBUG_MSG: LEAVING S/R THERMODYNAMICS
(PID.TID 0000.0001) // =======================================================
(PID.TID 0000.0001) // Begin MONITOR dynamic field statistics
(PID.TID 0000.0001) // =======================================================
(PID.TID 0000.0001) %MON time_tsnumber                =                    17
(PID.TID 0000.0001) %MON time_secondsf                =   1.5300000000000E+04
(PID.TID 0000.0001) %MON dynstat_eta_max              =   3.9182957139963E+00
(PID.TID 0000.0001) %MON dynstat_eta_min              =  -2.2890264037394E+00
(PID.TID 0000.0001) %MON dynstat_eta_mean             =   1.9561504844201E-02
(PID.TID 0000.0001) %MON dynstat_eta_sd               =   1.1692920940770E-01
(PID.TID 0000.0001) %MON dynstat_eta_del2             =   3.3042821186943E-03
(PID.TID 0000.0001) %MON dynstat_uvel_max             =   1.8739337737528E+00
(PID.TID 0000.0001) %MON dynstat_uvel_min             =  -7.4070038340989E-01
(PID.TID 0000.0001) %MON dynstat_uvel_mean            =   4.3651175172424E-04
(PID.TID 0000.0001) %MON dynstat_uvel_sd              =   8.4369820693175E-03
(PID.TID 0000.0001) %MON dynstat_uvel_del2            =   1.5225896509175E-04
(PID.TID 0000.0001) %MON dynstat_vvel_max             =   1.0289765218856E+00
(PID.TID 0000.0001) %MON dynstat_vvel_min             =  -1.1389611387367E+00
(PID.TID 0000.0001) %MON dynstat_vvel_mean            =   4.5744504737548E-06
(PID.TID 0000.0001) %MON dynstat_vvel_sd              =   7.5007597073274E-03
(PID.TID 0000.0001) %MON dynstat_vvel_del2            =   1.4904657755524E-04
(PID.TID 0000.0001) %MON dynstat_wvel_max             =   2.9597646583898E-04
(PID.TID 0000.0001) %MON dynstat_wvel_min             =  -5.3545628476158E-04
(PID.TID 0000.0001) %MON dynstat_wvel_mean            =  -3.0126659325827E-07
(PID.TID 0000.0001) %MON dynstat_wvel_sd              =   9.2705332394732E-06
(PID.TID 0000.0001) %MON dynstat_wvel_del2            =   8.1990537559352E-08
(PID.TID 0000.0001) %MON dynstat_theta_max            =   2.1163034868443E+01
(PID.TID 0000.0001) %MON dynstat_theta_min            =   1.6156987809580E+01
(PID.TID 0000.0001) %MON dynstat_theta_mean           =   1.9997775532680E+01
(PID.TID 0000.0001) %MON dynstat_theta_sd             =   2.0340275146188E-02
(PID.TID 0000.0001) %MON dynstat_theta_del2           =   3.8662377261625E-04
(PID.TID 0000.0001) %MON dynstat_salt_max             =   3.5141753121531E+01
(PID.TID 0000.0001) %MON dynstat_salt_min             =   3.0227028180214E+01
(PID.TID 0000.0001) %MON dynstat_salt_mean            =   3.4999819614692E+01
(PID.TID 0000.0001) %MON dynstat_salt_sd              =   1.6511533228395E-02
(PID.TID 0000.0001) %MON dynstat_salt_del2            =   5.7925688725127E-04
(PID.TID 0000.0001) %MON dynstat_sst_max              =   2.1163034868443E+01
(PID.TID 0000.0001) %MON dynstat_sst_min              =   1.6164088906019E+01
(PID.TID 0000.0001) %MON dynstat_sst_mean             =   2.0039982983420E+01
(PID.TID 0000.0001) %MON dynstat_sst_sd               =   1.6379877365118E-01
(PID.TID 0000.0001) %MON dynstat_sst_del2             =   3.8598801054585E-03
(PID.TID 0000.0001) %MON dynstat_sss_max              =   3.5141753121531E+01
(PID.TID 0000.0001) %MON dynstat_sss_min              =   3.0227028180214E+01
(PID.TID 0000.0001) %MON dynstat_sss_mean             =   3.4987125649176E+01
(PID.TID 0000.0001) %MON dynstat_sss_sd               =   1.9866083862602E-01
(PID.TID 0000.0001) %MON dynstat_sss_del2             =   7.8462282291960E-03
(PID.TID 0000.0001) %MON forcing_qnet_max             =   5.7499419713469E+03
(PID.TID 0000.0001) %MON forcing_qnet_min             =  -6.7644065446525E+03
(PID.TID 0000.0001) %MON forcing_qnet_mean            =  -1.4956718725332E+02
(PID.TID 0000.0001) %MON forcing_qnet_sd              =   7.1370271676853E+02
(PID.TID 0000.0001) %MON forcing_qnet_del2            =   1.2622360283796E+01
(PID.TID 0000.0001) %MON forcing_qsw_max              =   0.0000000000000E+00
(PID.TID 0000.0001) %MON forcing_qsw_min              =  -1.0586011068969E+02
(PID.TID 0000.0001) %MON forcing_qsw_mean             =  -2.1168160687120E+01
(PID.TID 0000.0001) %MON forcing_qsw_sd               =   2.9759469741539E+01
(PID.TID 0000.0001) %MON forcing_qsw_del2             =   2.5599775661640E-01
(PID.TID 0000.0001) %MON forcing_empmr_max            =   9.3996720388532E-03
(PID.TID 0000.0001) %MON forcing_empmr_min            =  -1.3509291410446E-01
(PID.TID 0000.0001) %MON forcing_empmr_mean           =  -5.4614490346056E-04
(PID.TID 0000.0001) %MON forcing_empmr_sd             =   5.9592501584971E-03
(PID.TID 0000.0001) %MON forcing_empmr_del2           =   2.3482153681335E-04
(PID.TID 0000.0001) %MON forcing_fu_max               =   9.3881729121524E-01
(PID.TID 0000.0001) %MON forcing_fu_min               =  -5.8950861044487E-01
(PID.TID 0000.0001) %MON forcing_fu_mean              =  -1.2206769664444E-03
(PID.TID 0000.0001) %MON forcing_fu_sd                =   1.0391199186181E-01
(PID.TID 0000.0001) %MON forcing_fu_del2              =   8.8551748515837E-04
(PID.TID 0000.0001) %MON forcing_fv_max               =   4.5744186241558E-01
(PID.TID 0000.0001) %MON forcing_fv_min               =  -5.6730384513101E-01
(PID.TID 0000.0001) %MON forcing_fv_mean              =  -4.3192094536769E-03
(PID.TID 0000.0001) %MON forcing_fv_sd                =   8.8106654037990E-02
(PID.TID 0000.0001) %MON forcing_fv_del2              =   7.8185450038546E-04
(PID.TID 0000.0001) %MON trAdv_CFL_u_max              =   6.2069911183751E-03
(PID.TID 0000.0001) %MON trAdv_CFL_v_max              =   6.6885423853284E-03
(PID.TID 0000.0001) %MON trAdv_CFL_w_max              =   8.6432284156456E-03
(PID.TID 0000.0001) %MON advcfl_uvel_max              =   6.2491318211084E-03
(PID.TID 0000.0001) %MON advcfl_vvel_max              =   3.4132038995421E-03
(PID.TID 0000.0001) %MON advcfl_wvel_max              =   9.3977679377017E-03
(PID.TID 0000.0001) %MON advcfl_W_hf_max              =   8.6432284156456E-03
(PID.TID 0000.0001) %MON pe_b_mean                    =   1.8723883453330E-05
(PID.TID 0000.0001) %MON ke_max                       =   1.0500210876183E+00
(PID.TID 0000.0001) %MON ke_mean                      =   5.8892464262166E-05
(PID.TID 0000.0001) %MON ke_vol                       =   1.3398093907220E+18
(PID.TID 0000.0001) %MON vort_r_min                   =  -9.1428179355477E-06
(PID.TID 0000.0001) %MON vort_r_max                   =   2.6911913846785E-06
(PID.TID 0000.0001) %MON vort_a_mean                  =  -2.0549865324846E-05
(PID.TID 0000.0001) %MON vort_a_sd                    =   7.5259264771571E-05
(PID.TID 0000.0001) %MON vort_p_mean                  =  -2.4783396698084E-05
(PID.TID 0000.0001) %MON vort_p_sd                    =   1.2810593370888E-04
(PID.TID 0000.0001) %MON surfExpan_theta_mean         =   9.4872815947379E-07
(PID.TID 0000.0001) %MON surfExpan_salt_mean          =   1.1862061967572E-06
(PID.TID 0000.0001) // =======================================================
(PID.TID 0000.0001) // End MONITOR dynamic field statistics
(PID.TID 0000.0001) // =======================================================
(PID.TID 0000.0001) DEBUG_MSG: LEAVING S/R FORWARD_STEP
(PID.TID 0000.0001) DEBUG_MSG: ENTERED S/R FORWARD_STEP
(PID.TID 0000.0001) DEBUG_MSG: CALLING S/R LOAD_FIELDS_DRIVER
(PID.TID 0000.0001) DEBUG_MSG: ENTERED S/R LOAD_FIELDS_DRIVER
(PID.TID 0000.0001) DEBUG_MSG: CALLING S/R EXTERNAL_FIELDS_LOAD
(PID.TID 0000.0001) DEBUG_MSG: LEAVING S/R LOAD_FIELDS_DRIVER
(PID.TID 0000.0001) DEBUG_MSG: CALLING S/R DO_ATMOSPHERIC_PHYS
(PID.TID 0000.0001) DEBUG_MSG: ENTERED S/R DO_ATMOSPHERIC_PHYS
(PID.TID 0000.0001) DEBUG_MSG: LEAVING S/R DO_ATMOSPHERIC_PHYS
(PID.TID 0000.0001) DEBUG_MSG: CALLING S/R DO_OCEANIC_PHYS
(PID.TID 0000.0001) DEBUG_MSG: ENTERED S/R DO_OCEANIC_PHYS
(PID.TID 0000.0001) DEBUG_MSG: CALLING S/R EXTERNAL_FORCING_SURF
(PID.TID 0000.0001) DEBUG_MSG: CALLING S/R FIND_RHO_2D (xNr)
(PID.TID 0000.0001) DEBUG_MSG:                  ENTERING UPWARD K LOOP (bi=   1, bj=   1)
(PID.TID 0000.0001) DEBUG_MSG: CALLING S/R GRAD_SIGMA
(PID.TID 0000.0001) DEBUG_MSG: CALLING S/R CALC_IVDC
(PID.TID 0000.0001) DEBUG_MSG: CALLING S/R GRAD_SIGMA
(PID.TID 0000.0001) DEBUG_MSG: CALLING S/R CALC_IVDC
(PID.TID 0000.0001) DEBUG_MSG: CALLING S/R GRAD_SIGMA
(PID.TID 0000.0001) DEBUG_MSG: CALLING S/R CALC_IVDC
(PID.TID 0000.0001) DEBUG_MSG: CALLING S/R GRAD_SIGMA
(PID.TID 0000.0001) DEBUG_MSG: CALLING S/R CALC_IVDC
(PID.TID 0000.0001) DEBUG_MSG: CALLING S/R GRAD_SIGMA
(PID.TID 0000.0001) DEBUG_MSG: CALLING S/R CALC_IVDC
(PID.TID 0000.0001) DEBUG_MSG: CALLING S/R GRAD_SIGMA
(PID.TID 0000.0001) DEBUG_MSG: CALLING S/R CALC_IVDC
(PID.TID 0000.0001) DEBUG_MSG: CALLING S/R GRAD_SIGMA
(PID.TID 0000.0001) DEBUG_MSG: CALLING S/R CALC_IVDC
(PID.TID 0000.0001) DEBUG_MSG: CALLING S/R GRAD_SIGMA
(PID.TID 0000.0001) DEBUG_MSG: CALLING S/R CALC_IVDC
(PID.TID 0000.0001) DEBUG_MSG: CALLING S/R GRAD_SIGMA
(PID.TID 0000.0001) DEBUG_MSG: CALLING S/R CALC_IVDC
(PID.TID 0000.0001) DEBUG_MSG: CALLING S/R GRAD_SIGMA
(PID.TID 0000.0001) DEBUG_MSG: CALLING S/R CALC_IVDC
(PID.TID 0000.0001) DEBUG_MSG: CALLING S/R GRAD_SIGMA
(PID.TID 0000.0001) DEBUG_MSG: CALLING S/R CALC_IVDC
(PID.TID 0000.0001) DEBUG_MSG: CALLING S/R GRAD_SIGMA
(PID.TID 0000.0001) DEBUG_MSG: CALLING S/R CALC_IVDC
(PID.TID 0000.0001) DEBUG_MSG: CALLING S/R GRAD_SIGMA
(PID.TID 0000.0001) DEBUG_MSG: CALLING S/R CALC_IVDC
(PID.TID 0000.0001) DEBUG_MSG: CALLING S/R GRAD_SIGMA
(PID.TID 0000.0001) DEBUG_MSG: CALLING S/R CALC_IVDC
(PID.TID 0000.0001) DEBUG_MSG: CALLING S/R GRAD_SIGMA
(PID.TID 0000.0001) DEBUG_MSG: CALLING S/R CALC_IVDC
(PID.TID 0000.0001) DEBUG_MSG: CALLING S/R GRAD_SIGMA
(PID.TID 0000.0001) DEBUG_MSG: CALLING S/R GMREDI_CALC_TENSOR
(PID.TID 0000.0001) DEBUG_MSG: LEAVING S/R DO_OCEANIC_PHYS
(PID.TID 0000.0001) DEBUG_MSG: CALLING S/R DYNAMICS
(PID.TID 0000.0001) DEBUG_MSG: ENTERED S/R DYNAMICS
DEBUG_STATS_RL:                EtaN (DYNAMICS)  min= -2.28902640373938E+00
DEBUG_STATS_RL:                EtaN (DYNAMICS)  max=  3.91829571399631E+00
DEBUG_STATS_RL:                EtaN (DYNAMICS) mean=  2.06061847056054E-02
DEBUG_STATS_RL:                EtaN (DYNAMICS) S.D.=  1.19055701741411E-01
DEBUG_STATS_RL:                Uvel (DYNAMICS)  min= -7.40700383409886E-01
DEBUG_STATS_RL:                Uvel (DYNAMICS)  max=  1.87393377375276E+00
DEBUG_STATS_RL:                Uvel (DYNAMICS) mean=  5.94735442841563E-04
DEBUG_STATS_RL:                Uvel (DYNAMICS) S.D.=  2.52950751645092E-02
DEBUG_STATS_RL:                Vvel (DYNAMICS)  min= -1.13896113873669E+00
DEBUG_STATS_RL:                Vvel (DYNAMICS)  max=  1.02897652188556E+00
DEBUG_STATS_RL:                Vvel (DYNAMICS) mean= -4.12201722049085E-04
DEBUG_STATS_RL:                Vvel (DYNAMICS) S.D.=  2.24949984316475E-02
DEBUG_STATS_RL:                Wvel (DYNAMICS)  min= -5.35456284761583E-04
DEBUG_STATS_RL:                Wvel (DYNAMICS)  max=  2.95976465838980E-04
DEBUG_STATS_RL:                Wvel (DYNAMICS) mean= -4.77244094189857E-07
DEBUG_STATS_RL:                Wvel (DYNAMICS) S.D.=  1.00820231386045E-05
DEBUG_STATS_RL:               Theta (DYNAMICS)  min=  1.61569878095804E+01
DEBUG_STATS_RL:               Theta (DYNAMICS)  max=  2.11630348684433E+01
DEBUG_STATS_RL:               Theta (DYNAMICS) mean=  1.99961266792571E+01
DEBUG_STATS_RL:               Theta (DYNAMICS) S.D.=  5.87081147977196E-02
DEBUG_STATS_RL:                Salt (DYNAMICS)  min=  3.02270281802143E+01
DEBUG_STATS_RL:                Salt (DYNAMICS)  max=  3.51417531215312E+01
DEBUG_STATS_RL:                Salt (DYNAMICS) mean=  3.49988089131165E+01
DEBUG_STATS_RL:                Salt (DYNAMICS) S.D.=  5.33807907545336E-02
DEBUG_STATS_RL:                  Gu (DYNAMICS)  min= -7.27772375230916E-01
DEBUG_STATS_RL:                  Gu (DYNAMICS)  max=  1.84545918224321E+00
DEBUG_STATS_RL:                  Gu (DYNAMICS) mean=  5.50979672798051E-04
DEBUG_STATS_RL:                  Gu (DYNAMICS) S.D.=  2.52979402478235E-02
DEBUG_STATS_RL:                  Gv (DYNAMICS)  min= -1.14684101446056E+00
DEBUG_STATS_RL:                  Gv (DYNAMICS)  max=  9.57611294177308E-01
DEBUG_STATS_RL:                  Gv (DYNAMICS) mean= -4.58820066596823E-04
DEBUG_STATS_RL:                  Gv (DYNAMICS) S.D.=  2.28802029769680E-02
DEBUG_STATS_RL:               GuNm1 (DYNAMICS)  min= -6.93828440209831E-05
DEBUG_STATS_RL:               GuNm1 (DYNAMICS)  max=  2.50014912607111E-05
DEBUG_STATS_RL:               GuNm1 (DYNAMICS) mean= -4.55730381813230E-08
DEBUG_STATS_RL:               GuNm1 (DYNAMICS) S.D.=  1.47389136961621E-06
DEBUG_STATS_RL:               GvNm1 (DYNAMICS)  min= -8.79728121956991E-05
DEBUG_STATS_RL:               GvNm1 (DYNAMICS)  max=  3.96557525527329E-05
DEBUG_STATS_RL:               GvNm1 (DYNAMICS) mean= -5.18520274624938E-08
DEBUG_STATS_RL:               GvNm1 (DYNAMICS) S.D.=  1.81218602152891E-06
DEBUG_STATS_RL:               GtNm1 (DYNAMICS)  min= -2.34657863833961E-05
DEBUG_STATS_RL:               GtNm1 (DYNAMICS)  max=  2.75449355726863E-06
DEBUG_STATS_RL:               GtNm1 (DYNAMICS) mean= -2.75370432028823E-09
DEBUG_STATS_RL:               GtNm1 (DYNAMICS) S.D.=  1.77813413767102E-07
DEBUG_STATS_RL:               GsNm1 (DYNAMICS)  min= -1.14559405051949E-05
DEBUG_STATS_RL:               GsNm1 (DYNAMICS)  max=  2.70012540803780E-06
DEBUG_STATS_RL:               GsNm1 (DYNAMICS) mean= -3.28307755270288E-09
DEBUG_STATS_RL:               GsNm1 (DYNAMICS) S.D.=  1.44681687025537E-07
(PID.TID 0000.0001) DEBUG_MSG: LEAVING S/R DYNAMICS
DEBUG_STATS_RL:    cg2d_b (SOLVE_FOR_PRESSURE)  min= -4.59682502178272E+05
DEBUG_STATS_RL:    cg2d_b (SOLVE_FOR_PRESSURE)  max=  2.63738849202153E+05
DEBUG_STATS_RL:    cg2d_b (SOLVE_FOR_PRESSURE) mean= -2.03605301708778E+03
DEBUG_STATS_RL:    cg2d_b (SOLVE_FOR_PRESSURE) S.D.=  1.26559644374450E+04
 cg2d: Sum(rhs),rhsMax =  -1.95773262912624E+01  8.80593734388581E+01
(PID.TID 0000.0001)  cg2d: iter=     1 ; resid.=  3.11516068623979E-02
(PID.TID 0000.0001)  cg2d: iter=     2 ; resid.=  4.44360287273105E-03
(PID.TID 0000.0001)  cg2d: iter=     3 ; resid.=  9.42033135518214E-04
(PID.TID 0000.0001)  cg2d: iter=     4 ; resid.=  2.45138193122684E-04
(PID.TID 0000.0001)  cg2d: iter=     5 ; resid.=  7.91900362749959E-05
(PID.TID 0000.0001)  cg2d: iter=     6 ; resid.=  2.25225974193623E-05
(PID.TID 0000.0001)  cg2d: iter=     7 ; resid.=  4.13074677186279E-06
(PID.TID 0000.0001)  cg2d: iter=     8 ; resid.=  1.01539458110910E-06
(PID.TID 0000.0001)  cg2d: iter=     9 ; resid.=  3.28814732189010E-07
(PID.TID 0000.0001)  cg2d: iter=    10 ; resid.=  9.01179167460425E-08
DEBUG_STATS_RL:    cg2d_x (SOLVE_FOR_PRESSURE)  min= -2.79039414010309E+01
DEBUG_STATS_RL:    cg2d_x (SOLVE_FOR_PRESSURE)  max=  3.94880761905732E+01
DEBUG_STATS_RL:    cg2d_x (SOLVE_FOR_PRESSURE) mean=  2.07491025361185E-01
DEBUG_STATS_RL:    cg2d_x (SOLVE_FOR_PRESSURE) S.D.=  1.21646613162874E+00
(PID.TID 0000.0001)      cg2d_init_res =   3.13230154840651E-01
(PID.TID 0000.0001)      cg2d_iters(min,last) =      -1      10
(PID.TID 0000.0001)      cg2d_last_res =   9.01179167460425E-08
(PID.TID 0000.0001) DEBUG_MSG: CALLING S/R UPDATE_ETAH
(PID.TID 0000.0001) DEBUG_MSG: ENTERED S/R CALC_R_STAR
(PID.TID 0000.0001) DEBUG_MSG: LEAVING S/R CALC_R_STAR
(PID.TID 0000.0001) DEBUG_MSG: CALLING S/R DO_STAGGER_FIELDS_EXCH.
(PID.TID 0000.0001) DEBUG_MSG: CALLING S/R THERMODYNAMICS
(PID.TID 0000.0001) DEBUG_MSG: ENTERED S/R THERMODYNAMICS
(PID.TID 0000.0001) DEBUG_MSG: CALLING S/R TEMP_INTEGRATE
(PID.TID 0000.0001) DEBUG_MSG: CALLING S/R SALT_INTEGRATE
DEBUG_STATS_RL:          Uvel (THERMODYNAMICS)  min= -7.08116028086235E-01
DEBUG_STATS_RL:          Uvel (THERMODYNAMICS)  max=  1.77030558811881E+00
DEBUG_STATS_RL:          Uvel (THERMODYNAMICS) mean=  5.74518549185142E-04
DEBUG_STATS_RL:          Uvel (THERMODYNAMICS) S.D.=  2.47917411328041E-02
DEBUG_STATS_RL:          Vvel (THERMODYNAMICS)  min= -9.90213240471697E-01
DEBUG_STATS_RL:          Vvel (THERMODYNAMICS)  max=  9.20532390240189E-01
DEBUG_STATS_RL:          Vvel (THERMODYNAMICS) mean= -4.36134838789692E-04
DEBUG_STATS_RL:          Vvel (THERMODYNAMICS) S.D.=  2.24373009826019E-02
DEBUG_STATS_RL:          Wvel (THERMODYNAMICS)  min= -5.02300891296807E-04
DEBUG_STATS_RL:          Wvel (THERMODYNAMICS)  max=  2.87539497831759E-04
DEBUG_STATS_RL:          Wvel (THERMODYNAMICS) mean= -4.94795022625285E-07
DEBUG_STATS_RL:          Wvel (THERMODYNAMICS) S.D.=  9.97171803651179E-06
DEBUG_STATS_RL:         Theta (THERMODYNAMICS)  min=  1.61396673180593E+01
DEBUG_STATS_RL:         Theta (THERMODYNAMICS)  max=  2.12236266737991E+01
DEBUG_STATS_RL:         Theta (THERMODYNAMICS) mean=  1.99963854012223E+01
DEBUG_STATS_RL:         Theta (THERMODYNAMICS) S.D.=  5.94562323625203E-02
DEBUG_STATS_RL:          Salt (THERMODYNAMICS)  min=  3.00112131932477E+01
DEBUG_STATS_RL:          Salt (THERMODYNAMICS)  max=  3.51433603692961E+01
DEBUG_STATS_RL:          Salt (THERMODYNAMICS) mean=  3.49987604386874E+01
DEBUG_STATS_RL:          Salt (THERMODYNAMICS) S.D.=  5.58078558572963E-02
DEBUG_STATS_RL:         GtNm1 (THERMODYNAMICS)  min= -2.11670344000820E-05
DEBUG_STATS_RL:         GtNm1 (THERMODYNAMICS)  max=  2.90068972637253E-06
DEBUG_STATS_RL:         GtNm1 (THERMODYNAMICS) mean= -2.30688154281680E-09
DEBUG_STATS_RL:         GtNm1 (THERMODYNAMICS) S.D.=  1.60096691357956E-07
DEBUG_STATS_RL:         GsNm1 (THERMODYNAMICS)  min= -1.18780556785824E-05
DEBUG_STATS_RL:         GsNm1 (THERMODYNAMICS)  max=  2.52309472672810E-06
DEBUG_STATS_RL:         GsNm1 (THERMODYNAMICS) mean= -3.39606812319438E-09
DEBUG_STATS_RL:         GsNm1 (THERMODYNAMICS) S.D.=  1.50362958744270E-07
(PID.TID 0000.0001) DEBUG_MSG: LEAVING S/R THERMODYNAMICS
(PID.TID 0000.0001) // =======================================================
(PID.TID 0000.0001) // Begin MONITOR dynamic field statistics
(PID.TID 0000.0001) // =======================================================
(PID.TID 0000.0001) %MON time_tsnumber                =                    18
(PID.TID 0000.0001) %MON time_secondsf                =   1.6200000000000E+04
(PID.TID 0000.0001) %MON dynstat_eta_max              =   4.0252881018987E+00
(PID.TID 0000.0001) %MON dynstat_eta_min              =  -2.8444384889255E+00
(PID.TID 0000.0001) %MON dynstat_eta_mean             =   2.0032269001324E-02
(PID.TID 0000.0001) %MON dynstat_eta_sd               =   1.2124358359941E-01
(PID.TID 0000.0001) %MON dynstat_eta_del2             =   3.4716866091033E-03
(PID.TID 0000.0001) %MON dynstat_uvel_max             =   1.7703055881188E+00
(PID.TID 0000.0001) %MON dynstat_uvel_min             =  -7.0811602808623E-01
(PID.TID 0000.0001) %MON dynstat_uvel_mean            =   4.4479075521434E-04
(PID.TID 0000.0001) %MON dynstat_uvel_sd              =   8.2648253086404E-03
(PID.TID 0000.0001) %MON dynstat_uvel_del2            =   1.4450951436384E-04
(PID.TID 0000.0001) %MON dynstat_vvel_max             =   9.2053239024019E-01
(PID.TID 0000.0001) %MON dynstat_vvel_min             =  -9.9021324047170E-01
(PID.TID 0000.0001) %MON dynstat_vvel_mean            =   1.3238624555366E-05
(PID.TID 0000.0001) %MON dynstat_vvel_sd              =   7.4739380028377E-03
(PID.TID 0000.0001) %MON dynstat_vvel_del2            =   1.3767808301932E-04
(PID.TID 0000.0001) %MON dynstat_wvel_max             =   2.8753949783176E-04
(PID.TID 0000.0001) %MON dynstat_wvel_min             =  -5.0230089129681E-04
(PID.TID 0000.0001) %MON dynstat_wvel_mean            =  -3.2475486263634E-07
(PID.TID 0000.0001) %MON dynstat_wvel_sd              =   9.2748306092759E-06
(PID.TID 0000.0001) %MON dynstat_wvel_del2            =   8.1183226504082E-08
(PID.TID 0000.0001) %MON dynstat_theta_max            =   2.1223626673799E+01
(PID.TID 0000.0001) %MON dynstat_theta_min            =   1.6139667318059E+01
(PID.TID 0000.0001) %MON dynstat_theta_mean           =   1.9997784033201E+01
(PID.TID 0000.0001) %MON dynstat_theta_sd             =   2.0512602226539E-02
(PID.TID 0000.0001) %MON dynstat_theta_del2           =   3.9011193354147E-04
(PID.TID 0000.0001) %MON dynstat_salt_max             =   3.5143360369296E+01
(PID.TID 0000.0001) %MON dynstat_salt_min             =   3.0011213193248E+01
(PID.TID 0000.0001) %MON dynstat_salt_mean            =   3.4999814149667E+01
(PID.TID 0000.0001) %MON dynstat_salt_sd              =   1.7258242461835E-02
(PID.TID 0000.0001) %MON dynstat_salt_del2            =   6.0551085945333E-04
(PID.TID 0000.0001) %MON dynstat_sst_max              =   2.1223626673799E+01
(PID.TID 0000.0001) %MON dynstat_sst_min              =   1.6146980229876E+01
(PID.TID 0000.0001) %MON dynstat_sst_mean             =   2.0043175487524E+01
(PID.TID 0000.0001) %MON dynstat_sst_sd               =   1.6676034707279E-01
(PID.TID 0000.0001) %MON dynstat_sst_del2             =   3.9165231424428E-03
(PID.TID 0000.0001) %MON dynstat_sss_max              =   3.5143360369296E+01
(PID.TID 0000.0001) %MON dynstat_sss_min              =   3.0011213193248E+01
(PID.TID 0000.0001) %MON dynstat_sss_mean             =   3.4986482334160E+01
(PID.TID 0000.0001) %MON dynstat_sss_sd               =   2.0773486332417E-01
(PID.TID 0000.0001) %MON dynstat_sss_del2             =   8.2024082570870E-03
(PID.TID 0000.0001) %MON forcing_qnet_max             =   5.6603429144219E+03
(PID.TID 0000.0001) %MON forcing_qnet_min             =  -6.6616330542019E+03
(PID.TID 0000.0001) %MON forcing_qnet_mean            =  -1.4188470729298E+02
(PID.TID 0000.0001) %MON forcing_qnet_sd              =   7.0535897735865E+02
(PID.TID 0000.0001) %MON forcing_qnet_del2            =   1.2397899908387E+01
(PID.TID 0000.0001) %MON forcing_qsw_max              =   0.0000000000000E+00
(PID.TID 0000.0001) %MON forcing_qsw_min              =  -1.0627366105717E+02
(PID.TID 0000.0001) %MON forcing_qsw_mean             =  -2.0911431786622E+01
(PID.TID 0000.0001) %MON forcing_qsw_sd               =   2.9487708530474E+01
(PID.TID 0000.0001) %MON forcing_qsw_del2             =   2.5833548096920E-01
(PID.TID 0000.0001) %MON forcing_empmr_max            =   9.3027930706739E-03
(PID.TID 0000.0001) %MON forcing_empmr_min            =  -1.3370004296303E-01
(PID.TID 0000.0001) %MON forcing_empmr_mean           =  -5.4137878069210E-04
(PID.TID 0000.0001) %MON forcing_empmr_sd             =   5.8986998632434E-03
(PID.TID 0000.0001) %MON forcing_empmr_del2           =   2.3241026595511E-04
(PID.TID 0000.0001) %MON forcing_fu_max               =   9.3839150853460E-01
(PID.TID 0000.0001) %MON forcing_fu_min               =  -5.9805573756417E-01
(PID.TID 0000.0001) %MON forcing_fu_mean              =  -1.0323707002591E-03
(PID.TID 0000.0001) %MON forcing_fu_sd                =   1.0322435239849E-01
(PID.TID 0000.0001) %MON forcing_fu_del2              =   8.7645491453086E-04
(PID.TID 0000.0001) %MON forcing_fv_max               =   4.5624437040464E-01
(PID.TID 0000.0001) %MON forcing_fv_min               =  -5.6495982018894E-01
(PID.TID 0000.0001) %MON forcing_fv_mean              =  -4.0936098291960E-03
(PID.TID 0000.0001) %MON forcing_fv_sd                =   8.7462716026700E-02
(PID.TID 0000.0001) %MON forcing_fv_del2              =   7.7387742936068E-04
(PID.TID 0000.0001) %MON trAdv_CFL_u_max              =   5.8793766444314E-03
(PID.TID 0000.0001) %MON trAdv_CFL_v_max              =   5.9292245962123E-03
(PID.TID 0000.0001) %MON trAdv_CFL_w_max              =   7.7889818938936E-03
(PID.TID 0000.0001) %MON advcfl_uvel_max              =   5.9035560054210E-03
(PID.TID 0000.0001) %MON advcfl_vvel_max              =   2.9674407482462E-03
(PID.TID 0000.0001) %MON advcfl_wvel_max              =   9.3008725539498E-03
(PID.TID 0000.0001) %MON advcfl_W_hf_max              =   7.7889818938936E-03
(PID.TID 0000.0001) %MON pe_b_mean                    =   2.0117613201671E-05
(PID.TID 0000.0001) %MON ke_max                       =   8.9602441335565E-01
(PID.TID 0000.0001) %MON ke_mean                      =   5.7388706046440E-05
(PID.TID 0000.0001) %MON ke_vol                       =   1.3398095635349E+18
(PID.TID 0000.0001) %MON vort_r_min                   =  -9.1296817100778E-06
(PID.TID 0000.0001) %MON vort_r_max                   =   2.7829185084123E-06
(PID.TID 0000.0001) %MON vort_a_mean                  =  -2.0549865324846E-05
(PID.TID 0000.0001) %MON vort_a_sd                    =   7.5259263835720E-05
(PID.TID 0000.0001) %MON vort_p_mean                  =  -2.4783393282202E-05
(PID.TID 0000.0001) %MON vort_p_sd                    =   1.2810589698897E-04
(PID.TID 0000.0001) %MON surfExpan_theta_mean         =   7.8743581025739E-07
(PID.TID 0000.0001) %MON surfExpan_salt_mean          =   1.2228443634192E-06
(PID.TID 0000.0001) // =======================================================
(PID.TID 0000.0001) // End MONITOR dynamic field statistics
(PID.TID 0000.0001) // =======================================================
(PID.TID 0000.0001) DEBUG_MSG: LEAVING S/R FORWARD_STEP
(PID.TID 0000.0001) DEBUG_MSG: ENTERED S/R FORWARD_STEP
(PID.TID 0000.0001) DEBUG_MSG: CALLING S/R LOAD_FIELDS_DRIVER
(PID.TID 0000.0001) DEBUG_MSG: ENTERED S/R LOAD_FIELDS_DRIVER
(PID.TID 0000.0001) DEBUG_MSG: CALLING S/R EXTERNAL_FIELDS_LOAD
(PID.TID 0000.0001) DEBUG_MSG: LEAVING S/R LOAD_FIELDS_DRIVER
(PID.TID 0000.0001) DEBUG_MSG: CALLING S/R DO_ATMOSPHERIC_PHYS
(PID.TID 0000.0001) DEBUG_MSG: ENTERED S/R DO_ATMOSPHERIC_PHYS
(PID.TID 0000.0001) DEBUG_MSG: LEAVING S/R DO_ATMOSPHERIC_PHYS
(PID.TID 0000.0001) DEBUG_MSG: CALLING S/R DO_OCEANIC_PHYS
(PID.TID 0000.0001) DEBUG_MSG: ENTERED S/R DO_OCEANIC_PHYS
(PID.TID 0000.0001) DEBUG_MSG: CALLING S/R EXTERNAL_FORCING_SURF
(PID.TID 0000.0001) DEBUG_MSG: CALLING S/R FIND_RHO_2D (xNr)
(PID.TID 0000.0001) DEBUG_MSG:                  ENTERING UPWARD K LOOP (bi=   1, bj=   1)
(PID.TID 0000.0001) DEBUG_MSG: CALLING S/R GRAD_SIGMA
(PID.TID 0000.0001) DEBUG_MSG: CALLING S/R CALC_IVDC
(PID.TID 0000.0001) DEBUG_MSG: CALLING S/R GRAD_SIGMA
(PID.TID 0000.0001) DEBUG_MSG: CALLING S/R CALC_IVDC
(PID.TID 0000.0001) DEBUG_MSG: CALLING S/R GRAD_SIGMA
(PID.TID 0000.0001) DEBUG_MSG: CALLING S/R CALC_IVDC
(PID.TID 0000.0001) DEBUG_MSG: CALLING S/R GRAD_SIGMA
(PID.TID 0000.0001) DEBUG_MSG: CALLING S/R CALC_IVDC
(PID.TID 0000.0001) DEBUG_MSG: CALLING S/R GRAD_SIGMA
(PID.TID 0000.0001) DEBUG_MSG: CALLING S/R CALC_IVDC
(PID.TID 0000.0001) DEBUG_MSG: CALLING S/R GRAD_SIGMA
(PID.TID 0000.0001) DEBUG_MSG: CALLING S/R CALC_IVDC
(PID.TID 0000.0001) DEBUG_MSG: CALLING S/R GRAD_SIGMA
(PID.TID 0000.0001) DEBUG_MSG: CALLING S/R CALC_IVDC
(PID.TID 0000.0001) DEBUG_MSG: CALLING S/R GRAD_SIGMA
(PID.TID 0000.0001) DEBUG_MSG: CALLING S/R CALC_IVDC
(PID.TID 0000.0001) DEBUG_MSG: CALLING S/R GRAD_SIGMA
(PID.TID 0000.0001) DEBUG_MSG: CALLING S/R CALC_IVDC
(PID.TID 0000.0001) DEBUG_MSG: CALLING S/R GRAD_SIGMA
(PID.TID 0000.0001) DEBUG_MSG: CALLING S/R CALC_IVDC
(PID.TID 0000.0001) DEBUG_MSG: CALLING S/R GRAD_SIGMA
(PID.TID 0000.0001) DEBUG_MSG: CALLING S/R CALC_IVDC
(PID.TID 0000.0001) DEBUG_MSG: CALLING S/R GRAD_SIGMA
(PID.TID 0000.0001) DEBUG_MSG: CALLING S/R CALC_IVDC
(PID.TID 0000.0001) DEBUG_MSG: CALLING S/R GRAD_SIGMA
(PID.TID 0000.0001) DEBUG_MSG: CALLING S/R CALC_IVDC
(PID.TID 0000.0001) DEBUG_MSG: CALLING S/R GRAD_SIGMA
(PID.TID 0000.0001) DEBUG_MSG: CALLING S/R CALC_IVDC
(PID.TID 0000.0001) DEBUG_MSG: CALLING S/R GRAD_SIGMA
(PID.TID 0000.0001) DEBUG_MSG: CALLING S/R CALC_IVDC
(PID.TID 0000.0001) DEBUG_MSG: CALLING S/R GRAD_SIGMA
(PID.TID 0000.0001) DEBUG_MSG: CALLING S/R GMREDI_CALC_TENSOR
(PID.TID 0000.0001) DEBUG_MSG: LEAVING S/R DO_OCEANIC_PHYS
(PID.TID 0000.0001) DEBUG_MSG: CALLING S/R DYNAMICS
(PID.TID 0000.0001) DEBUG_MSG: ENTERED S/R DYNAMICS
DEBUG_STATS_RL:                EtaN (DYNAMICS)  min= -2.84443848892549E+00
DEBUG_STATS_RL:                EtaN (DYNAMICS)  max=  4.02528810189874E+00
DEBUG_STATS_RL:                EtaN (DYNAMICS) mean=  2.11509716346150E-02
DEBUG_STATS_RL:                EtaN (DYNAMICS) S.D.=  1.24002663945953E-01
DEBUG_STATS_RL:                Uvel (DYNAMICS)  min= -7.08116028086235E-01
DEBUG_STATS_RL:                Uvel (DYNAMICS)  max=  1.77030558811881E+00
DEBUG_STATS_RL:                Uvel (DYNAMICS) mean=  5.74518549185142E-04
DEBUG_STATS_RL:                Uvel (DYNAMICS) S.D.=  2.47917411328041E-02
DEBUG_STATS_RL:                Vvel (DYNAMICS)  min= -9.90213240471697E-01
DEBUG_STATS_RL:                Vvel (DYNAMICS)  max=  9.20532390240189E-01
DEBUG_STATS_RL:                Vvel (DYNAMICS) mean= -4.36134838789692E-04
DEBUG_STATS_RL:                Vvel (DYNAMICS) S.D.=  2.24373009826019E-02
DEBUG_STATS_RL:                Wvel (DYNAMICS)  min= -5.02300891296807E-04
DEBUG_STATS_RL:                Wvel (DYNAMICS)  max=  2.87539497831759E-04
DEBUG_STATS_RL:                Wvel (DYNAMICS) mean= -4.94795022625285E-07
DEBUG_STATS_RL:                Wvel (DYNAMICS) S.D.=  9.97171803651179E-06
DEBUG_STATS_RL:               Theta (DYNAMICS)  min=  1.61396673180593E+01
DEBUG_STATS_RL:               Theta (DYNAMICS)  max=  2.12236266737991E+01
DEBUG_STATS_RL:               Theta (DYNAMICS) mean=  1.99963854012223E+01
DEBUG_STATS_RL:               Theta (DYNAMICS) S.D.=  5.94562323625203E-02
DEBUG_STATS_RL:                Salt (DYNAMICS)  min=  3.00112131932477E+01
DEBUG_STATS_RL:                Salt (DYNAMICS)  max=  3.51433603692961E+01
DEBUG_STATS_RL:                Salt (DYNAMICS) mean=  3.49987604386874E+01
DEBUG_STATS_RL:                Salt (DYNAMICS) S.D.=  5.58078558572963E-02
DEBUG_STATS_RL:                  Gu (DYNAMICS)  min= -6.96274309274680E-01
DEBUG_STATS_RL:                  Gu (DYNAMICS)  max=  1.73447127939741E+00
DEBUG_STATS_RL:                  Gu (DYNAMICS) mean=  5.26428533773463E-04
DEBUG_STATS_RL:                  Gu (DYNAMICS) S.D.=  2.47624784912463E-02
DEBUG_STATS_RL:                  Gv (DYNAMICS)  min= -1.00154912483107E+00
DEBUG_STATS_RL:                  Gv (DYNAMICS)  max=  8.53419371755231E-01
DEBUG_STATS_RL:                  Gv (DYNAMICS) mean= -4.83779424870456E-04
DEBUG_STATS_RL:                  Gv (DYNAMICS) S.D.=  2.28832738399271E-02
DEBUG_STATS_RL:               GuNm1 (DYNAMICS)  min= -6.96886334647216E-05
DEBUG_STATS_RL:               GuNm1 (DYNAMICS)  max=  2.55481687565384E-05
DEBUG_STATS_RL:               GuNm1 (DYNAMICS) mean= -5.07633310916532E-08
DEBUG_STATS_RL:               GuNm1 (DYNAMICS) S.D.=  1.48396046688494E-06
DEBUG_STATS_RL:               GvNm1 (DYNAMICS)  min= -8.39125781285090E-05
DEBUG_STATS_RL:               GvNm1 (DYNAMICS)  max=  3.95126078074303E-05
DEBUG_STATS_RL:               GvNm1 (DYNAMICS) mean= -5.28793983515489E-08
DEBUG_STATS_RL:               GvNm1 (DYNAMICS) S.D.=  1.75741066366245E-06
DEBUG_STATS_RL:               GtNm1 (DYNAMICS)  min= -2.11670344000820E-05
DEBUG_STATS_RL:               GtNm1 (DYNAMICS)  max=  2.90068972637253E-06
DEBUG_STATS_RL:               GtNm1 (DYNAMICS) mean= -2.30688154281680E-09
DEBUG_STATS_RL:               GtNm1 (DYNAMICS) S.D.=  1.60096691357956E-07
DEBUG_STATS_RL:               GsNm1 (DYNAMICS)  min= -1.18780556785824E-05
DEBUG_STATS_RL:               GsNm1 (DYNAMICS)  max=  2.52309472672810E-06
DEBUG_STATS_RL:               GsNm1 (DYNAMICS) mean= -3.39606812319438E-09
DEBUG_STATS_RL:               GsNm1 (DYNAMICS) S.D.=  1.50362958744270E-07
(PID.TID 0000.0001) DEBUG_MSG: LEAVING S/R DYNAMICS
DEBUG_STATS_RL:    cg2d_b (SOLVE_FOR_PRESSURE)  min= -4.67110517583199E+05
DEBUG_STATS_RL:    cg2d_b (SOLVE_FOR_PRESSURE)  max=  3.08225344169042E+05
DEBUG_STATS_RL:    cg2d_b (SOLVE_FOR_PRESSURE) mean= -2.08361343446817E+03
DEBUG_STATS_RL:    cg2d_b (SOLVE_FOR_PRESSURE) S.D.=  1.30797784744004E+04
 cg2d: Sum(rhs),rhsMax =  -1.97160437063140E+01  8.94823259753424E+01
(PID.TID 0000.0001)  cg2d: iter=     1 ; resid.=  3.00746594046499E-02
(PID.TID 0000.0001)  cg2d: iter=     2 ; resid.=  4.43933127713982E-03
(PID.TID 0000.0001)  cg2d: iter=     3 ; resid.=  9.67040121343997E-04
(PID.TID 0000.0001)  cg2d: iter=     4 ; resid.=  2.41729782343304E-04
(PID.TID 0000.0001)  cg2d: iter=     5 ; resid.=  8.13729623025498E-05
(PID.TID 0000.0001)  cg2d: iter=     6 ; resid.=  2.20704372504013E-05
(PID.TID 0000.0001)  cg2d: iter=     7 ; resid.=  4.03791030500884E-06
(PID.TID 0000.0001)  cg2d: iter=     8 ; resid.=  1.01852120244028E-06
(PID.TID 0000.0001)  cg2d: iter=     9 ; resid.=  3.10916029406326E-07
(PID.TID 0000.0001)  cg2d: iter=    10 ; resid.=  8.59772753280192E-08
DEBUG_STATS_RL:    cg2d_x (SOLVE_FOR_PRESSURE)  min= -3.26216954427686E+01
DEBUG_STATS_RL:    cg2d_x (SOLVE_FOR_PRESSURE)  max=  4.01134958326468E+01
DEBUG_STATS_RL:    cg2d_x (SOLVE_FOR_PRESSURE) mean=  2.12792131008751E-01
DEBUG_STATS_RL:    cg2d_x (SOLVE_FOR_PRESSURE) S.D.=  1.26424658695044E+00
(PID.TID 0000.0001)      cg2d_init_res =   2.87466350382045E-01
(PID.TID 0000.0001)      cg2d_iters(min,last) =      -1      10
(PID.TID 0000.0001)      cg2d_last_res =   8.59772753280192E-08
(PID.TID 0000.0001) DEBUG_MSG: CALLING S/R UPDATE_ETAH
(PID.TID 0000.0001) DEBUG_MSG: ENTERED S/R CALC_R_STAR
(PID.TID 0000.0001) DEBUG_MSG: LEAVING S/R CALC_R_STAR
(PID.TID 0000.0001) DEBUG_MSG: CALLING S/R DO_STAGGER_FIELDS_EXCH.
(PID.TID 0000.0001) DEBUG_MSG: CALLING S/R THERMODYNAMICS
(PID.TID 0000.0001) DEBUG_MSG: ENTERED S/R THERMODYNAMICS
(PID.TID 0000.0001) DEBUG_MSG: CALLING S/R TEMP_INTEGRATE
(PID.TID 0000.0001) DEBUG_MSG: CALLING S/R SALT_INTEGRATE
DEBUG_STATS_RL:          Uvel (THERMODYNAMICS)  min= -6.69846135408053E-01
DEBUG_STATS_RL:          Uvel (THERMODYNAMICS)  max=  1.64772191556705E+00
DEBUG_STATS_RL:          Uvel (THERMODYNAMICS) mean=  5.47711768995129E-04
DEBUG_STATS_RL:          Uvel (THERMODYNAMICS) S.D.=  2.42294224341977E-02
DEBUG_STATS_RL:          Vvel (THERMODYNAMICS)  min= -8.31174770871298E-01
DEBUG_STATS_RL:          Vvel (THERMODYNAMICS)  max=  8.04547059218304E-01
DEBUG_STATS_RL:          Vvel (THERMODYNAMICS) mean= -4.63286189214561E-04
DEBUG_STATS_RL:          Vvel (THERMODYNAMICS) S.D.=  2.24832000606550E-02
DEBUG_STATS_RL:          Wvel (THERMODYNAMICS)  min= -4.62859561283039E-04
DEBUG_STATS_RL:          Wvel (THERMODYNAMICS)  max=  2.65387844624625E-04
DEBUG_STATS_RL:          Wvel (THERMODYNAMICS) mean= -5.11440392990273E-07
DEBUG_STATS_RL:          Wvel (THERMODYNAMICS) S.D.=  9.81484063573070E-06
DEBUG_STATS_RL:         Theta (THERMODYNAMICS)  min=  1.61245369689614E+01
DEBUG_STATS_RL:         Theta (THERMODYNAMICS)  max=  2.12834420528866E+01
DEBUG_STATS_RL:         Theta (THERMODYNAMICS) mean=  1.99966345124694E+01
DEBUG_STATS_RL:         Theta (THERMODYNAMICS) S.D.=  6.02119115661174E-02
DEBUG_STATS_RL:          Salt (THERMODYNAMICS)  min=  2.98012539474399E+01
DEBUG_STATS_RL:          Salt (THERMODYNAMICS)  max=  3.51447986909652E+01
DEBUG_STATS_RL:          Salt (THERMODYNAMICS) mean=  3.49987131234426E+01
DEBUG_STATS_RL:          Salt (THERMODYNAMICS) S.D.=  5.81756649832643E-02
DEBUG_STATS_RL:         GtNm1 (THERMODYNAMICS)  min= -1.87071390095650E-05
DEBUG_STATS_RL:         GtNm1 (THERMODYNAMICS)  max=  3.03931996297964E-06
DEBUG_STATS_RL:         GtNm1 (THERMODYNAMICS) mean= -1.84271243722436E-09
DEBUG_STATS_RL:         GtNm1 (THERMODYNAMICS) S.D.=  1.41831781566213E-07
DEBUG_STATS_RL:         GsNm1 (THERMODYNAMICS)  min= -1.22714524292808E-05
DEBUG_STATS_RL:         GsNm1 (THERMODYNAMICS)  max=  2.80488639904929E-06
DEBUG_STATS_RL:         GsNm1 (THERMODYNAMICS) mean= -3.49791671810766E-09
DEBUG_STATS_RL:         GsNm1 (THERMODYNAMICS) S.D.=  1.55720522841164E-07
(PID.TID 0000.0001) DEBUG_MSG: LEAVING S/R THERMODYNAMICS
(PID.TID 0000.0001) // =======================================================
(PID.TID 0000.0001) // Begin MONITOR dynamic field statistics
(PID.TID 0000.0001) // =======================================================
(PID.TID 0000.0001) %MON time_tsnumber                =                    19
(PID.TID 0000.0001) %MON time_secondsf                =   1.7100000000000E+04
(PID.TID 0000.0001) %MON dynstat_eta_max              =   4.0890413764328E+00
(PID.TID 0000.0001) %MON dynstat_eta_min              =  -3.3253512360264E+00
(PID.TID 0000.0001) %MON dynstat_eta_mean             =   2.0500205281364E-02
(PID.TID 0000.0001) %MON dynstat_eta_sd               =   1.2573632364978E-01
(PID.TID 0000.0001) %MON dynstat_eta_del2             =   3.6158521623606E-03
(PID.TID 0000.0001) %MON dynstat_uvel_max             =   1.6477219155671E+00
(PID.TID 0000.0001) %MON dynstat_uvel_min             =  -6.6984613540805E-01
(PID.TID 0000.0001) %MON dynstat_uvel_mean            =   4.4875951336864E-04
(PID.TID 0000.0001) %MON dynstat_uvel_sd              =   8.0740788065119E-03
(PID.TID 0000.0001) %MON dynstat_uvel_del2            =   1.3638162172082E-04
(PID.TID 0000.0001) %MON dynstat_vvel_max             =   8.0454705921830E-01
(PID.TID 0000.0001) %MON dynstat_vvel_min             =  -8.3117477087130E-01
(PID.TID 0000.0001) %MON dynstat_vvel_mean            =   1.9662379797086E-05
(PID.TID 0000.0001) %MON dynstat_vvel_sd              =   7.4679804241436E-03
(PID.TID 0000.0001) %MON dynstat_vvel_del2            =   1.2804171999677E-04
(PID.TID 0000.0001) %MON dynstat_wvel_max             =   2.6538784462462E-04
(PID.TID 0000.0001) %MON dynstat_wvel_min             =  -4.6285956128304E-04
(PID.TID 0000.0001) %MON dynstat_wvel_mean            =  -3.4744749802766E-07
(PID.TID 0000.0001) %MON dynstat_wvel_sd              =   9.1951816943770E-06
(PID.TID 0000.0001) %MON dynstat_wvel_del2            =   8.0027139628742E-08
(PID.TID 0000.0001) %MON dynstat_theta_max            =   2.1283442052887E+01
(PID.TID 0000.0001) %MON dynstat_theta_min            =   1.6124536968961E+01
(PID.TID 0000.0001) %MON dynstat_theta_mean           =   1.9997792233096E+01
(PID.TID 0000.0001) %MON dynstat_theta_sd             =   2.0693763073923E-02
(PID.TID 0000.0001) %MON dynstat_theta_del2           =   3.9350687579365E-04
(PID.TID 0000.0001) %MON dynstat_salt_max             =   3.5144798690965E+01
(PID.TID 0000.0001) %MON dynstat_salt_min             =   2.9801253947440E+01
(PID.TID 0000.0001) %MON dynstat_salt_mean            =   3.4999808780377E+01
(PID.TID 0000.0001) %MON dynstat_salt_sd              =   1.7986764044404E-02
(PID.TID 0000.0001) %MON dynstat_salt_del2            =   6.3106946846396E-04
(PID.TID 0000.0001) %MON dynstat_sst_max              =   2.1283442052887E+01
(PID.TID 0000.0001) %MON dynstat_sst_min              =   1.6131628594016E+01
(PID.TID 0000.0001) %MON dynstat_sst_mean             =   2.0046282001130E+01
(PID.TID 0000.0001) %MON dynstat_sst_sd               =   1.6971684985337E-01
(PID.TID 0000.0001) %MON dynstat_sst_del2             =   3.9714798489910E-03
(PID.TID 0000.0001) %MON dynstat_sss_max              =   3.5144798690965E+01
(PID.TID 0000.0001) %MON dynstat_sss_min              =   2.9801253947440E+01
(PID.TID 0000.0001) %MON dynstat_sss_mean             =   3.4985851143984E+01
(PID.TID 0000.0001) %MON dynstat_sss_sd               =   2.1658334974414E-01
(PID.TID 0000.0001) %MON dynstat_sss_del2             =   8.5490489967461E-03
(PID.TID 0000.0001) %MON forcing_qnet_max             =   5.5689048877308E+03
(PID.TID 0000.0001) %MON forcing_qnet_min             =  -6.5602355723236E+03
(PID.TID 0000.0001) %MON forcing_qnet_mean            =  -1.3673229507408E+02
(PID.TID 0000.0001) %MON forcing_qnet_sd              =   6.9690463251176E+02
(PID.TID 0000.0001) %MON forcing_qnet_del2            =   1.2356781890940E+01
(PID.TID 0000.0001) %MON forcing_qsw_max              =   0.0000000000000E+00
(PID.TID 0000.0001) %MON forcing_qsw_min              =  -1.0625855446273E+02
(PID.TID 0000.0001) %MON forcing_qsw_mean             =  -2.0603374626859E+01
(PID.TID 0000.0001) %MON forcing_qsw_sd               =   2.9160874788886E+01
(PID.TID 0000.0001) %MON forcing_qsw_del2             =   2.6021084434371E-01
(PID.TID 0000.0001) %MON forcing_empmr_max            =   9.2068491503596E-03
(PID.TID 0000.0001) %MON forcing_empmr_min            =  -1.3232225179672E-01
(PID.TID 0000.0001) %MON forcing_empmr_mean           =  -5.3812672204544E-04
(PID.TID 0000.0001) %MON forcing_empmr_sd             =   5.8388159195118E-03
(PID.TID 0000.0001) %MON forcing_empmr_del2           =   2.3003151327299E-04
(PID.TID 0000.0001) %MON forcing_fu_max               =   9.2282504206483E-01
(PID.TID 0000.0001) %MON forcing_fu_min               =  -6.0497974104225E-01
(PID.TID 0000.0001) %MON forcing_fu_mean              =  -8.4689369944957E-04
(PID.TID 0000.0001) %MON forcing_fu_sd                =   1.0244663489465E-01
(PID.TID 0000.0001) %MON forcing_fu_del2              =   8.6512006244676E-04
(PID.TID 0000.0001) %MON forcing_fv_max               =   4.6241733797192E-01
(PID.TID 0000.0001) %MON forcing_fv_min               =  -5.5908912489744E-01
(PID.TID 0000.0001) %MON forcing_fv_mean              =  -3.9184961681865E-03
(PID.TID 0000.0001) %MON forcing_fv_sd                =   8.6835968764768E-02
(PID.TID 0000.0001) %MON forcing_fv_del2              =   7.6574173799717E-04
(PID.TID 0000.0001) %MON trAdv_CFL_u_max              =   5.4863927491608E-03
(PID.TID 0000.0001) %MON trAdv_CFL_v_max              =   5.0943128733967E-03
(PID.TID 0000.0001) %MON trAdv_CFL_w_max              =   6.9344443582878E-03
(PID.TID 0000.0001) %MON advcfl_uvel_max              =   5.4947680644483E-03
(PID.TID 0000.0001) %MON advcfl_vvel_max              =   2.6417303008208E-03
(PID.TID 0000.0001) %MON advcfl_wvel_max              =   9.2050262119459E-03
(PID.TID 0000.0001) %MON advcfl_W_hf_max              =   6.9344443582878E-03
(PID.TID 0000.0001) %MON pe_b_mean                    =   2.1621083744653E-05
(PID.TID 0000.0001) %MON ke_max                       =   7.8934320765302E-01
(PID.TID 0000.0001) %MON ke_mean                      =   5.5917420605963E-05
(PID.TID 0000.0001) %MON ke_vol                       =   1.3398097348398E+18
(PID.TID 0000.0001) %MON vort_r_min                   =  -8.9902222785659E-06
(PID.TID 0000.0001) %MON vort_r_max                   =   2.8553238580135E-06
(PID.TID 0000.0001) %MON vort_a_mean                  =  -2.0549865324846E-05
(PID.TID 0000.0001) %MON vort_a_sd                    =   7.5259262424913E-05
(PID.TID 0000.0001) %MON vort_p_mean                  =  -2.4783389912833E-05
(PID.TID 0000.0001) %MON vort_p_sd                    =   1.2810585964968E-04
(PID.TID 0000.0001) %MON surfExpan_theta_mean         =   6.2202983896090E-07
(PID.TID 0000.0001) %MON surfExpan_salt_mean          =   1.2565203598064E-06
(PID.TID 0000.0001) // =======================================================
(PID.TID 0000.0001) // End MONITOR dynamic field statistics
(PID.TID 0000.0001) // =======================================================
 Computing Diagnostic #     81  oceTAUX      Counter:       1   Parms: UU      U1      
           Vector  Mate for  oceTAUX      Diagnostic #     82  oceTAUY  exists 
(PID.TID 0000.0001)  MDS_WRITE_FIELD: it,rec,kS,kL,kH=      18    -1  32   1   1 file=oceTAUX.0000000018
 Computing Diagnostic #     82  oceTAUY      Counter:       1   Parms: VV      U1      
           Vector  Mate for  oceTAUY      Diagnostic #     81  oceTAUX  exists 
(PID.TID 0000.0001)  MDS_WRITE_FIELD: it,rec,kS,kL,kH=      18    -1  32   1   1 file=oceTAUY.0000000018
 Computing Diagnostic #     85  oceFWflx     Counter:       1   Parms: SM      U1      
(PID.TID 0000.0001)  MDS_WRITE_FIELD: it,rec,kS,kL,kH=      18    -1  32   1   1 file=oceFWflx.0000000018
 Computing Diagnostic #     86  oceSflux     Counter:       1   Parms: SM      U1      
(PID.TID 0000.0001)  MDS_WRITE_FIELD: it,rec,kS,kL,kH=      18    -1  32   1   1 file=oceSflux.0000000018
 Computing Diagnostic #     87  oceQnet      Counter:       1   Parms: SM      U1      
(PID.TID 0000.0001)  MDS_WRITE_FIELD: it,rec,kS,kL,kH=      18    -1  32   1   1 file=oceQnet.0000000018
 Computing Diagnostic #     88  oceQsw       Counter:       1   Parms: SM      U1      
(PID.TID 0000.0001)  MDS_WRITE_FIELD: it,rec,kS,kL,kH=      18    -1  32   1   1 file=oceQsw.0000000018
 Computing Diagnostic #     27  SALT         Counter:       1   Parms: SMR     MR      
(PID.TID 0000.0001)  MDS_WRITE_FIELD: it,rec,kS,kL,kH=      18    -1  32   1   1 file=SSS.0000000018
 Computing Diagnostic #     26  THETA        Counter:       1   Parms: SMR     MR      
(PID.TID 0000.0001)  MDS_WRITE_FIELD: it,rec,kS,kL,kH=      18    -1  32   1   1 file=SST.0000000018
 Computing Diagnostic #     45  UVELMASS     Counter:       1   Parms: UUr     MR      
           Vector  Mate for  UVELMASS     Diagnostic #     46  VVELMASS exists 
(PID.TID 0000.0001)  MDS_WRITE_FIELD: it,rec,kS,kL,kH=      18    -1  32   1   1 file=UVEL1.0000000018
 Computing Diagnostic #     46  VVELMASS     Counter:       1   Parms: VVr     MR      
           Vector  Mate for  VVELMASS     Diagnostic #     45  UVELMASS exists 
(PID.TID 0000.0001)  MDS_WRITE_FIELD: it,rec,kS,kL,kH=      18    -1  32   1   1 file=VVEL1.0000000018
 Computing Diagnostic #     83  atmPload     Counter:       1   Parms: SM      U1      
(PID.TID 0000.0001)  MDS_WRITE_FIELD: it,rec,kS,kL,kH=      18    -1  32   1   1 file=atmPload.0000000018
(PID.TID 0000.0001)  write diagnostics summary to file: diagnostics_status.0000000019.txt
(PID.TID 0000.0001) DEBUG_MSG: LEAVING S/R FORWARD_STEP
(PID.TID 0000.0001) DEBUG_MSG: ENTERED S/R FORWARD_STEP
(PID.TID 0000.0001) DEBUG_MSG: CALLING S/R LOAD_FIELDS_DRIVER
(PID.TID 0000.0001) DEBUG_MSG: ENTERED S/R LOAD_FIELDS_DRIVER
(PID.TID 0000.0001) DEBUG_MSG: CALLING S/R EXTERNAL_FIELDS_LOAD
(PID.TID 0000.0001) DEBUG_MSG: LEAVING S/R LOAD_FIELDS_DRIVER
(PID.TID 0000.0001) DEBUG_MSG: CALLING S/R DO_ATMOSPHERIC_PHYS
(PID.TID 0000.0001) DEBUG_MSG: ENTERED S/R DO_ATMOSPHERIC_PHYS
(PID.TID 0000.0001) DEBUG_MSG: LEAVING S/R DO_ATMOSPHERIC_PHYS
(PID.TID 0000.0001) DEBUG_MSG: CALLING S/R DO_OCEANIC_PHYS
(PID.TID 0000.0001) DEBUG_MSG: ENTERED S/R DO_OCEANIC_PHYS
(PID.TID 0000.0001) DEBUG_MSG: CALLING S/R EXTERNAL_FORCING_SURF
(PID.TID 0000.0001) DEBUG_MSG: CALLING S/R FIND_RHO_2D (xNr)
(PID.TID 0000.0001) DEBUG_MSG:                  ENTERING UPWARD K LOOP (bi=   1, bj=   1)
(PID.TID 0000.0001) DEBUG_MSG: CALLING S/R GRAD_SIGMA
(PID.TID 0000.0001) DEBUG_MSG: CALLING S/R CALC_IVDC
(PID.TID 0000.0001) DEBUG_MSG: CALLING S/R GRAD_SIGMA
(PID.TID 0000.0001) DEBUG_MSG: CALLING S/R CALC_IVDC
(PID.TID 0000.0001) DEBUG_MSG: CALLING S/R GRAD_SIGMA
(PID.TID 0000.0001) DEBUG_MSG: CALLING S/R CALC_IVDC
(PID.TID 0000.0001) DEBUG_MSG: CALLING S/R GRAD_SIGMA
(PID.TID 0000.0001) DEBUG_MSG: CALLING S/R CALC_IVDC
(PID.TID 0000.0001) DEBUG_MSG: CALLING S/R GRAD_SIGMA
(PID.TID 0000.0001) DEBUG_MSG: CALLING S/R CALC_IVDC
(PID.TID 0000.0001) DEBUG_MSG: CALLING S/R GRAD_SIGMA
(PID.TID 0000.0001) DEBUG_MSG: CALLING S/R CALC_IVDC
(PID.TID 0000.0001) DEBUG_MSG: CALLING S/R GRAD_SIGMA
(PID.TID 0000.0001) DEBUG_MSG: CALLING S/R CALC_IVDC
(PID.TID 0000.0001) DEBUG_MSG: CALLING S/R GRAD_SIGMA
(PID.TID 0000.0001) DEBUG_MSG: CALLING S/R CALC_IVDC
(PID.TID 0000.0001) DEBUG_MSG: CALLING S/R GRAD_SIGMA
(PID.TID 0000.0001) DEBUG_MSG: CALLING S/R CALC_IVDC
(PID.TID 0000.0001) DEBUG_MSG: CALLING S/R GRAD_SIGMA
(PID.TID 0000.0001) DEBUG_MSG: CALLING S/R CALC_IVDC
(PID.TID 0000.0001) DEBUG_MSG: CALLING S/R GRAD_SIGMA
(PID.TID 0000.0001) DEBUG_MSG: CALLING S/R CALC_IVDC
(PID.TID 0000.0001) DEBUG_MSG: CALLING S/R GRAD_SIGMA
(PID.TID 0000.0001) DEBUG_MSG: CALLING S/R CALC_IVDC
(PID.TID 0000.0001) DEBUG_MSG: CALLING S/R GRAD_SIGMA
(PID.TID 0000.0001) DEBUG_MSG: CALLING S/R CALC_IVDC
(PID.TID 0000.0001) DEBUG_MSG: CALLING S/R GRAD_SIGMA
(PID.TID 0000.0001) DEBUG_MSG: CALLING S/R CALC_IVDC
(PID.TID 0000.0001) DEBUG_MSG: CALLING S/R GRAD_SIGMA
(PID.TID 0000.0001) DEBUG_MSG: CALLING S/R CALC_IVDC
(PID.TID 0000.0001) DEBUG_MSG: CALLING S/R GRAD_SIGMA
(PID.TID 0000.0001) DEBUG_MSG: CALLING S/R GMREDI_CALC_TENSOR
(PID.TID 0000.0001) DEBUG_MSG: LEAVING S/R DO_OCEANIC_PHYS
(PID.TID 0000.0001) DEBUG_MSG: CALLING S/R DYNAMICS
(PID.TID 0000.0001) DEBUG_MSG: ENTERED S/R DYNAMICS
DEBUG_STATS_RL:                EtaN (DYNAMICS)  min= -3.32535123602638E+00
DEBUG_STATS_RL:                EtaN (DYNAMICS)  max=  4.08904137643283E+00
DEBUG_STATS_RL:                EtaN (DYNAMICS) mean=  2.16913492690247E-02
DEBUG_STATS_RL:                EtaN (DYNAMICS) S.D.=  1.28873250639081E-01
DEBUG_STATS_RL:                Uvel (DYNAMICS)  min= -6.69846135408053E-01
DEBUG_STATS_RL:                Uvel (DYNAMICS)  max=  1.64772191556705E+00
DEBUG_STATS_RL:                Uvel (DYNAMICS) mean=  5.47711768995129E-04
DEBUG_STATS_RL:                Uvel (DYNAMICS) S.D.=  2.42294224341977E-02
DEBUG_STATS_RL:                Vvel (DYNAMICS)  min= -8.31174770871298E-01
DEBUG_STATS_RL:                Vvel (DYNAMICS)  max=  8.04547059218304E-01
DEBUG_STATS_RL:                Vvel (DYNAMICS) mean= -4.63286189214561E-04
DEBUG_STATS_RL:                Vvel (DYNAMICS) S.D.=  2.24832000606550E-02
DEBUG_STATS_RL:                Wvel (DYNAMICS)  min= -4.62859561283039E-04
DEBUG_STATS_RL:                Wvel (DYNAMICS)  max=  2.65387844624625E-04
DEBUG_STATS_RL:                Wvel (DYNAMICS) mean= -5.11440392990273E-07
DEBUG_STATS_RL:                Wvel (DYNAMICS) S.D.=  9.81484063573070E-06
DEBUG_STATS_RL:               Theta (DYNAMICS)  min=  1.61245369689614E+01
DEBUG_STATS_RL:               Theta (DYNAMICS)  max=  2.12834420528866E+01
DEBUG_STATS_RL:               Theta (DYNAMICS) mean=  1.99966345124694E+01
DEBUG_STATS_RL:               Theta (DYNAMICS) S.D.=  6.02119115661174E-02
DEBUG_STATS_RL:                Salt (DYNAMICS)  min=  2.98012539474399E+01
DEBUG_STATS_RL:                Salt (DYNAMICS)  max=  3.51447986909652E+01
DEBUG_STATS_RL:                Salt (DYNAMICS) mean=  3.49987131234426E+01
DEBUG_STATS_RL:                Salt (DYNAMICS) S.D.=  5.81756649832643E-02
DEBUG_STATS_RL:                  Gu (DYNAMICS)  min= -6.59371049675847E-01
DEBUG_STATS_RL:                  Gu (DYNAMICS)  max=  1.60518682783582E+00
DEBUG_STATS_RL:                  Gu (DYNAMICS) mean=  4.95960386616298E-04
DEBUG_STATS_RL:                  Gu (DYNAMICS) S.D.=  2.41755843937754E-02
DEBUG_STATS_RL:                  Gv (DYNAMICS)  min= -8.44366642126445E-01
DEBUG_STATS_RL:                  Gv (DYNAMICS)  max=  7.42174815300752E-01
DEBUG_STATS_RL:                  Gv (DYNAMICS) mean= -5.12045425887962E-04
DEBUG_STATS_RL:                  Gv (DYNAMICS) S.D.=  2.29697943380493E-02
DEBUG_STATS_RL:               GuNm1 (DYNAMICS)  min= -6.92734661258720E-05
DEBUG_STATS_RL:               GuNm1 (DYNAMICS)  max=  2.58270702852283E-05
DEBUG_STATS_RL:               GuNm1 (DYNAMICS) mean= -5.52627154257727E-08
DEBUG_STATS_RL:               GuNm1 (DYNAMICS) S.D.=  1.49812273668366E-06
DEBUG_STATS_RL:               GvNm1 (DYNAMICS)  min= -7.87865141233617E-05
DEBUG_STATS_RL:               GvNm1 (DYNAMICS)  max=  3.94991200637732E-05
DEBUG_STATS_RL:               GvNm1 (DYNAMICS) mean= -5.40618706366070E-08
DEBUG_STATS_RL:               GvNm1 (DYNAMICS) S.D.=  1.69786006921388E-06
DEBUG_STATS_RL:               GtNm1 (DYNAMICS)  min= -1.87071390095650E-05
DEBUG_STATS_RL:               GtNm1 (DYNAMICS)  max=  3.03931996297964E-06
DEBUG_STATS_RL:               GtNm1 (DYNAMICS) mean= -1.84271243722436E-09
DEBUG_STATS_RL:               GtNm1 (DYNAMICS) S.D.=  1.41831781566213E-07
DEBUG_STATS_RL:               GsNm1 (DYNAMICS)  min= -1.22714524292808E-05
DEBUG_STATS_RL:               GsNm1 (DYNAMICS)  max=  2.80488639904929E-06
DEBUG_STATS_RL:               GsNm1 (DYNAMICS) mean= -3.49791671810766E-09
DEBUG_STATS_RL:               GsNm1 (DYNAMICS) S.D.=  1.55720522841164E-07
(PID.TID 0000.0001) DEBUG_MSG: LEAVING S/R DYNAMICS
DEBUG_STATS_RL:    cg2d_b (SOLVE_FOR_PRESSURE)  min= -4.69467255439404E+05
DEBUG_STATS_RL:    cg2d_b (SOLVE_FOR_PRESSURE)  max=  3.45467299035019E+05
DEBUG_STATS_RL:    cg2d_b (SOLVE_FOR_PRESSURE) mean= -2.13079468599544E+03
DEBUG_STATS_RL:    cg2d_b (SOLVE_FOR_PRESSURE) S.D.=  1.34902989950115E+04
 cg2d: Sum(rhs),rhsMax =  -2.00612766981690E+01  8.99337959747304E+01
(PID.TID 0000.0001)  cg2d: iter=     1 ; resid.=  2.96105034493917E-02
(PID.TID 0000.0001)  cg2d: iter=     2 ; resid.=  4.29541341060511E-03
(PID.TID 0000.0001)  cg2d: iter=     3 ; resid.=  9.64133627520097E-04
(PID.TID 0000.0001)  cg2d: iter=     4 ; resid.=  2.34475329303010E-04
(PID.TID 0000.0001)  cg2d: iter=     5 ; resid.=  8.16191121051414E-05
(PID.TID 0000.0001)  cg2d: iter=     6 ; resid.=  2.09113950204345E-05
(PID.TID 0000.0001)  cg2d: iter=     7 ; resid.=  4.02053843359035E-06
(PID.TID 0000.0001)  cg2d: iter=     8 ; resid.=  1.00145015126123E-06
(PID.TID 0000.0001)  cg2d: iter=     9 ; resid.=  2.81262607457186E-07
(PID.TID 0000.0001)  cg2d: iter=    10 ; resid.=  7.71640105277826E-08
DEBUG_STATS_RL:    cg2d_x (SOLVE_FOR_PRESSURE)  min= -3.65691090808416E+01
DEBUG_STATS_RL:    cg2d_x (SOLVE_FOR_PRESSURE)  max=  4.03072302440328E+01
DEBUG_STATS_RL:    cg2d_x (SOLVE_FOR_PRESSURE) mean=  2.18046745195510E-01
DEBUG_STATS_RL:    cg2d_x (SOLVE_FOR_PRESSURE) S.D.=  1.30649789837026E+00
(PID.TID 0000.0001)      cg2d_init_res =   2.62994720766621E-01
(PID.TID 0000.0001)      cg2d_iters(min,last) =      -1      10
(PID.TID 0000.0001)      cg2d_last_res =   7.71640105277826E-08
(PID.TID 0000.0001) DEBUG_MSG: CALLING S/R UPDATE_ETAH
(PID.TID 0000.0001) DEBUG_MSG: ENTERED S/R CALC_R_STAR
(PID.TID 0000.0001) DEBUG_MSG: LEAVING S/R CALC_R_STAR
(PID.TID 0000.0001) DEBUG_MSG: CALLING S/R DO_STAGGER_FIELDS_EXCH.
(PID.TID 0000.0001) DEBUG_MSG: CALLING S/R THERMODYNAMICS
(PID.TID 0000.0001) DEBUG_MSG: ENTERED S/R THERMODYNAMICS
(PID.TID 0000.0001) DEBUG_MSG: CALLING S/R TEMP_INTEGRATE
(PID.TID 0000.0001) DEBUG_MSG: CALLING S/R SALT_INTEGRATE
DEBUG_STATS_RL:          Uvel (THERMODYNAMICS)  min= -6.26903258250044E-01
DEBUG_STATS_RL:          Uvel (THERMODYNAMICS)  max=  1.50750405618869E+00
DEBUG_STATS_RL:          Uvel (THERMODYNAMICS) mean=  5.13994321921841E-04
DEBUG_STATS_RL:          Uvel (THERMODYNAMICS) S.D.=  2.36406230207761E-02
DEBUG_STATS_RL:          Vvel (THERMODYNAMICS)  min= -8.41577967639502E-01
DEBUG_STATS_RL:          Vvel (THERMODYNAMICS)  max=  6.83397624149250E-01
DEBUG_STATS_RL:          Vvel (THERMODYNAMICS) mean= -4.94081876782037E-04
DEBUG_STATS_RL:          Vvel (THERMODYNAMICS) S.D.=  2.26480180056084E-02
DEBUG_STATS_RL:          Wvel (THERMODYNAMICS)  min= -4.20157869947400E-04
DEBUG_STATS_RL:          Wvel (THERMODYNAMICS)  max=  2.21986711069803E-04
DEBUG_STATS_RL:          Wvel (THERMODYNAMICS) mean= -5.23253859783870E-07
DEBUG_STATS_RL:          Wvel (THERMODYNAMICS) S.D.=  9.64819658430121E-06
DEBUG_STATS_RL:         Theta (THERMODYNAMICS)  min=  1.61116687177402E+01
DEBUG_STATS_RL:         Theta (THERMODYNAMICS)  max=  2.13425050563301E+01
DEBUG_STATS_RL:         Theta (THERMODYNAMICS) mean=  1.99968721426765E+01
DEBUG_STATS_RL:         Theta (THERMODYNAMICS) S.D.=  6.09657751517106E-02
DEBUG_STATS_RL:          Salt (THERMODYNAMICS)  min=  2.95969715527649E+01
DEBUG_STATS_RL:          Salt (THERMODYNAMICS)  max=  3.51460948443142E+01
DEBUG_STATS_RL:          Salt (THERMODYNAMICS) mean=  3.49986660594370E+01
DEBUG_STATS_RL:          Salt (THERMODYNAMICS) S.D.=  6.04848393994764E-02
DEBUG_STATS_RL:         GtNm1 (THERMODYNAMICS)  min= -1.61489873503353E-05
DEBUG_STATS_RL:         GtNm1 (THERMODYNAMICS)  max=  3.37454424562153E-06
DEBUG_STATS_RL:         GtNm1 (THERMODYNAMICS) mean= -1.36994958154674E-09
DEBUG_STATS_RL:         GtNm1 (THERMODYNAMICS) S.D.=  1.23595887005987E-07
DEBUG_STATS_RL:         GsNm1 (THERMODYNAMICS)  min= -1.26380985146912E-05
DEBUG_STATS_RL:         GsNm1 (THERMODYNAMICS)  max=  2.58421980691604E-06
DEBUG_STATS_RL:         GsNm1 (THERMODYNAMICS) mean= -3.58858721399105E-09
DEBUG_STATS_RL:         GsNm1 (THERMODYNAMICS) S.D.=  1.60439686704430E-07
(PID.TID 0000.0001) DEBUG_MSG: LEAVING S/R THERMODYNAMICS
(PID.TID 0000.0001) // =======================================================
(PID.TID 0000.0001) // Begin MONITOR dynamic field statistics
(PID.TID 0000.0001) // =======================================================
(PID.TID 0000.0001) %MON time_tsnumber                =                    20
(PID.TID 0000.0001) %MON time_secondsf                =   1.8000000000000E+04
(PID.TID 0000.0001) %MON dynstat_eta_max              =   4.1087900392238E+00
(PID.TID 0000.0001) %MON dynstat_eta_min              =  -3.7277379442858E+00
(PID.TID 0000.0001) %MON dynstat_eta_mean             =   2.0964411033611E-02
(PID.TID 0000.0001) %MON dynstat_eta_sd               =   1.2987921589215E-01
(PID.TID 0000.0001) %MON dynstat_eta_del2             =   3.7318027133812E-03
(PID.TID 0000.0001) %MON dynstat_uvel_max             =   1.5075040561887E+00
(PID.TID 0000.0001) %MON dynstat_uvel_min             =  -6.2690325825004E-01
(PID.TID 0000.0001) %MON dynstat_uvel_mean            =   4.4830491508019E-04
(PID.TID 0000.0001) %MON dynstat_uvel_sd              =   7.8737860931438E-03
(PID.TID 0000.0001) %MON dynstat_uvel_del2            =   1.2821198383408E-04
(PID.TID 0000.0001) %MON dynstat_vvel_max             =   6.8339762414925E-01
(PID.TID 0000.0001) %MON dynstat_vvel_min             =  -8.4157796763950E-01
(PID.TID 0000.0001) %MON dynstat_vvel_mean            =   2.2741924812034E-05
(PID.TID 0000.0001) %MON dynstat_vvel_sd              =   7.4932937298510E-03
(PID.TID 0000.0001) %MON dynstat_vvel_del2            =   1.2070676629656E-04
(PID.TID 0000.0001) %MON dynstat_wvel_max             =   2.2198671106980E-04
(PID.TID 0000.0001) %MON dynstat_wvel_min             =  -4.2015786994740E-04
(PID.TID 0000.0001) %MON dynstat_wvel_mean            =  -3.6551454644883E-07
(PID.TID 0000.0001) %MON dynstat_wvel_sd              =   9.0695105250374E-06
(PID.TID 0000.0001) %MON dynstat_wvel_del2            =   7.8764473236947E-08
(PID.TID 0000.0001) %MON dynstat_theta_max            =   2.1342505056330E+01
(PID.TID 0000.0001) %MON dynstat_theta_min            =   1.6111668717740E+01
(PID.TID 0000.0001) %MON dynstat_theta_mean           =   1.9997800050307E+01
(PID.TID 0000.0001) %MON dynstat_theta_sd             =   2.0881011062866E-02
(PID.TID 0000.0001) %MON dynstat_theta_del2           =   3.9678600346257E-04
(PID.TID 0000.0001) %MON dynstat_salt_max             =   3.5146094844314E+01
(PID.TID 0000.0001) %MON dynstat_salt_min             =   2.9596971552765E+01
(PID.TID 0000.0001) %MON dynstat_salt_mean            =   3.4999803487887E+01
(PID.TID 0000.0001) %MON dynstat_salt_sd              =   1.8697313041895E-02
(PID.TID 0000.0001) %MON dynstat_salt_del2            =   6.5595647990721E-04
(PID.TID 0000.0001) %MON dynstat_sst_max              =   2.1342505056330E+01
(PID.TID 0000.0001) %MON dynstat_sst_min              =   1.6118198549024E+01
(PID.TID 0000.0001) %MON dynstat_sst_mean             =   2.0049299682428E+01
(PID.TID 0000.0001) %MON dynstat_sst_sd               =   1.7264723924158E-01
(PID.TID 0000.0001) %MON dynstat_sst_del2             =   4.0254951791119E-03
(PID.TID 0000.0001) %MON dynstat_sss_max              =   3.5146094844314E+01
(PID.TID 0000.0001) %MON dynstat_sss_min              =   2.9596971552765E+01
(PID.TID 0000.0001) %MON dynstat_sss_mean             =   3.4985229310449E+01
(PID.TID 0000.0001) %MON dynstat_sss_sd               =   2.2521050401473E-01
(PID.TID 0000.0001) %MON dynstat_sss_del2             =   8.8865512233434E-03
(PID.TID 0000.0001) %MON forcing_qnet_max             =   5.4817660436538E+03
(PID.TID 0000.0001) %MON forcing_qnet_min             =  -6.4618273543360E+03
(PID.TID 0000.0001) %MON forcing_qnet_mean            =  -1.3020972958279E+02
(PID.TID 0000.0001) %MON forcing_qnet_sd              =   6.9122651542433E+02
(PID.TID 0000.0001) %MON forcing_qnet_del2            =   1.2597346405080E+01
(PID.TID 0000.0001) %MON forcing_qsw_max              =   0.0000000000000E+00
(PID.TID 0000.0001) %MON forcing_qsw_min              =  -1.0581486761824E+02
(PID.TID 0000.0001) %MON forcing_qsw_mean             =  -2.0247132594554E+01
(PID.TID 0000.0001) %MON forcing_qsw_sd               =   2.8782074285779E+01
(PID.TID 0000.0001) %MON forcing_qsw_del2             =   2.6158272687966E-01
(PID.TID 0000.0001) %MON forcing_empmr_max            =   9.1119399294257E-03
(PID.TID 0000.0001) %MON forcing_empmr_min            =  -1.3095958530903E-01
(PID.TID 0000.0001) %MON forcing_empmr_mean           =  -5.3383661508485E-04
(PID.TID 0000.0001) %MON forcing_empmr_sd             =   5.7798784221240E-03
(PID.TID 0000.0001) %MON forcing_empmr_del2           =   2.2768633406863E-04
(PID.TID 0000.0001) %MON forcing_fu_max               =   9.1700260455620E-01
(PID.TID 0000.0001) %MON forcing_fu_min               =  -6.1049885981969E-01
(PID.TID 0000.0001) %MON forcing_fu_mean              =  -6.6491670974431E-04
(PID.TID 0000.0001) %MON forcing_fu_sd                =   1.0186089824473E-01
(PID.TID 0000.0001) %MON forcing_fu_del2              =   8.5641480221419E-04
(PID.TID 0000.0001) %MON forcing_fv_max               =   4.7061571499960E-01
(PID.TID 0000.0001) %MON forcing_fv_min               =  -5.5401986182302E-01
(PID.TID 0000.0001) %MON forcing_fv_mean              =  -3.8077152525489E-03
(PID.TID 0000.0001) %MON forcing_fv_sd                =   8.6173691043311E-02
(PID.TID 0000.0001) %MON forcing_fv_del2              =   7.5749680498063E-04
(PID.TID 0000.0001) %MON trAdv_CFL_u_max              =   5.0320145849601E-03
(PID.TID 0000.0001) %MON trAdv_CFL_v_max              =   4.2020111469861E-03
(PID.TID 0000.0001) %MON trAdv_CFL_w_max              =   6.0817770606150E-03
(PID.TID 0000.0001) %MON advcfl_uvel_max              =   5.0271742256467E-03
(PID.TID 0000.0001) %MON advcfl_vvel_max              =   2.8756763362320E-03
(PID.TID 0000.0001) %MON advcfl_wvel_max              =   9.1102320214976E-03
(PID.TID 0000.0001) %MON advcfl_W_hf_max              =   6.0817770606150E-03
(PID.TID 0000.0001) %MON pe_b_mean                    =   2.3057482270938E-05
(PID.TID 0000.0001) %MON ke_max                       =   7.2247573209077E-01
(PID.TID 0000.0001) %MON ke_mean                      =   5.4625578459408E-05
(PID.TID 0000.0001) %MON ke_vol                       =   1.3398099051156E+18
(PID.TID 0000.0001) %MON vort_r_min                   =  -8.7276468312340E-06
(PID.TID 0000.0001) %MON vort_r_max                   =   2.9079044742607E-06
(PID.TID 0000.0001) %MON vort_a_mean                  =  -2.0549865324846E-05
(PID.TID 0000.0001) %MON vort_a_sd                    =   7.5259260416247E-05
(PID.TID 0000.0001) %MON vort_p_mean                  =  -2.4783386566457E-05
(PID.TID 0000.0001) %MON vort_p_sd                    =   1.2810582151478E-04
(PID.TID 0000.0001) %MON surfExpan_theta_mean         =   4.5485616679156E-07
(PID.TID 0000.0001) %MON surfExpan_salt_mean          =   1.2874011512332E-06
(PID.TID 0000.0001) // =======================================================
(PID.TID 0000.0001) // End MONITOR dynamic field statistics
(PID.TID 0000.0001) // =======================================================
(PID.TID 0000.0001) DEBUG_MSG: LEAVING S/R FORWARD_STEP
(PID.TID 0000.0001) DEBUG_MSG: ENTERED S/R FORWARD_STEP
(PID.TID 0000.0001) DEBUG_MSG: CALLING S/R LOAD_FIELDS_DRIVER
(PID.TID 0000.0001) DEBUG_MSG: ENTERED S/R LOAD_FIELDS_DRIVER
(PID.TID 0000.0001) DEBUG_MSG: CALLING S/R EXTERNAL_FIELDS_LOAD
(PID.TID 0000.0001) DEBUG_MSG: LEAVING S/R LOAD_FIELDS_DRIVER
(PID.TID 0000.0001) DEBUG_MSG: CALLING S/R DO_ATMOSPHERIC_PHYS
(PID.TID 0000.0001) DEBUG_MSG: ENTERED S/R DO_ATMOSPHERIC_PHYS
(PID.TID 0000.0001) DEBUG_MSG: LEAVING S/R DO_ATMOSPHERIC_PHYS
(PID.TID 0000.0001) DEBUG_MSG: CALLING S/R DO_OCEANIC_PHYS
(PID.TID 0000.0001) DEBUG_MSG: ENTERED S/R DO_OCEANIC_PHYS
(PID.TID 0000.0001) DEBUG_MSG: CALLING S/R EXTERNAL_FORCING_SURF
(PID.TID 0000.0001) DEBUG_MSG: CALLING S/R FIND_RHO_2D (xNr)
(PID.TID 0000.0001) DEBUG_MSG:                  ENTERING UPWARD K LOOP (bi=   1, bj=   1)
(PID.TID 0000.0001) DEBUG_MSG: CALLING S/R GRAD_SIGMA
(PID.TID 0000.0001) DEBUG_MSG: CALLING S/R CALC_IVDC
(PID.TID 0000.0001) DEBUG_MSG: CALLING S/R GRAD_SIGMA
(PID.TID 0000.0001) DEBUG_MSG: CALLING S/R CALC_IVDC
(PID.TID 0000.0001) DEBUG_MSG: CALLING S/R GRAD_SIGMA
(PID.TID 0000.0001) DEBUG_MSG: CALLING S/R CALC_IVDC
(PID.TID 0000.0001) DEBUG_MSG: CALLING S/R GRAD_SIGMA
(PID.TID 0000.0001) DEBUG_MSG: CALLING S/R CALC_IVDC
(PID.TID 0000.0001) DEBUG_MSG: CALLING S/R GRAD_SIGMA
(PID.TID 0000.0001) DEBUG_MSG: CALLING S/R CALC_IVDC
(PID.TID 0000.0001) DEBUG_MSG: CALLING S/R GRAD_SIGMA
(PID.TID 0000.0001) DEBUG_MSG: CALLING S/R CALC_IVDC
(PID.TID 0000.0001) DEBUG_MSG: CALLING S/R GRAD_SIGMA
(PID.TID 0000.0001) DEBUG_MSG: CALLING S/R CALC_IVDC
(PID.TID 0000.0001) DEBUG_MSG: CALLING S/R GRAD_SIGMA
(PID.TID 0000.0001) DEBUG_MSG: CALLING S/R CALC_IVDC
(PID.TID 0000.0001) DEBUG_MSG: CALLING S/R GRAD_SIGMA
(PID.TID 0000.0001) DEBUG_MSG: CALLING S/R CALC_IVDC
(PID.TID 0000.0001) DEBUG_MSG: CALLING S/R GRAD_SIGMA
(PID.TID 0000.0001) DEBUG_MSG: CALLING S/R CALC_IVDC
(PID.TID 0000.0001) DEBUG_MSG: CALLING S/R GRAD_SIGMA
(PID.TID 0000.0001) DEBUG_MSG: CALLING S/R CALC_IVDC
(PID.TID 0000.0001) DEBUG_MSG: CALLING S/R GRAD_SIGMA
(PID.TID 0000.0001) DEBUG_MSG: CALLING S/R CALC_IVDC
(PID.TID 0000.0001) DEBUG_MSG: CALLING S/R GRAD_SIGMA
(PID.TID 0000.0001) DEBUG_MSG: CALLING S/R CALC_IVDC
(PID.TID 0000.0001) DEBUG_MSG: CALLING S/R GRAD_SIGMA
(PID.TID 0000.0001) DEBUG_MSG: CALLING S/R CALC_IVDC
(PID.TID 0000.0001) DEBUG_MSG: CALLING S/R GRAD_SIGMA
(PID.TID 0000.0001) DEBUG_MSG: CALLING S/R CALC_IVDC
(PID.TID 0000.0001) DEBUG_MSG: CALLING S/R GRAD_SIGMA
(PID.TID 0000.0001) DEBUG_MSG: CALLING S/R GMREDI_CALC_TENSOR
(PID.TID 0000.0001) DEBUG_MSG: LEAVING S/R DO_OCEANIC_PHYS
(PID.TID 0000.0001) DEBUG_MSG: CALLING S/R DYNAMICS
(PID.TID 0000.0001) DEBUG_MSG: ENTERED S/R DYNAMICS
DEBUG_STATS_RL:                EtaN (DYNAMICS)  min= -3.72773794428576E+00
DEBUG_STATS_RL:                EtaN (DYNAMICS)  max=  4.10879003922375E+00
DEBUG_STATS_RL:                EtaN (DYNAMICS) mean=  2.22269878339554E-02
DEBUG_STATS_RL:                EtaN (DYNAMICS) S.D.=  1.33180214016810E-01
DEBUG_STATS_RL:                Uvel (DYNAMICS)  min= -6.26903258250044E-01
DEBUG_STATS_RL:                Uvel (DYNAMICS)  max=  1.50750405618869E+00
DEBUG_STATS_RL:                Uvel (DYNAMICS) mean=  5.13994321921841E-04
DEBUG_STATS_RL:                Uvel (DYNAMICS) S.D.=  2.36406230207761E-02
DEBUG_STATS_RL:                Vvel (DYNAMICS)  min= -8.41577967639502E-01
DEBUG_STATS_RL:                Vvel (DYNAMICS)  max=  6.83397624149250E-01
DEBUG_STATS_RL:                Vvel (DYNAMICS) mean= -4.94081876782037E-04
DEBUG_STATS_RL:                Vvel (DYNAMICS) S.D.=  2.26480180056084E-02
DEBUG_STATS_RL:                Wvel (DYNAMICS)  min= -4.20157869947400E-04
DEBUG_STATS_RL:                Wvel (DYNAMICS)  max=  2.21986711069803E-04
DEBUG_STATS_RL:                Wvel (DYNAMICS) mean= -5.23253859783870E-07
DEBUG_STATS_RL:                Wvel (DYNAMICS) S.D.=  9.64819658430121E-06
DEBUG_STATS_RL:               Theta (DYNAMICS)  min=  1.61116687177402E+01
DEBUG_STATS_RL:               Theta (DYNAMICS)  max=  2.13425050563301E+01
DEBUG_STATS_RL:               Theta (DYNAMICS) mean=  1.99968721426765E+01
DEBUG_STATS_RL:               Theta (DYNAMICS) S.D.=  6.09657751517106E-02
DEBUG_STATS_RL:                Salt (DYNAMICS)  min=  2.95969715527649E+01
DEBUG_STATS_RL:                Salt (DYNAMICS)  max=  3.51460948443142E+01
DEBUG_STATS_RL:                Salt (DYNAMICS) mean=  3.49986660594370E+01
DEBUG_STATS_RL:                Salt (DYNAMICS) S.D.=  6.04848393994764E-02
DEBUG_STATS_RL:                  Gu (DYNAMICS)  min= -6.17838195493053E-01
DEBUG_STATS_RL:                  Gu (DYNAMICS)  max=  1.45906567703451E+00
DEBUG_STATS_RL:                  Gu (DYNAMICS) mean=  4.59236903570372E-04
DEBUG_STATS_RL:                  Gu (DYNAMICS) S.D.=  2.35695431298954E-02
DEBUG_STATS_RL:                  Gv (DYNAMICS)  min= -8.68142755875272E-01
DEBUG_STATS_RL:                  Gv (DYNAMICS)  max=  6.26142221270558E-01
DEBUG_STATS_RL:                  Gv (DYNAMICS) mean= -5.43704588049417E-04
DEBUG_STATS_RL:                  Gv (DYNAMICS) S.D.=  2.31533665508881E-02
DEBUG_STATS_RL:               GuNm1 (DYNAMICS)  min= -6.81348566134369E-05
DEBUG_STATS_RL:               GuNm1 (DYNAMICS)  max=  2.57745537785672E-05
DEBUG_STATS_RL:               GuNm1 (DYNAMICS) mean= -5.90519702919920E-08
DEBUG_STATS_RL:               GuNm1 (DYNAMICS) S.D.=  1.51588516146659E-06
DEBUG_STATS_RL:               GvNm1 (DYNAMICS)  min= -7.26225596082521E-05
DEBUG_STATS_RL:               GvNm1 (DYNAMICS)  max=  4.07103873887065E-05
DEBUG_STATS_RL:               GvNm1 (DYNAMICS) mean= -5.51271406949937E-08
DEBUG_STATS_RL:               GvNm1 (DYNAMICS) S.D.=  1.63623030239949E-06
DEBUG_STATS_RL:               GtNm1 (DYNAMICS)  min= -1.61489873503353E-05
DEBUG_STATS_RL:               GtNm1 (DYNAMICS)  max=  3.37454424562153E-06
DEBUG_STATS_RL:               GtNm1 (DYNAMICS) mean= -1.36994958154674E-09
DEBUG_STATS_RL:               GtNm1 (DYNAMICS) S.D.=  1.23595887005987E-07
DEBUG_STATS_RL:               GsNm1 (DYNAMICS)  min= -1.26380985146912E-05
DEBUG_STATS_RL:               GsNm1 (DYNAMICS)  max=  2.58421980691604E-06
DEBUG_STATS_RL:               GsNm1 (DYNAMICS) mean= -3.58858721399105E-09
DEBUG_STATS_RL:               GsNm1 (DYNAMICS) S.D.=  1.60439686704430E-07
(PID.TID 0000.0001) DEBUG_MSG: LEAVING S/R DYNAMICS
DEBUG_STATS_RL:    cg2d_b (SOLVE_FOR_PRESSURE)  min= -4.66768937198769E+05
DEBUG_STATS_RL:    cg2d_b (SOLVE_FOR_PRESSURE)  max=  3.75199104561400E+05
DEBUG_STATS_RL:    cg2d_b (SOLVE_FOR_PRESSURE) mean= -2.17774126729071E+03
DEBUG_STATS_RL:    cg2d_b (SOLVE_FOR_PRESSURE) S.D.=  1.38344073625216E+04
 cg2d: Sum(rhs),rhsMax =  -2.06218015688691E+01  8.94168909098584E+01
(PID.TID 0000.0001)  cg2d: iter=     1 ; resid.=  2.95903908014699E-02
(PID.TID 0000.0001)  cg2d: iter=     2 ; resid.=  4.04607343257879E-03
(PID.TID 0000.0001)  cg2d: iter=     3 ; resid.=  9.34689096821542E-04
(PID.TID 0000.0001)  cg2d: iter=     4 ; resid.=  2.31982832268899E-04
(PID.TID 0000.0001)  cg2d: iter=     5 ; resid.=  8.11251274380125E-05
(PID.TID 0000.0001)  cg2d: iter=     6 ; resid.=  1.98979135829412E-05
(PID.TID 0000.0001)  cg2d: iter=     7 ; resid.=  4.03627320209088E-06
(PID.TID 0000.0001)  cg2d: iter=     8 ; resid.=  9.53082091991439E-07
(PID.TID 0000.0001)  cg2d: iter=     9 ; resid.=  2.47883061476737E-07
(PID.TID 0000.0001)  cg2d: iter=    10 ; resid.=  6.39445991884733E-08
DEBUG_STATS_RL:    cg2d_x (SOLVE_FOR_PRESSURE)  min= -3.97178887128835E+01
DEBUG_STATS_RL:    cg2d_x (SOLVE_FOR_PRESSURE)  max=  4.00704640089499E+01
DEBUG_STATS_RL:    cg2d_x (SOLVE_FOR_PRESSURE) mean=  2.23274392164058E-01
DEBUG_STATS_RL:    cg2d_x (SOLVE_FOR_PRESSURE) S.D.=  1.33989270242387E+00
(PID.TID 0000.0001)      cg2d_init_res =   2.40002433088157E-01
(PID.TID 0000.0001)      cg2d_iters(min,last) =      -1      10
(PID.TID 0000.0001)      cg2d_last_res =   6.39445991884733E-08
(PID.TID 0000.0001) DEBUG_MSG: CALLING S/R UPDATE_ETAH
(PID.TID 0000.0001) DEBUG_MSG: ENTERED S/R CALC_R_STAR
(PID.TID 0000.0001) DEBUG_MSG: LEAVING S/R CALC_R_STAR
(PID.TID 0000.0001) DEBUG_MSG: CALLING S/R DO_STAGGER_FIELDS_EXCH.
(PID.TID 0000.0001) DEBUG_MSG: CALLING S/R THERMODYNAMICS
(PID.TID 0000.0001) DEBUG_MSG: ENTERED S/R THERMODYNAMICS
(PID.TID 0000.0001) DEBUG_MSG: CALLING S/R TEMP_INTEGRATE
(PID.TID 0000.0001) DEBUG_MSG: CALLING S/R SALT_INTEGRATE
DEBUG_STATS_RL:          Uvel (THERMODYNAMICS)  min= -5.80104179661931E-01
DEBUG_STATS_RL:          Uvel (THERMODYNAMICS)  max=  1.35138526166634E+00
DEBUG_STATS_RL:          Uvel (THERMODYNAMICS) mean=  4.73202298414153E-04
DEBUG_STATS_RL:          Uvel (THERMODYNAMICS) S.D.=  2.30559702725173E-02
DEBUG_STATS_RL:          Vvel (THERMODYNAMICS)  min= -8.94458015186075E-01
DEBUG_STATS_RL:          Vvel (THERMODYNAMICS)  max=  5.59374834525924E-01
DEBUG_STATS_RL:          Vvel (THERMODYNAMICS) mean= -5.28306282963758E-04
DEBUG_STATS_RL:          Vvel (THERMODYNAMICS) S.D.=  2.29349732780856E-02
DEBUG_STATS_RL:          Wvel (THERMODYNAMICS)  min= -3.77164632613716E-04
DEBUG_STATS_RL:          Wvel (THERMODYNAMICS)  max=  1.63201009824210E-04
DEBUG_STATS_RL:          Wvel (THERMODYNAMICS) mean= -5.30492240023762E-07
DEBUG_STATS_RL:          Wvel (THERMODYNAMICS) S.D.=  9.50360945423552E-06
DEBUG_STATS_RL:         Theta (THERMODYNAMICS)  min=  1.61011109989868E+01
DEBUG_STATS_RL:         Theta (THERMODYNAMICS)  max=  2.14008123440933E+01
DEBUG_STATS_RL:         Theta (THERMODYNAMICS) mean=  1.99971015838281E+01
DEBUG_STATS_RL:         Theta (THERMODYNAMICS) S.D.=  6.17194713238666E-02
DEBUG_STATS_RL:          Salt (THERMODYNAMICS)  min=  2.93981927161394E+01
DEBUG_STATS_RL:          Salt (THERMODYNAMICS)  max=  3.51472759994733E+01
DEBUG_STATS_RL:          Salt (THERMODYNAMICS) mean=  3.49986203021007E+01
DEBUG_STATS_RL:          Salt (THERMODYNAMICS) S.D.=  6.27374351392330E-02
DEBUG_STATS_RL:         GtNm1 (THERMODYNAMICS)  min= -1.35311119243386E-05
DEBUG_STATS_RL:         GtNm1 (THERMODYNAMICS)  max=  3.96586085827095E-06
DEBUG_STATS_RL:         GtNm1 (THERMODYNAMICS) mean= -8.98081981655433E-10
DEBUG_STATS_RL:         GtNm1 (THERMODYNAMICS) S.D.=  1.06428267488061E-07
DEBUG_STATS_RL:         GsNm1 (THERMODYNAMICS)  min= -1.29800674359756E-05
DEBUG_STATS_RL:         GsNm1 (THERMODYNAMICS)  max=  2.58675720316401E-06
DEBUG_STATS_RL:         GsNm1 (THERMODYNAMICS) mean= -3.66990234211744E-09
DEBUG_STATS_RL:         GsNm1 (THERMODYNAMICS) S.D.=  1.65025115165448E-07
(PID.TID 0000.0001) DEBUG_MSG: LEAVING S/R THERMODYNAMICS
(PID.TID 0000.0001) // =======================================================
(PID.TID 0000.0001) // Begin MONITOR dynamic field statistics
(PID.TID 0000.0001) // =======================================================
(PID.TID 0000.0001) %MON time_tsnumber                =                    21
(PID.TID 0000.0001) %MON time_secondsf                =   1.8900000000000E+04
(PID.TID 0000.0001) %MON dynstat_eta_max              =   4.0846548442888E+00
(PID.TID 0000.0001) %MON dynstat_eta_min              =  -4.0487144561781E+00
(PID.TID 0000.0001) %MON dynstat_eta_mean             =   2.1426307918077E-02
(PID.TID 0000.0001) %MON dynstat_eta_sd               =   1.3324336063014E-01
(PID.TID 0000.0001) %MON dynstat_eta_del2             =   3.8135558552908E-03
(PID.TID 0000.0001) %MON dynstat_uvel_max             =   1.3513852616663E+00
(PID.TID 0000.0001) %MON dynstat_uvel_min             =  -5.8010417966193E-01
(PID.TID 0000.0001) %MON dynstat_uvel_mean            =   4.4345397646523E-04
(PID.TID 0000.0001) %MON dynstat_uvel_sd              =   7.6735511543710E-03
(PID.TID 0000.0001) %MON dynstat_uvel_del2            =   1.2037503110432E-04
(PID.TID 0000.0001) %MON dynstat_vvel_max             =   5.5937483452592E-01
(PID.TID 0000.0001) %MON dynstat_vvel_min             =  -8.9445801518608E-01
(PID.TID 0000.0001) %MON dynstat_vvel_mean            =   2.1821831633606E-05
(PID.TID 0000.0001) %MON dynstat_vvel_sd              =   7.5576727519748E-03
(PID.TID 0000.0001) %MON dynstat_vvel_del2            =   1.1608510492420E-04
(PID.TID 0000.0001) %MON dynstat_wvel_max             =   1.6320100982421E-04
(PID.TID 0000.0001) %MON dynstat_wvel_min             =  -3.7716463261372E-04
(PID.TID 0000.0001) %MON dynstat_wvel_mean            =  -3.7834930934914E-07
(PID.TID 0000.0001) %MON dynstat_wvel_sd              =   8.9374935659400E-06
(PID.TID 0000.0001) %MON dynstat_wvel_del2            =   7.7626536103198E-08
(PID.TID 0000.0001) %MON dynstat_theta_max            =   2.1400812344093E+01
(PID.TID 0000.0001) %MON dynstat_theta_min            =   1.6101110998987E+01
(PID.TID 0000.0001) %MON dynstat_theta_mean           =   1.9997807592981E+01
(PID.TID 0000.0001) %MON dynstat_theta_sd             =   2.1074302535169E-02
(PID.TID 0000.0001) %MON dynstat_theta_del2           =   4.0000524974315E-04
(PID.TID 0000.0001) %MON dynstat_salt_max             =   3.5147275999473E+01
(PID.TID 0000.0001) %MON dynstat_salt_min             =   2.9398192716139E+01
(PID.TID 0000.0001) %MON dynstat_salt_mean            =   3.4999798317946E+01
(PID.TID 0000.0001) %MON dynstat_salt_sd              =   1.9390501423635E-02
(PID.TID 0000.0001) %MON dynstat_salt_del2            =   6.8019074994433E-04
(PID.TID 0000.0001) %MON dynstat_sst_max              =   2.1400812344093E+01
(PID.TID 0000.0001) %MON dynstat_sst_min              =   1.6106812006144E+01
(PID.TID 0000.0001) %MON dynstat_sst_mean             =   2.0052247058262E+01
(PID.TID 0000.0001) %MON dynstat_sst_sd               =   1.7555513541745E-01
(PID.TID 0000.0001) %MON dynstat_sst_del2             =   4.0789102744680E-03
(PID.TID 0000.0001) %MON dynstat_sss_max              =   3.5147275999473E+01
(PID.TID 0000.0001) %MON dynstat_sss_min              =   2.9398192716139E+01
(PID.TID 0000.0001) %MON dynstat_sss_mean             =   3.4984623411753E+01
(PID.TID 0000.0001) %MON dynstat_sss_sd               =   2.3362418749625E-01
(PID.TID 0000.0001) %MON dynstat_sss_del2             =   9.2151395847439E-03
(PID.TID 0000.0001) %MON forcing_qnet_max             =   5.3956641646879E+03
(PID.TID 0000.0001) %MON forcing_qnet_min             =  -1.2713264648438E+04
(PID.TID 0000.0001) %MON forcing_qnet_mean            =  -1.2553385487484E+02
(PID.TID 0000.0001) %MON forcing_qnet_sd              =   7.0907752134989E+02
(PID.TID 0000.0001) %MON forcing_qnet_del2            =   1.6659898312169E+01
(PID.TID 0000.0001) %MON forcing_qsw_max              =   0.0000000000000E+00
(PID.TID 0000.0001) %MON forcing_qsw_min              =  -1.1149964781609E+02
(PID.TID 0000.0001) %MON forcing_qsw_mean             =  -1.9721504838110E+01
(PID.TID 0000.0001) %MON forcing_qsw_sd               =   2.8207513701736E+01
(PID.TID 0000.0001) %MON forcing_qsw_del2             =   2.6614618540790E-01
(PID.TID 0000.0001) %MON forcing_empmr_max            =   9.0180132538080E-03
(PID.TID 0000.0001) %MON forcing_empmr_min            =  -1.2961032986641E-01
(PID.TID 0000.0001) %MON forcing_empmr_mean           =  -5.3118141713524E-04
(PID.TID 0000.0001) %MON forcing_empmr_sd             =   5.7215594670445E-03
(PID.TID 0000.0001) %MON forcing_empmr_del2           =   2.2537291999467E-04
(PID.TID 0000.0001) %MON forcing_fu_max               =   9.1761401910204E-01
(PID.TID 0000.0001) %MON forcing_fu_min               =  -6.1846373603011E-01
(PID.TID 0000.0001) %MON forcing_fu_mean              =  -4.9514404850550E-04
(PID.TID 0000.0001) %MON forcing_fu_sd                =   1.0151109434700E-01
(PID.TID 0000.0001) %MON forcing_fu_del2              =   8.5079989465007E-04
(PID.TID 0000.0001) %MON forcing_fv_max               =   4.7740106976522E-01
(PID.TID 0000.0001) %MON forcing_fv_min               =  -5.4503293213592E-01
(PID.TID 0000.0001) %MON forcing_fv_mean              =  -3.7142709612929E-03
(PID.TID 0000.0001) %MON forcing_fv_sd                =   8.5516366467080E-02
(PID.TID 0000.0001) %MON forcing_fv_del2              =   7.4920968453468E-04
(PID.TID 0000.0001) %MON trAdv_CFL_u_max              =   4.5215366052738E-03
(PID.TID 0000.0001) %MON trAdv_CFL_v_max              =   3.2712362654089E-03
(PID.TID 0000.0001) %MON trAdv_CFL_w_max              =   5.2331513298967E-03
(PID.TID 0000.0001) %MON advcfl_uvel_max              =   4.5065544788939E-03
(PID.TID 0000.0001) %MON advcfl_vvel_max              =   3.0563677364774E-03
(PID.TID 0000.0001) %MON advcfl_wvel_max              =   9.0163707733154E-03
(PID.TID 0000.0001) %MON advcfl_W_hf_max              =   5.2331513298967E-03
(PID.TID 0000.0001) %MON pe_b_mean                    =   2.4262783443927E-05
(PID.TID 0000.0001) %MON ke_max                       =   6.5498637533760E-01
(PID.TID 0000.0001) %MON ke_mean                      =   5.3642951506982E-05
(PID.TID 0000.0001) %MON ke_vol                       =   1.3398100740339E+18
(PID.TID 0000.0001) %MON vort_r_min                   =  -8.3477851380454E-06
(PID.TID 0000.0001) %MON vort_r_max                   =   2.9403139633090E-06
(PID.TID 0000.0001) %MON vort_a_mean                  =  -2.0549865324846E-05
(PID.TID 0000.0001) %MON vort_a_sd                    =   7.5259257733589E-05
(PID.TID 0000.0001) %MON vort_p_mean                  =  -2.4783383240566E-05
(PID.TID 0000.0001) %MON vort_p_sd                    =   1.2810578161741E-04
(PID.TID 0000.0001) %MON surfExpan_theta_mean         =   2.8838591148493E-07
(PID.TID 0000.0001) %MON surfExpan_salt_mean          =   1.3157374376358E-06
(PID.TID 0000.0001) // =======================================================
(PID.TID 0000.0001) // End MONITOR dynamic field statistics
(PID.TID 0000.0001) // =======================================================
(PID.TID 0000.0001) DEBUG_MSG: LEAVING S/R FORWARD_STEP
(PID.TID 0000.0001) DEBUG_MSG: ENTERED S/R FORWARD_STEP
(PID.TID 0000.0001) DEBUG_MSG: CALLING S/R LOAD_FIELDS_DRIVER
(PID.TID 0000.0001) DEBUG_MSG: ENTERED S/R LOAD_FIELDS_DRIVER
(PID.TID 0000.0001) DEBUG_MSG: CALLING S/R EXTERNAL_FIELDS_LOAD
(PID.TID 0000.0001) DEBUG_MSG: LEAVING S/R LOAD_FIELDS_DRIVER
(PID.TID 0000.0001) DEBUG_MSG: CALLING S/R DO_ATMOSPHERIC_PHYS
(PID.TID 0000.0001) DEBUG_MSG: ENTERED S/R DO_ATMOSPHERIC_PHYS
(PID.TID 0000.0001) DEBUG_MSG: LEAVING S/R DO_ATMOSPHERIC_PHYS
(PID.TID 0000.0001) DEBUG_MSG: CALLING S/R DO_OCEANIC_PHYS
(PID.TID 0000.0001) DEBUG_MSG: ENTERED S/R DO_OCEANIC_PHYS
(PID.TID 0000.0001) DEBUG_MSG: CALLING S/R EXTERNAL_FORCING_SURF
(PID.TID 0000.0001) DEBUG_MSG: CALLING S/R FIND_RHO_2D (xNr)
(PID.TID 0000.0001) DEBUG_MSG:                  ENTERING UPWARD K LOOP (bi=   1, bj=   1)
(PID.TID 0000.0001) DEBUG_MSG: CALLING S/R GRAD_SIGMA
(PID.TID 0000.0001) DEBUG_MSG: CALLING S/R CALC_IVDC
(PID.TID 0000.0001) DEBUG_MSG: CALLING S/R GRAD_SIGMA
(PID.TID 0000.0001) DEBUG_MSG: CALLING S/R CALC_IVDC
(PID.TID 0000.0001) DEBUG_MSG: CALLING S/R GRAD_SIGMA
(PID.TID 0000.0001) DEBUG_MSG: CALLING S/R CALC_IVDC
(PID.TID 0000.0001) DEBUG_MSG: CALLING S/R GRAD_SIGMA
(PID.TID 0000.0001) DEBUG_MSG: CALLING S/R CALC_IVDC
(PID.TID 0000.0001) DEBUG_MSG: CALLING S/R GRAD_SIGMA
(PID.TID 0000.0001) DEBUG_MSG: CALLING S/R CALC_IVDC
(PID.TID 0000.0001) DEBUG_MSG: CALLING S/R GRAD_SIGMA
(PID.TID 0000.0001) DEBUG_MSG: CALLING S/R CALC_IVDC
(PID.TID 0000.0001) DEBUG_MSG: CALLING S/R GRAD_SIGMA
(PID.TID 0000.0001) DEBUG_MSG: CALLING S/R CALC_IVDC
(PID.TID 0000.0001) DEBUG_MSG: CALLING S/R GRAD_SIGMA
(PID.TID 0000.0001) DEBUG_MSG: CALLING S/R CALC_IVDC
(PID.TID 0000.0001) DEBUG_MSG: CALLING S/R GRAD_SIGMA
(PID.TID 0000.0001) DEBUG_MSG: CALLING S/R CALC_IVDC
(PID.TID 0000.0001) DEBUG_MSG: CALLING S/R GRAD_SIGMA
(PID.TID 0000.0001) DEBUG_MSG: CALLING S/R CALC_IVDC
(PID.TID 0000.0001) DEBUG_MSG: CALLING S/R GRAD_SIGMA
(PID.TID 0000.0001) DEBUG_MSG: CALLING S/R CALC_IVDC
(PID.TID 0000.0001) DEBUG_MSG: CALLING S/R GRAD_SIGMA
(PID.TID 0000.0001) DEBUG_MSG: CALLING S/R CALC_IVDC
(PID.TID 0000.0001) DEBUG_MSG: CALLING S/R GRAD_SIGMA
(PID.TID 0000.0001) DEBUG_MSG: CALLING S/R CALC_IVDC
(PID.TID 0000.0001) DEBUG_MSG: CALLING S/R GRAD_SIGMA
(PID.TID 0000.0001) DEBUG_MSG: CALLING S/R CALC_IVDC
(PID.TID 0000.0001) DEBUG_MSG: CALLING S/R GRAD_SIGMA
(PID.TID 0000.0001) DEBUG_MSG: CALLING S/R CALC_IVDC
(PID.TID 0000.0001) DEBUG_MSG: CALLING S/R GRAD_SIGMA
(PID.TID 0000.0001) DEBUG_MSG: CALLING S/R GMREDI_CALC_TENSOR
(PID.TID 0000.0001) DEBUG_MSG: LEAVING S/R DO_OCEANIC_PHYS
(PID.TID 0000.0001) DEBUG_MSG: CALLING S/R DYNAMICS
(PID.TID 0000.0001) DEBUG_MSG: ENTERED S/R DYNAMICS
DEBUG_STATS_RL:                EtaN (DYNAMICS)  min= -4.04871445617808E+00
DEBUG_STATS_RL:                EtaN (DYNAMICS)  max=  4.08465484428877E+00
DEBUG_STATS_RL:                EtaN (DYNAMICS) mean=  2.27598773829977E-02
DEBUG_STATS_RL:                EtaN (DYNAMICS) S.D.=  1.36584373374970E-01
DEBUG_STATS_RL:                Uvel (DYNAMICS)  min= -5.80104179661931E-01
DEBUG_STATS_RL:                Uvel (DYNAMICS)  max=  1.35138526166634E+00
DEBUG_STATS_RL:                Uvel (DYNAMICS) mean=  4.73202298414153E-04
DEBUG_STATS_RL:                Uvel (DYNAMICS) S.D.=  2.30559702725173E-02
DEBUG_STATS_RL:                Vvel (DYNAMICS)  min= -8.94458015186075E-01
DEBUG_STATS_RL:                Vvel (DYNAMICS)  max=  5.59374834525924E-01
DEBUG_STATS_RL:                Vvel (DYNAMICS) mean= -5.28306282963758E-04
DEBUG_STATS_RL:                Vvel (DYNAMICS) S.D.=  2.29349732780856E-02
DEBUG_STATS_RL:                Wvel (DYNAMICS)  min= -3.77164632613716E-04
DEBUG_STATS_RL:                Wvel (DYNAMICS)  max=  1.63201009824210E-04
DEBUG_STATS_RL:                Wvel (DYNAMICS) mean= -5.30492240023762E-07
DEBUG_STATS_RL:                Wvel (DYNAMICS) S.D.=  9.50360945423552E-06
DEBUG_STATS_RL:               Theta (DYNAMICS)  min=  1.61011109989868E+01
DEBUG_STATS_RL:               Theta (DYNAMICS)  max=  2.14008123440933E+01
DEBUG_STATS_RL:               Theta (DYNAMICS) mean=  1.99971015838281E+01
DEBUG_STATS_RL:               Theta (DYNAMICS) S.D.=  6.17194713238666E-02
DEBUG_STATS_RL:                Salt (DYNAMICS)  min=  2.93981927161394E+01
DEBUG_STATS_RL:                Salt (DYNAMICS)  max=  3.51472759994733E+01
DEBUG_STATS_RL:                Salt (DYNAMICS) mean=  3.49986203021007E+01
DEBUG_STATS_RL:                Salt (DYNAMICS) S.D.=  6.27374351392330E-02
DEBUG_STATS_RL:                  Gu (DYNAMICS)  min= -5.72488468481808E-01
DEBUG_STATS_RL:                  Gu (DYNAMICS)  max=  1.29794839679112E+00
DEBUG_STATS_RL:                  Gu (DYNAMICS) mean=  4.15935775907100E-04
DEBUG_STATS_RL:                  Gu (DYNAMICS) S.D.=  2.29726121159049E-02
DEBUG_STATS_RL:                  Gv (DYNAMICS)  min= -9.11805493053269E-01
DEBUG_STATS_RL:                  Gv (DYNAMICS)  max=  5.07510563190392E-01
DEBUG_STATS_RL:                  Gv (DYNAMICS) mean= -5.78500633358340E-04
DEBUG_STATS_RL:                  Gv (DYNAMICS) S.D.=  2.34372928095039E-02
DEBUG_STATS_RL:               GuNm1 (DYNAMICS)  min= -6.62871154195221E-05
DEBUG_STATS_RL:               GuNm1 (DYNAMICS)  max=  2.57742989807679E-05
DEBUG_STATS_RL:               GuNm1 (DYNAMICS) mean= -6.22329252787463E-08
DEBUG_STATS_RL:               GuNm1 (DYNAMICS) S.D.=  1.53768177132178E-06
DEBUG_STATS_RL:               GvNm1 (DYNAMICS)  min= -6.57224774510335E-05
DEBUG_STATS_RL:               GvNm1 (DYNAMICS)  max=  4.16631288323724E-05
DEBUG_STATS_RL:               GvNm1 (DYNAMICS) mean= -5.59433245178930E-08
DEBUG_STATS_RL:               GvNm1 (DYNAMICS) S.D.=  1.57532396920046E-06
DEBUG_STATS_RL:               GtNm1 (DYNAMICS)  min= -1.35311119243386E-05
DEBUG_STATS_RL:               GtNm1 (DYNAMICS)  max=  3.96586085827095E-06
DEBUG_STATS_RL:               GtNm1 (DYNAMICS) mean= -8.98081981655433E-10
DEBUG_STATS_RL:               GtNm1 (DYNAMICS) S.D.=  1.06428267488061E-07
DEBUG_STATS_RL:               GsNm1 (DYNAMICS)  min= -1.29800674359756E-05
DEBUG_STATS_RL:               GsNm1 (DYNAMICS)  max=  2.58675720316401E-06
DEBUG_STATS_RL:               GsNm1 (DYNAMICS) mean= -3.66990234211744E-09
DEBUG_STATS_RL:               GsNm1 (DYNAMICS) S.D.=  1.65025115165448E-07
(PID.TID 0000.0001) DEBUG_MSG: LEAVING S/R DYNAMICS
DEBUG_STATS_RL:    cg2d_b (SOLVE_FOR_PRESSURE)  min= -4.59130203768081E+05
DEBUG_STATS_RL:    cg2d_b (SOLVE_FOR_PRESSURE)  max=  3.97234506723814E+05
DEBUG_STATS_RL:    cg2d_b (SOLVE_FOR_PRESSURE) mean= -2.22439663938669E+03
DEBUG_STATS_RL:    cg2d_b (SOLVE_FOR_PRESSURE) S.D.=  1.40688120343733E+04
 cg2d: Sum(rhs),rhsMax =  -2.14140413011371E+01  8.79535720395831E+01
(PID.TID 0000.0001)  cg2d: iter=     1 ; resid.=  2.98685522403231E-02
(PID.TID 0000.0001)  cg2d: iter=     2 ; resid.=  3.79493925195519E-03
(PID.TID 0000.0001)  cg2d: iter=     3 ; resid.=  8.87433132302995E-04
(PID.TID 0000.0001)  cg2d: iter=     4 ; resid.=  2.41070417612225E-04
(PID.TID 0000.0001)  cg2d: iter=     5 ; resid.=  8.08052846771290E-05
(PID.TID 0000.0001)  cg2d: iter=     6 ; resid.=  1.93264118675462E-05
(PID.TID 0000.0001)  cg2d: iter=     7 ; resid.=  4.06904248033571E-06
(PID.TID 0000.0001)  cg2d: iter=     8 ; resid.=  8.92573684027115E-07
(PID.TID 0000.0001)  cg2d: iter=     9 ; resid.=  2.19211848992031E-07
(PID.TID 0000.0001)  cg2d: iter=    10 ; resid.=  5.31629235166632E-08
DEBUG_STATS_RL:    cg2d_x (SOLVE_FOR_PRESSURE)  min= -4.20485766949677E+01
DEBUG_STATS_RL:    cg2d_x (SOLVE_FOR_PRESSURE)  max=  3.94127627622389E+01
DEBUG_STATS_RL:    cg2d_x (SOLVE_FOR_PRESSURE) mean=  2.28467447371378E-01
DEBUG_STATS_RL:    cg2d_x (SOLVE_FOR_PRESSURE) S.D.=  1.36224440416757E+00
(PID.TID 0000.0001)      cg2d_init_res =   2.20887106146838E-01
(PID.TID 0000.0001)      cg2d_iters(min,last) =      -1      10
(PID.TID 0000.0001)      cg2d_last_res =   5.31629235166632E-08
(PID.TID 0000.0001) DEBUG_MSG: CALLING S/R UPDATE_ETAH
(PID.TID 0000.0001) DEBUG_MSG: ENTERED S/R CALC_R_STAR
(PID.TID 0000.0001) DEBUG_MSG: LEAVING S/R CALC_R_STAR
(PID.TID 0000.0001) DEBUG_MSG: CALLING S/R DO_STAGGER_FIELDS_EXCH.
(PID.TID 0000.0001) DEBUG_MSG: CALLING S/R THERMODYNAMICS
(PID.TID 0000.0001) DEBUG_MSG: ENTERED S/R THERMODYNAMICS
(PID.TID 0000.0001) DEBUG_MSG: CALLING S/R TEMP_INTEGRATE
(PID.TID 0000.0001) DEBUG_MSG: CALLING S/R SALT_INTEGRATE
DEBUG_STATS_RL:          Uvel (THERMODYNAMICS)  min= -5.30288641141822E-01
DEBUG_STATS_RL:          Uvel (THERMODYNAMICS)  max=  1.18157194756542E+00
DEBUG_STATS_RL:          Uvel (THERMODYNAMICS) mean=  4.25230505042813E-04
DEBUG_STATS_RL:          Uvel (THERMODYNAMICS) S.D.=  2.25018042788459E-02
DEBUG_STATS_RL:          Vvel (THERMODYNAMICS)  min= -9.31814889152908E-01
DEBUG_STATS_RL:          Vvel (THERMODYNAMICS)  max=  4.89426174684527E-01
DEBUG_STATS_RL:          Vvel (THERMODYNAMICS) mean= -5.65389236843230E-04
DEBUG_STATS_RL:          Vvel (THERMODYNAMICS) S.D.=  2.33351600543829E-02
DEBUG_STATS_RL:          Wvel (THERMODYNAMICS)  min= -4.17394533839296E-04
DEBUG_STATS_RL:          Wvel (THERMODYNAMICS)  max=  1.19825250693164E-04
DEBUG_STATS_RL:          Wvel (THERMODYNAMICS) mean= -5.30741349453573E-07
DEBUG_STATS_RL:          Wvel (THERMODYNAMICS) S.D.=  9.40197631276684E-06
DEBUG_STATS_RL:         Theta (THERMODYNAMICS)  min=  1.60928609041775E+01
DEBUG_STATS_RL:         Theta (THERMODYNAMICS)  max=  2.14583864494869E+01
DEBUG_STATS_RL:         Theta (THERMODYNAMICS) mean=  1.99973212800636E+01
DEBUG_STATS_RL:         Theta (THERMODYNAMICS) S.D.=  6.24691871027824E-02
DEBUG_STATS_RL:          Salt (THERMODYNAMICS)  min=  2.92047491241610E+01
DEBUG_STATS_RL:          Salt (THERMODYNAMICS)  max=  3.51483146747078E+01
DEBUG_STATS_RL:          Salt (THERMODYNAMICS) mean=  3.49985746529689E+01
DEBUG_STATS_RL:          Salt (THERMODYNAMICS) S.D.=  6.49345633579387E-02
DEBUG_STATS_RL:         GtNm1 (THERMODYNAMICS)  min= -1.09024136317607E-05
DEBUG_STATS_RL:         GtNm1 (THERMODYNAMICS)  max=  4.45249043809591E-06
DEBUG_STATS_RL:         GtNm1 (THERMODYNAMICS) mean= -4.33237885104169E-10
DEBUG_STATS_RL:         GtNm1 (THERMODYNAMICS) S.D.=  9.14738961941367E-08
DEBUG_STATS_RL:         GsNm1 (THERMODYNAMICS)  min= -1.32995230596175E-05
DEBUG_STATS_RL:         GsNm1 (THERMODYNAMICS)  max=  2.39824539595654E-06
DEBUG_STATS_RL:         GsNm1 (THERMODYNAMICS) mean= -3.74232937136163E-09
DEBUG_STATS_RL:         GsNm1 (THERMODYNAMICS) S.D.=  1.68700857687075E-07
(PID.TID 0000.0001) DEBUG_MSG: LEAVING S/R THERMODYNAMICS
(PID.TID 0000.0001) // =======================================================
(PID.TID 0000.0001) // Begin MONITOR dynamic field statistics
(PID.TID 0000.0001) // =======================================================
(PID.TID 0000.0001) %MON time_tsnumber                =                    22
(PID.TID 0000.0001) %MON time_secondsf                =   1.9800000000000E+04
(PID.TID 0000.0001) %MON dynstat_eta_max              =   4.0176108827033E+00
(PID.TID 0000.0001) %MON dynstat_eta_min              =  -4.2862973247769E+00
(PID.TID 0000.0001) %MON dynstat_eta_mean             =   2.1885339660541E-02
(PID.TID 0000.0001) %MON dynstat_eta_sd               =   1.3551477908552E-01
(PID.TID 0000.0001) %MON dynstat_eta_del2             =   3.8551635003954E-03
(PID.TID 0000.0001) %MON dynstat_uvel_max             =   1.1815719475654E+00
(PID.TID 0000.0001) %MON dynstat_uvel_min             =  -5.3028864114182E-01
(PID.TID 0000.0001) %MON dynstat_uvel_mean            =   4.3432286161870E-04
(PID.TID 0000.0001) %MON dynstat_uvel_sd              =   7.4826176205495E-03
(PID.TID 0000.0001) %MON dynstat_uvel_del2            =   1.1323618671155E-04
(PID.TID 0000.0001) %MON dynstat_vvel_max             =   4.8942617468453E-01
(PID.TID 0000.0001) %MON dynstat_vvel_min             =  -9.3181488915291E-01
(PID.TID 0000.0001) %MON dynstat_vvel_mean            =   1.6764424128528E-05
(PID.TID 0000.0001) %MON dynstat_vvel_sd              =   7.6641867188192E-03
(PID.TID 0000.0001) %MON dynstat_vvel_del2            =   1.1431134933401E-04
(PID.TID 0000.0001) %MON dynstat_wvel_max             =   1.1982525069316E-04
(PID.TID 0000.0001) %MON dynstat_wvel_min             =  -4.1739453383930E-04
(PID.TID 0000.0001) %MON dynstat_wvel_mean            =  -3.8376694411116E-07
(PID.TID 0000.0001) %MON dynstat_wvel_sd              =   8.8313622448194E-06
(PID.TID 0000.0001) %MON dynstat_wvel_del2            =   7.6783888161542E-08
(PID.TID 0000.0001) %MON dynstat_theta_max            =   2.1458386449487E+01
(PID.TID 0000.0001) %MON dynstat_theta_min            =   1.6092860904177E+01
(PID.TID 0000.0001) %MON dynstat_theta_mean           =   1.9997814637011E+01
(PID.TID 0000.0001) %MON dynstat_theta_sd             =   2.1272451924828E-02
(PID.TID 0000.0001) %MON dynstat_theta_del2           =   4.0319855429470E-04
(PID.TID 0000.0001) %MON dynstat_salt_max             =   3.5148314674708E+01
(PID.TID 0000.0001) %MON dynstat_salt_min             =   2.9204749124161E+01
(PID.TID 0000.0001) %MON dynstat_salt_mean            =   3.4999793166183E+01
(PID.TID 0000.0001) %MON dynstat_salt_sd              =   2.0066719157547E-02
(PID.TID 0000.0001) %MON dynstat_salt_del2            =   7.0379453171386E-04
(PID.TID 0000.0001) %MON dynstat_sst_max              =   2.1458386449487E+01
(PID.TID 0000.0001) %MON dynstat_sst_min              =   1.6097511320441E+01
(PID.TID 0000.0001) %MON dynstat_sst_mean             =   2.0055103947836E+01
(PID.TID 0000.0001) %MON dynstat_sst_sd               =   1.7844163006540E-01
(PID.TID 0000.0001) %MON dynstat_sst_del2             =   4.1326180515568E-03
(PID.TID 0000.0001) %MON dynstat_sss_max              =   3.5148314674708E+01
(PID.TID 0000.0001) %MON dynstat_sss_min              =   2.9204749124161E+01
(PID.TID 0000.0001) %MON dynstat_sss_mean             =   3.4984020852170E+01
(PID.TID 0000.0001) %MON dynstat_sss_sd               =   2.4182895971186E-01
(PID.TID 0000.0001) %MON dynstat_sss_del2             =   9.5351414677901E-03
(PID.TID 0000.0001) %MON forcing_qnet_max             =   5.3108938853837E+03
(PID.TID 0000.0001) %MON forcing_qnet_min             =  -6.5260063476562E+03
(PID.TID 0000.0001) %MON forcing_qnet_mean            =  -1.1708443581669E+02
(PID.TID 0000.0001) %MON forcing_qnet_sd              =   6.8090802036134E+02
(PID.TID 0000.0001) %MON forcing_qnet_del2            =   1.2800318960021E+01
(PID.TID 0000.0001) %MON forcing_qsw_max              =   0.0000000000000E+00
(PID.TID 0000.0001) %MON forcing_qsw_min              =  -1.1201481314707E+02
(PID.TID 0000.0001) %MON forcing_qsw_mean             =  -1.9477682740960E+01
(PID.TID 0000.0001) %MON forcing_qsw_sd               =   2.7888666765334E+01
(PID.TID 0000.0001) %MON forcing_qsw_del2             =   2.6764953606308E-01
(PID.TID 0000.0001) %MON forcing_empmr_max            =   8.9250216260552E-03
(PID.TID 0000.0001) %MON forcing_empmr_min            =  -1.2827450037003E-01
(PID.TID 0000.0001) %MON forcing_empmr_mean           =  -5.2788650383403E-04
(PID.TID 0000.0001) %MON forcing_empmr_sd             =   5.6641947727563E-03
(PID.TID 0000.0001) %MON forcing_empmr_del2           =   2.2309137617564E-04
(PID.TID 0000.0001) %MON forcing_fu_max               =   9.0055826790126E-01
(PID.TID 0000.0001) %MON forcing_fu_min               =  -6.2397528593895E-01
(PID.TID 0000.0001) %MON forcing_fu_mean              =  -3.7411601410882E-04
(PID.TID 0000.0001) %MON forcing_fu_sd                =   1.0092664739276E-01
(PID.TID 0000.0001) %MON forcing_fu_del2              =   8.4176850255313E-04
(PID.TID 0000.0001) %MON forcing_fv_max               =   4.8252125935771E-01
(PID.TID 0000.0001) %MON forcing_fv_min               =  -5.3518801935060E-01
(PID.TID 0000.0001) %MON forcing_fv_mean              =  -3.6452076722249E-03
(PID.TID 0000.0001) %MON forcing_fv_sd                =   8.4878981851262E-02
(PID.TID 0000.0001) %MON forcing_fv_del2              =   7.4135483951494E-04
(PID.TID 0000.0001) %MON trAdv_CFL_u_max              =   3.9619109121250E-03
(PID.TID 0000.0001) %MON trAdv_CFL_v_max              =   3.0453471495747E-03
(PID.TID 0000.0001) %MON trAdv_CFL_w_max              =   4.7124748380205E-03
(PID.TID 0000.0001) %MON advcfl_uvel_max              =   3.9402667051959E-03
(PID.TID 0000.0001) %MON advcfl_vvel_max              =   3.1840163710577E-03
(PID.TID 0000.0001) %MON advcfl_wvel_max              =   8.9234435040018E-03
(PID.TID 0000.0001) %MON advcfl_W_hf_max              =   4.7124748380205E-03
(PID.TID 0000.0001) %MON pe_b_mean                    =   2.5102509699920E-05
(PID.TID 0000.0001) %MON ke_max                       =   5.8925580961267E-01
(PID.TID 0000.0001) %MON ke_mean                      =   5.3061977659136E-05
(PID.TID 0000.0001) %MON ke_vol                       =   1.3398102421120E+18
(PID.TID 0000.0001) %MON vort_r_min                   =  -7.8588962396991E-06
(PID.TID 0000.0001) %MON vort_r_max                   =   2.9523978602150E-06
(PID.TID 0000.0001) %MON vort_a_mean                  =  -2.0549865324846E-05
(PID.TID 0000.0001) %MON vort_a_sd                    =   7.5259254358314E-05
(PID.TID 0000.0001) %MON vort_p_mean                  =  -2.4783379920440E-05
(PID.TID 0000.0001) %MON vort_p_sd                    =   1.2810573874042E-04
(PID.TID 0000.0001) %MON surfExpan_theta_mean         =   1.2486714738914E-07
(PID.TID 0000.0001) %MON surfExpan_salt_mean          =   1.3418383405610E-06
(PID.TID 0000.0001) // =======================================================
(PID.TID 0000.0001) // End MONITOR dynamic field statistics
(PID.TID 0000.0001) // =======================================================
(PID.TID 0000.0001) DEBUG_MSG: LEAVING S/R FORWARD_STEP
(PID.TID 0000.0001) DEBUG_MSG: ENTERED S/R FORWARD_STEP
(PID.TID 0000.0001) DEBUG_MSG: CALLING S/R LOAD_FIELDS_DRIVER
(PID.TID 0000.0001) DEBUG_MSG: ENTERED S/R LOAD_FIELDS_DRIVER
(PID.TID 0000.0001) DEBUG_MSG: CALLING S/R EXTERNAL_FIELDS_LOAD
(PID.TID 0000.0001) DEBUG_MSG: LEAVING S/R LOAD_FIELDS_DRIVER
(PID.TID 0000.0001) DEBUG_MSG: CALLING S/R DO_ATMOSPHERIC_PHYS
(PID.TID 0000.0001) DEBUG_MSG: ENTERED S/R DO_ATMOSPHERIC_PHYS
(PID.TID 0000.0001) DEBUG_MSG: LEAVING S/R DO_ATMOSPHERIC_PHYS
(PID.TID 0000.0001) DEBUG_MSG: CALLING S/R DO_OCEANIC_PHYS
(PID.TID 0000.0001) DEBUG_MSG: ENTERED S/R DO_OCEANIC_PHYS
(PID.TID 0000.0001) DEBUG_MSG: CALLING S/R EXTERNAL_FORCING_SURF
(PID.TID 0000.0001) DEBUG_MSG: CALLING S/R FIND_RHO_2D (xNr)
(PID.TID 0000.0001) DEBUG_MSG:                  ENTERING UPWARD K LOOP (bi=   1, bj=   1)
(PID.TID 0000.0001) DEBUG_MSG: CALLING S/R GRAD_SIGMA
(PID.TID 0000.0001) DEBUG_MSG: CALLING S/R CALC_IVDC
(PID.TID 0000.0001) DEBUG_MSG: CALLING S/R GRAD_SIGMA
(PID.TID 0000.0001) DEBUG_MSG: CALLING S/R CALC_IVDC
(PID.TID 0000.0001) DEBUG_MSG: CALLING S/R GRAD_SIGMA
(PID.TID 0000.0001) DEBUG_MSG: CALLING S/R CALC_IVDC
(PID.TID 0000.0001) DEBUG_MSG: CALLING S/R GRAD_SIGMA
(PID.TID 0000.0001) DEBUG_MSG: CALLING S/R CALC_IVDC
(PID.TID 0000.0001) DEBUG_MSG: CALLING S/R GRAD_SIGMA
(PID.TID 0000.0001) DEBUG_MSG: CALLING S/R CALC_IVDC
(PID.TID 0000.0001) DEBUG_MSG: CALLING S/R GRAD_SIGMA
(PID.TID 0000.0001) DEBUG_MSG: CALLING S/R CALC_IVDC
(PID.TID 0000.0001) DEBUG_MSG: CALLING S/R GRAD_SIGMA
(PID.TID 0000.0001) DEBUG_MSG: CALLING S/R CALC_IVDC
(PID.TID 0000.0001) DEBUG_MSG: CALLING S/R GRAD_SIGMA
(PID.TID 0000.0001) DEBUG_MSG: CALLING S/R CALC_IVDC
(PID.TID 0000.0001) DEBUG_MSG: CALLING S/R GRAD_SIGMA
(PID.TID 0000.0001) DEBUG_MSG: CALLING S/R CALC_IVDC
(PID.TID 0000.0001) DEBUG_MSG: CALLING S/R GRAD_SIGMA
(PID.TID 0000.0001) DEBUG_MSG: CALLING S/R CALC_IVDC
(PID.TID 0000.0001) DEBUG_MSG: CALLING S/R GRAD_SIGMA
(PID.TID 0000.0001) DEBUG_MSG: CALLING S/R CALC_IVDC
(PID.TID 0000.0001) DEBUG_MSG: CALLING S/R GRAD_SIGMA
(PID.TID 0000.0001) DEBUG_MSG: CALLING S/R CALC_IVDC
(PID.TID 0000.0001) DEBUG_MSG: CALLING S/R GRAD_SIGMA
(PID.TID 0000.0001) DEBUG_MSG: CALLING S/R CALC_IVDC
(PID.TID 0000.0001) DEBUG_MSG: CALLING S/R GRAD_SIGMA
(PID.TID 0000.0001) DEBUG_MSG: CALLING S/R CALC_IVDC
(PID.TID 0000.0001) DEBUG_MSG: CALLING S/R GRAD_SIGMA
(PID.TID 0000.0001) DEBUG_MSG: CALLING S/R CALC_IVDC
(PID.TID 0000.0001) DEBUG_MSG: CALLING S/R GRAD_SIGMA
(PID.TID 0000.0001) DEBUG_MSG: CALLING S/R GMREDI_CALC_TENSOR
(PID.TID 0000.0001) DEBUG_MSG: LEAVING S/R DO_OCEANIC_PHYS
(PID.TID 0000.0001) DEBUG_MSG: CALLING S/R DYNAMICS
(PID.TID 0000.0001) DEBUG_MSG: ENTERED S/R DYNAMICS
DEBUG_STATS_RL:                EtaN (DYNAMICS)  min= -4.28629732477693E+00
DEBUG_STATS_RL:                EtaN (DYNAMICS)  max=  4.01761088270329E+00
DEBUG_STATS_RL:                EtaN (DYNAMICS) mean=  2.32892404859584E-02
DEBUG_STATS_RL:                EtaN (DYNAMICS) S.D.=  1.38862834292232E-01
DEBUG_STATS_RL:                Uvel (DYNAMICS)  min= -5.30288641141822E-01
DEBUG_STATS_RL:                Uvel (DYNAMICS)  max=  1.18157194756542E+00
DEBUG_STATS_RL:                Uvel (DYNAMICS) mean=  4.25230505042813E-04
DEBUG_STATS_RL:                Uvel (DYNAMICS) S.D.=  2.25018042788459E-02
DEBUG_STATS_RL:                Vvel (DYNAMICS)  min= -9.31814889152908E-01
DEBUG_STATS_RL:                Vvel (DYNAMICS)  max=  4.89426174684527E-01
DEBUG_STATS_RL:                Vvel (DYNAMICS) mean= -5.65389236843230E-04
DEBUG_STATS_RL:                Vvel (DYNAMICS) S.D.=  2.33351600543829E-02
DEBUG_STATS_RL:                Wvel (DYNAMICS)  min= -4.17394533839296E-04
DEBUG_STATS_RL:                Wvel (DYNAMICS)  max=  1.19825250693164E-04
DEBUG_STATS_RL:                Wvel (DYNAMICS) mean= -5.30741349453573E-07
DEBUG_STATS_RL:                Wvel (DYNAMICS) S.D.=  9.40197631276684E-06
DEBUG_STATS_RL:               Theta (DYNAMICS)  min=  1.60928609041775E+01
DEBUG_STATS_RL:               Theta (DYNAMICS)  max=  2.14583864494869E+01
DEBUG_STATS_RL:               Theta (DYNAMICS) mean=  1.99973212800636E+01
DEBUG_STATS_RL:               Theta (DYNAMICS) S.D.=  6.24691871027824E-02
DEBUG_STATS_RL:                Salt (DYNAMICS)  min=  2.92047491241610E+01
DEBUG_STATS_RL:                Salt (DYNAMICS)  max=  3.51483146747078E+01
DEBUG_STATS_RL:                Salt (DYNAMICS) mean=  3.49985746529689E+01
DEBUG_STATS_RL:                Salt (DYNAMICS) S.D.=  6.49345633579387E-02
DEBUG_STATS_RL:                  Gu (DYNAMICS)  min= -5.24402075793703E-01
DEBUG_STATS_RL:                  Gu (DYNAMICS)  max=  1.12411672099556E+00
DEBUG_STATS_RL:                  Gu (DYNAMICS) mean=  3.65970274884425E-04
DEBUG_STATS_RL:                  Gu (DYNAMICS) S.D.=  2.24139805871498E-02
DEBUG_STATS_RL:                  Gv (DYNAMICS)  min= -9.40223335369885E-01
DEBUG_STATS_RL:                  Gv (DYNAMICS)  max=  5.20265352569575E-01
DEBUG_STATS_RL:                  Gv (DYNAMICS) mean= -6.15733957762065E-04
DEBUG_STATS_RL:                  Gv (DYNAMICS) S.D.=  2.38129903530445E-02
DEBUG_STATS_RL:               GuNm1 (DYNAMICS)  min= -6.37613016731067E-05
DEBUG_STATS_RL:               GuNm1 (DYNAMICS)  max=  2.57607848735308E-05
DEBUG_STATS_RL:               GuNm1 (DYNAMICS) mean= -6.48297151894130E-08
DEBUG_STATS_RL:               GuNm1 (DYNAMICS) S.D.=  1.56269566256468E-06
DEBUG_STATS_RL:               GvNm1 (DYNAMICS)  min= -5.95431138440634E-05
DEBUG_STATS_RL:               GvNm1 (DYNAMICS)  max=  4.23519655244257E-05
DEBUG_STATS_RL:               GvNm1 (DYNAMICS) mean= -5.63698901970433E-08
DEBUG_STATS_RL:               GvNm1 (DYNAMICS) S.D.=  1.51746254771933E-06
DEBUG_STATS_RL:               GtNm1 (DYNAMICS)  min= -1.09024136317607E-05
DEBUG_STATS_RL:               GtNm1 (DYNAMICS)  max=  4.45249043809591E-06
DEBUG_STATS_RL:               GtNm1 (DYNAMICS) mean= -4.33237885104169E-10
DEBUG_STATS_RL:               GtNm1 (DYNAMICS) S.D.=  9.14738961941367E-08
DEBUG_STATS_RL:               GsNm1 (DYNAMICS)  min= -1.32995230596175E-05
DEBUG_STATS_RL:               GsNm1 (DYNAMICS)  max=  2.39824539595654E-06
DEBUG_STATS_RL:               GsNm1 (DYNAMICS) mean= -3.74232937136163E-09
DEBUG_STATS_RL:               GsNm1 (DYNAMICS) S.D.=  1.68700857687075E-07
(PID.TID 0000.0001) DEBUG_MSG: LEAVING S/R DYNAMICS
DEBUG_STATS_RL:    cg2d_b (SOLVE_FOR_PRESSURE)  min= -4.46755441195565E+05
DEBUG_STATS_RL:    cg2d_b (SOLVE_FOR_PRESSURE)  max=  4.11483695491454E+05
DEBUG_STATS_RL:    cg2d_b (SOLVE_FOR_PRESSURE) mean= -2.27074929526678E+03
DEBUG_STATS_RL:    cg2d_b (SOLVE_FOR_PRESSURE) S.D.=  1.41671950355660E+04
 cg2d: Sum(rhs),rhsMax =  -2.24657854378223E+01  8.55829927083563E+01
(PID.TID 0000.0001)  cg2d: iter=     1 ; resid.=  3.04367896072829E-02
(PID.TID 0000.0001)  cg2d: iter=     2 ; resid.=  3.65720284850898E-03
(PID.TID 0000.0001)  cg2d: iter=     3 ; resid.=  8.47267757148491E-04
(PID.TID 0000.0001)  cg2d: iter=     4 ; resid.=  2.60913594815133E-04
(PID.TID 0000.0001)  cg2d: iter=     5 ; resid.=  8.02418108712288E-05
(PID.TID 0000.0001)  cg2d: iter=     6 ; resid.=  1.83743956922508E-05
(PID.TID 0000.0001)  cg2d: iter=     7 ; resid.=  4.03308226670972E-06
(PID.TID 0000.0001)  cg2d: iter=     8 ; resid.=  8.45142009054379E-07
(PID.TID 0000.0001)  cg2d: iter=     9 ; resid.=  2.01789023467318E-07
(PID.TID 0000.0001)  cg2d: iter=    10 ; resid.=  5.39276891166015E-08
DEBUG_STATS_RL:    cg2d_x (SOLVE_FOR_PRESSURE)  min= -4.35522686484713E+01
DEBUG_STATS_RL:    cg2d_x (SOLVE_FOR_PRESSURE)  max=  3.83513401859477E+01
DEBUG_STATS_RL:    cg2d_x (SOLVE_FOR_PRESSURE) mean=  2.33613670464943E-01
DEBUG_STATS_RL:    cg2d_x (SOLVE_FOR_PRESSURE) S.D.=  1.37244608795690E+00
(PID.TID 0000.0001)      cg2d_init_res =   2.09379472307556E-01
(PID.TID 0000.0001)      cg2d_iters(min,last) =      -1      10
(PID.TID 0000.0001)      cg2d_last_res =   5.39276891166015E-08
(PID.TID 0000.0001) DEBUG_MSG: CALLING S/R UPDATE_ETAH
(PID.TID 0000.0001) DEBUG_MSG: ENTERED S/R CALC_R_STAR
(PID.TID 0000.0001) DEBUG_MSG: LEAVING S/R CALC_R_STAR
(PID.TID 0000.0001) DEBUG_MSG: CALLING S/R DO_STAGGER_FIELDS_EXCH.
(PID.TID 0000.0001) DEBUG_MSG: CALLING S/R THERMODYNAMICS
(PID.TID 0000.0001) DEBUG_MSG: ENTERED S/R THERMODYNAMICS
(PID.TID 0000.0001) DEBUG_MSG: CALLING S/R TEMP_INTEGRATE
(PID.TID 0000.0001) DEBUG_MSG: CALLING S/R SALT_INTEGRATE
DEBUG_STATS_RL:          Uvel (THERMODYNAMICS)  min= -5.18381092527178E-01
DEBUG_STATS_RL:          Uvel (THERMODYNAMICS)  max=  1.00074782175334E+00
DEBUG_STATS_RL:          Uvel (THERMODYNAMICS) mean=  3.70246783087512E-04
DEBUG_STATS_RL:          Uvel (THERMODYNAMICS) S.D.=  2.20042558997314E-02
DEBUG_STATS_RL:          Vvel (THERMODYNAMICS)  min= -9.53799978044583E-01
DEBUG_STATS_RL:          Vvel (THERMODYNAMICS)  max=  5.19888407733609E-01
DEBUG_STATS_RL:          Vvel (THERMODYNAMICS) mean= -6.04373970223421E-04
DEBUG_STATS_RL:          Vvel (THERMODYNAMICS) S.D.=  2.38276567934375E-02
DEBUG_STATS_RL:          Wvel (THERMODYNAMICS)  min= -4.44139452786614E-04
DEBUG_STATS_RL:          Wvel (THERMODYNAMICS)  max=  1.20748683528176E-04
DEBUG_STATS_RL:          Wvel (THERMODYNAMICS) mean= -5.24500826605533E-07
DEBUG_STATS_RL:          Wvel (THERMODYNAMICS) S.D.=  9.34675477047249E-06
DEBUG_STATS_RL:         Theta (THERMODYNAMICS)  min=  1.60868741555213E+01
DEBUG_STATS_RL:         Theta (THERMODYNAMICS)  max=  2.15152362275888E+01
DEBUG_STATS_RL:         Theta (THERMODYNAMICS) mean=  1.99975327799747E+01
DEBUG_STATS_RL:         Theta (THERMODYNAMICS) S.D.=  6.32128185922903E-02
DEBUG_STATS_RL:          Salt (THERMODYNAMICS)  min=  2.90164767690855E+01
DEBUG_STATS_RL:          Salt (THERMODYNAMICS)  max=  3.51491756437534E+01
DEBUG_STATS_RL:          Salt (THERMODYNAMICS) mean=  3.49985294620554E+01
DEBUG_STATS_RL:          Salt (THERMODYNAMICS) S.D.=  6.70775391903430E-02
DEBUG_STATS_RL:         GtNm1 (THERMODYNAMICS)  min= -8.30910232478753E-06
DEBUG_STATS_RL:         GtNm1 (THERMODYNAMICS)  max=  4.82374483844482E-06
DEBUG_STATS_RL:         GtNm1 (THERMODYNAMICS) mean=  1.64277286364692E-11
DEBUG_STATS_RL:         GtNm1 (THERMODYNAMICS) S.D.=  7.75324590959633E-08
DEBUG_STATS_RL:         GsNm1 (THERMODYNAMICS)  min= -1.35985129711513E-05
DEBUG_STATS_RL:         GsNm1 (THERMODYNAMICS)  max=  2.33134799534799E-06
DEBUG_STATS_RL:         GsNm1 (THERMODYNAMICS) mean= -3.80887870185943E-09
DEBUG_STATS_RL:         GsNm1 (THERMODYNAMICS) S.D.=  1.72044638385807E-07
(PID.TID 0000.0001) DEBUG_MSG: LEAVING S/R THERMODYNAMICS
(PID.TID 0000.0001) // =======================================================
(PID.TID 0000.0001) // Begin MONITOR dynamic field statistics
(PID.TID 0000.0001) // =======================================================
(PID.TID 0000.0001) %MON time_tsnumber                =                    23
(PID.TID 0000.0001) %MON time_secondsf                =   2.0700000000000E+04
(PID.TID 0000.0001) %MON dynstat_eta_max              =   3.9094128615978E+00
(PID.TID 0000.0001) %MON dynstat_eta_min              =  -4.4395788675662E+00
(PID.TID 0000.0001) %MON dynstat_eta_mean             =   2.2341393046049E-02
(PID.TID 0000.0001) %MON dynstat_eta_sd               =   1.3651792988749E-01
(PID.TID 0000.0001) %MON dynstat_eta_del2             =   3.8530409154212E-03
(PID.TID 0000.0001) %MON dynstat_uvel_max             =   1.0007478217533E+00
(PID.TID 0000.0001) %MON dynstat_uvel_min             =  -5.1838109252718E-01
(PID.TID 0000.0001) %MON dynstat_uvel_mean            =   4.2110000577633E-04
(PID.TID 0000.0001) %MON dynstat_uvel_sd              =   7.3103221252719E-03
(PID.TID 0000.0001) %MON dynstat_uvel_del2            =   1.0710337834650E-04
(PID.TID 0000.0001) %MON dynstat_vvel_max             =   5.1988840773361E-01
(PID.TID 0000.0001) %MON dynstat_vvel_min             =  -9.5379997804458E-01
(PID.TID 0000.0001) %MON dynstat_vvel_mean            =   7.9311284595877E-06
(PID.TID 0000.0001) %MON dynstat_vvel_sd              =   7.8094802152794E-03
(PID.TID 0000.0001) %MON dynstat_vvel_del2            =   1.1517388133304E-04
(PID.TID 0000.0001) %MON dynstat_wvel_max             =   1.2074868352818E-04
(PID.TID 0000.0001) %MON dynstat_wvel_min             =  -4.4413945278661E-04
(PID.TID 0000.0001) %MON dynstat_wvel_mean            =  -3.8178721266065E-07
(PID.TID 0000.0001) %MON dynstat_wvel_sd              =   8.7669985543417E-06
(PID.TID 0000.0001) %MON dynstat_wvel_del2            =   7.6307416003110E-08
(PID.TID 0000.0001) %MON dynstat_theta_max            =   2.1515236227589E+01
(PID.TID 0000.0001) %MON dynstat_theta_min            =   1.6086874155521E+01
(PID.TID 0000.0001) %MON dynstat_theta_mean           =   1.9997821339895E+01
(PID.TID 0000.0001) %MON dynstat_theta_sd             =   2.1474276830121E-02
(PID.TID 0000.0001) %MON dynstat_theta_del2           =   4.0635573638959E-04
(PID.TID 0000.0001) %MON dynstat_salt_max             =   3.5149175643753E+01
(PID.TID 0000.0001) %MON dynstat_salt_min             =   2.9016476769086E+01
(PID.TID 0000.0001) %MON dynstat_salt_mean            =   3.4999788084791E+01
(PID.TID 0000.0001) %MON dynstat_salt_sd              =   2.0726339614878E-02
(PID.TID 0000.0001) %MON dynstat_salt_del2            =   7.2678518192656E-04
(PID.TID 0000.0001) %MON dynstat_sst_max              =   2.1515236227589E+01
(PID.TID 0000.0001) %MON dynstat_sst_min              =   1.6090342043955E+01
(PID.TID 0000.0001) %MON dynstat_sst_mean             =   2.0057880084199E+01
(PID.TID 0000.0001) %MON dynstat_sst_sd               =   1.8129753824605E-01
(PID.TID 0000.0001) %MON dynstat_sst_del2             =   4.1857211829080E-03
(PID.TID 0000.0001) %MON dynstat_sss_max              =   3.5149175643753E+01
(PID.TID 0000.0001) %MON dynstat_sss_min              =   2.9016476769086E+01
(PID.TID 0000.0001) %MON dynstat_sss_mean             =   3.4983424233532E+01
(PID.TID 0000.0001) %MON dynstat_sss_sd               =   2.4982947809829E-01
(PID.TID 0000.0001) %MON dynstat_sss_del2             =   9.8467544436188E-03
(PID.TID 0000.0001) %MON forcing_qnet_max             =   5.2351342773438E+03
(PID.TID 0000.0001) %MON forcing_qnet_min             =  -6.6649531250000E+03
(PID.TID 0000.0001) %MON forcing_qnet_mean            =  -1.1131516584087E+02
(PID.TID 0000.0001) %MON forcing_qnet_sd              =   6.7572185741461E+02
(PID.TID 0000.0001) %MON forcing_qnet_del2            =   1.3122503998750E+01
(PID.TID 0000.0001) %MON forcing_qsw_max              =   0.0000000000000E+00
(PID.TID 0000.0001) %MON forcing_qsw_min              =  -1.1206563157401E+02
(PID.TID 0000.0001) %MON forcing_qsw_mean             =  -1.9189982871253E+01
(PID.TID 0000.0001) %MON forcing_qsw_sd               =   2.7532799751444E+01
(PID.TID 0000.0001) %MON forcing_qsw_del2             =   2.6845432781703E-01
(PID.TID 0000.0001) %MON forcing_empmr_max            =   8.8330144062638E-03
(PID.TID 0000.0001) %MON forcing_empmr_min            =  -1.2695378065109E-01
(PID.TID 0000.0001) %MON forcing_empmr_mean           =  -5.2446139333374E-04
(PID.TID 0000.0001) %MON forcing_empmr_sd             =   5.6076842873629E-03
(PID.TID 0000.0001) %MON forcing_empmr_del2           =   2.2084358248872E-04
(PID.TID 0000.0001) %MON forcing_fu_max               =   8.9430640754854E-01
(PID.TID 0000.0001) %MON forcing_fu_min               =  -6.2665074776464E-01
(PID.TID 0000.0001) %MON forcing_fu_mean              =  -2.9375115514903E-04
(PID.TID 0000.0001) %MON forcing_fu_sd                =   1.0032769801061E-01
(PID.TID 0000.0001) %MON forcing_fu_del2              =   8.3441620098265E-04
(PID.TID 0000.0001) %MON forcing_fv_max               =   4.8276911508214E-01
(PID.TID 0000.0001) %MON forcing_fv_min               =  -5.2232446105458E-01
(PID.TID 0000.0001) %MON forcing_fv_mean              =  -3.6012911677039E-03
(PID.TID 0000.0001) %MON forcing_fv_sd                =   8.4195552033187E-02
(PID.TID 0000.0001) %MON forcing_fv_del2              =   7.3277275446614E-04
(PID.TID 0000.0001) %MON trAdv_CFL_u_max              =   3.3618940720908E-03
(PID.TID 0000.0001) %MON trAdv_CFL_v_max              =   3.1215036739841E-03
(PID.TID 0000.0001) %MON trAdv_CFL_w_max              =   4.6752998589674E-03
(PID.TID 0000.0001) %MON advcfl_uvel_max              =   3.3372604440016E-03
(PID.TID 0000.0001) %MON advcfl_vvel_max              =   3.2591395352882E-03
(PID.TID 0000.0001) %MON advcfl_wvel_max              =   8.8315673496412E-03
(PID.TID 0000.0001) %MON advcfl_W_hf_max              =   4.6752998589674E-03
(PID.TID 0000.0001) %MON pe_b_mean                    =   2.5492913768404E-05
(PID.TID 0000.0001) %MON ke_max                       =   5.2758945208852E-01
(PID.TID 0000.0001) %MON ke_mean                      =   5.2928864994964E-05
(PID.TID 0000.0001) %MON ke_vol                       =   1.3398104091476E+18
(PID.TID 0000.0001) %MON vort_r_min                   =  -7.2714297449020E-06
(PID.TID 0000.0001) %MON vort_r_max                   =   2.9442349273750E-06
(PID.TID 0000.0001) %MON vort_a_mean                  =  -2.0549865324846E-05
(PID.TID 0000.0001) %MON vort_a_sd                    =   7.5259250343311E-05
(PID.TID 0000.0001) %MON vort_p_mean                  =  -2.4783376610814E-05
(PID.TID 0000.0001) %MON vort_p_sd                    =   1.2810569202825E-04
(PID.TID 0000.0001) %MON surfExpan_theta_mean         =  -3.3445917926926E-08
(PID.TID 0000.0001) %MON surfExpan_salt_mean          =   1.3660366478373E-06
(PID.TID 0000.0001) // =======================================================
(PID.TID 0000.0001) // End MONITOR dynamic field statistics
(PID.TID 0000.0001) // =======================================================
 Computing Diagnostic #     81  oceTAUX      Counter:       1   Parms: UU      U1      
           Vector  Mate for  oceTAUX      Diagnostic #     82  oceTAUY  exists 
(PID.TID 0000.0001)  MDS_WRITE_FIELD: it,rec,kS,kL,kH=      22    -1  32   1   1 file=oceTAUX.0000000022
 Computing Diagnostic #     82  oceTAUY      Counter:       1   Parms: VV      U1      
           Vector  Mate for  oceTAUY      Diagnostic #     81  oceTAUX  exists 
(PID.TID 0000.0001)  MDS_WRITE_FIELD: it,rec,kS,kL,kH=      22    -1  32   1   1 file=oceTAUY.0000000022
 Computing Diagnostic #     85  oceFWflx     Counter:       1   Parms: SM      U1      
(PID.TID 0000.0001)  MDS_WRITE_FIELD: it,rec,kS,kL,kH=      22    -1  32   1   1 file=oceFWflx.0000000022
 Computing Diagnostic #     86  oceSflux     Counter:       1   Parms: SM      U1      
(PID.TID 0000.0001)  MDS_WRITE_FIELD: it,rec,kS,kL,kH=      22    -1  32   1   1 file=oceSflux.0000000022
 Computing Diagnostic #     87  oceQnet      Counter:       1   Parms: SM      U1      
(PID.TID 0000.0001)  MDS_WRITE_FIELD: it,rec,kS,kL,kH=      22    -1  32   1   1 file=oceQnet.0000000022
 Computing Diagnostic #     88  oceQsw       Counter:       1   Parms: SM      U1      
(PID.TID 0000.0001)  MDS_WRITE_FIELD: it,rec,kS,kL,kH=      22    -1  32   1   1 file=oceQsw.0000000022
 Computing Diagnostic #     27  SALT         Counter:       1   Parms: SMR     MR      
(PID.TID 0000.0001)  MDS_WRITE_FIELD: it,rec,kS,kL,kH=      22    -1  32   1   1 file=SSS.0000000022
 Computing Diagnostic #     26  THETA        Counter:       1   Parms: SMR     MR      
(PID.TID 0000.0001)  MDS_WRITE_FIELD: it,rec,kS,kL,kH=      22    -1  32   1   1 file=SST.0000000022
 Computing Diagnostic #     45  UVELMASS     Counter:       1   Parms: UUr     MR      
           Vector  Mate for  UVELMASS     Diagnostic #     46  VVELMASS exists 
(PID.TID 0000.0001)  MDS_WRITE_FIELD: it,rec,kS,kL,kH=      22    -1  32   1   1 file=UVEL1.0000000022
 Computing Diagnostic #     46  VVELMASS     Counter:       1   Parms: VVr     MR      
           Vector  Mate for  VVELMASS     Diagnostic #     45  UVELMASS exists 
(PID.TID 0000.0001)  MDS_WRITE_FIELD: it,rec,kS,kL,kH=      22    -1  32   1   1 file=VVEL1.0000000022
 Computing Diagnostic #     83  atmPload     Counter:       1   Parms: SM      U1      
(PID.TID 0000.0001)  MDS_WRITE_FIELD: it,rec,kS,kL,kH=      22    -1  32   1   1 file=atmPload.0000000022
(PID.TID 0000.0001)  write diagnostics summary to file: diagnostics_status.0000000023.txt
(PID.TID 0000.0001) DEBUG_MSG: LEAVING S/R FORWARD_STEP
(PID.TID 0000.0001) DEBUG_MSG: ENTERED S/R FORWARD_STEP
(PID.TID 0000.0001) DEBUG_MSG: CALLING S/R LOAD_FIELDS_DRIVER
(PID.TID 0000.0001) DEBUG_MSG: ENTERED S/R LOAD_FIELDS_DRIVER
(PID.TID 0000.0001) DEBUG_MSG: CALLING S/R EXTERNAL_FIELDS_LOAD
(PID.TID 0000.0001) DEBUG_MSG: LEAVING S/R LOAD_FIELDS_DRIVER
(PID.TID 0000.0001) DEBUG_MSG: CALLING S/R DO_ATMOSPHERIC_PHYS
(PID.TID 0000.0001) DEBUG_MSG: ENTERED S/R DO_ATMOSPHERIC_PHYS
(PID.TID 0000.0001) DEBUG_MSG: LEAVING S/R DO_ATMOSPHERIC_PHYS
(PID.TID 0000.0001) DEBUG_MSG: CALLING S/R DO_OCEANIC_PHYS
(PID.TID 0000.0001) DEBUG_MSG: ENTERED S/R DO_OCEANIC_PHYS
(PID.TID 0000.0001) DEBUG_MSG: CALLING S/R EXTERNAL_FORCING_SURF
(PID.TID 0000.0001) DEBUG_MSG: CALLING S/R FIND_RHO_2D (xNr)
(PID.TID 0000.0001) DEBUG_MSG:                  ENTERING UPWARD K LOOP (bi=   1, bj=   1)
(PID.TID 0000.0001) DEBUG_MSG: CALLING S/R GRAD_SIGMA
(PID.TID 0000.0001) DEBUG_MSG: CALLING S/R CALC_IVDC
(PID.TID 0000.0001) DEBUG_MSG: CALLING S/R GRAD_SIGMA
(PID.TID 0000.0001) DEBUG_MSG: CALLING S/R CALC_IVDC
(PID.TID 0000.0001) DEBUG_MSG: CALLING S/R GRAD_SIGMA
(PID.TID 0000.0001) DEBUG_MSG: CALLING S/R CALC_IVDC
(PID.TID 0000.0001) DEBUG_MSG: CALLING S/R GRAD_SIGMA
(PID.TID 0000.0001) DEBUG_MSG: CALLING S/R CALC_IVDC
(PID.TID 0000.0001) DEBUG_MSG: CALLING S/R GRAD_SIGMA
(PID.TID 0000.0001) DEBUG_MSG: CALLING S/R CALC_IVDC
(PID.TID 0000.0001) DEBUG_MSG: CALLING S/R GRAD_SIGMA
(PID.TID 0000.0001) DEBUG_MSG: CALLING S/R CALC_IVDC
(PID.TID 0000.0001) DEBUG_MSG: CALLING S/R GRAD_SIGMA
(PID.TID 0000.0001) DEBUG_MSG: CALLING S/R CALC_IVDC
(PID.TID 0000.0001) DEBUG_MSG: CALLING S/R GRAD_SIGMA
(PID.TID 0000.0001) DEBUG_MSG: CALLING S/R CALC_IVDC
(PID.TID 0000.0001) DEBUG_MSG: CALLING S/R GRAD_SIGMA
(PID.TID 0000.0001) DEBUG_MSG: CALLING S/R CALC_IVDC
(PID.TID 0000.0001) DEBUG_MSG: CALLING S/R GRAD_SIGMA
(PID.TID 0000.0001) DEBUG_MSG: CALLING S/R CALC_IVDC
(PID.TID 0000.0001) DEBUG_MSG: CALLING S/R GRAD_SIGMA
(PID.TID 0000.0001) DEBUG_MSG: CALLING S/R CALC_IVDC
(PID.TID 0000.0001) DEBUG_MSG: CALLING S/R GRAD_SIGMA
(PID.TID 0000.0001) DEBUG_MSG: CALLING S/R CALC_IVDC
(PID.TID 0000.0001) DEBUG_MSG: CALLING S/R GRAD_SIGMA
(PID.TID 0000.0001) DEBUG_MSG: CALLING S/R CALC_IVDC
(PID.TID 0000.0001) DEBUG_MSG: CALLING S/R GRAD_SIGMA
(PID.TID 0000.0001) DEBUG_MSG: CALLING S/R CALC_IVDC
(PID.TID 0000.0001) DEBUG_MSG: CALLING S/R GRAD_SIGMA
(PID.TID 0000.0001) DEBUG_MSG: CALLING S/R CALC_IVDC
(PID.TID 0000.0001) DEBUG_MSG: CALLING S/R GRAD_SIGMA
(PID.TID 0000.0001) DEBUG_MSG: CALLING S/R GMREDI_CALC_TENSOR
(PID.TID 0000.0001) DEBUG_MSG: LEAVING S/R DO_OCEANIC_PHYS
(PID.TID 0000.0001) DEBUG_MSG: CALLING S/R DYNAMICS
(PID.TID 0000.0001) DEBUG_MSG: ENTERED S/R DYNAMICS
DEBUG_STATS_RL:                EtaN (DYNAMICS)  min= -4.43957886756624E+00
DEBUG_STATS_RL:                EtaN (DYNAMICS)  max=  3.90941286159783E+00
DEBUG_STATS_RL:                EtaN (DYNAMICS) mean=  2.38138294035074E-02
DEBUG_STATS_RL:                EtaN (DYNAMICS) S.D.=  1.39902761303298E-01
DEBUG_STATS_RL:                Uvel (DYNAMICS)  min= -5.18381092527178E-01
DEBUG_STATS_RL:                Uvel (DYNAMICS)  max=  1.00074782175334E+00
DEBUG_STATS_RL:                Uvel (DYNAMICS) mean=  3.70246783087512E-04
DEBUG_STATS_RL:                Uvel (DYNAMICS) S.D.=  2.20042558997314E-02
DEBUG_STATS_RL:                Vvel (DYNAMICS)  min= -9.53799978044583E-01
DEBUG_STATS_RL:                Vvel (DYNAMICS)  max=  5.19888407733609E-01
DEBUG_STATS_RL:                Vvel (DYNAMICS) mean= -6.04373970223421E-04
DEBUG_STATS_RL:                Vvel (DYNAMICS) S.D.=  2.38276567934375E-02
DEBUG_STATS_RL:                Wvel (DYNAMICS)  min= -4.44139452786614E-04
DEBUG_STATS_RL:                Wvel (DYNAMICS)  max=  1.20748683528176E-04
DEBUG_STATS_RL:                Wvel (DYNAMICS) mean= -5.24500826605533E-07
DEBUG_STATS_RL:                Wvel (DYNAMICS) S.D.=  9.34675477047249E-06
DEBUG_STATS_RL:               Theta (DYNAMICS)  min=  1.60868741555213E+01
DEBUG_STATS_RL:               Theta (DYNAMICS)  max=  2.15152362275888E+01
DEBUG_STATS_RL:               Theta (DYNAMICS) mean=  1.99975327799747E+01
DEBUG_STATS_RL:               Theta (DYNAMICS) S.D.=  6.32128185922903E-02
DEBUG_STATS_RL:                Salt (DYNAMICS)  min=  2.90164767690855E+01
DEBUG_STATS_RL:                Salt (DYNAMICS)  max=  3.51491756437534E+01
DEBUG_STATS_RL:                Salt (DYNAMICS) mean=  3.49985294620554E+01
DEBUG_STATS_RL:                Salt (DYNAMICS) S.D.=  6.70775391903430E-02
DEBUG_STATS_RL:                  Gu (DYNAMICS)  min= -5.38973388505782E-01
DEBUG_STATS_RL:                  Gu (DYNAMICS)  max=  9.40298282608226E-01
DEBUG_STATS_RL:                  Gu (DYNAMICS) mean=  3.09468339452911E-04
DEBUG_STATS_RL:                  Gu (DYNAMICS) S.D.=  2.19192803744608E-02
DEBUG_STATS_RL:                  Gv (DYNAMICS)  min= -9.53679326671265E-01
DEBUG_STATS_RL:                  Gv (DYNAMICS)  max=  5.48707414224489E-01
DEBUG_STATS_RL:                  Gv (DYNAMICS) mean= -6.54312831006067E-04
DEBUG_STATS_RL:                  Gv (DYNAMICS) S.D.=  2.42625598550549E-02
DEBUG_STATS_RL:               GuNm1 (DYNAMICS)  min= -6.77444407285093E-05
DEBUG_STATS_RL:               GuNm1 (DYNAMICS)  max=  2.53989993993559E-05
DEBUG_STATS_RL:               GuNm1 (DYNAMICS) mean= -6.68777551477859E-08
DEBUG_STATS_RL:               GuNm1 (DYNAMICS) S.D.=  1.58997310296921E-06
DEBUG_STATS_RL:               GvNm1 (DYNAMICS)  min= -5.30771831995247E-05
DEBUG_STATS_RL:               GvNm1 (DYNAMICS)  max=  4.27837432284853E-05
DEBUG_STATS_RL:               GvNm1 (DYNAMICS) mean= -5.62597150006583E-08
DEBUG_STATS_RL:               GvNm1 (DYNAMICS) S.D.=  1.46492179370085E-06
DEBUG_STATS_RL:               GtNm1 (DYNAMICS)  min= -8.30910232478753E-06
DEBUG_STATS_RL:               GtNm1 (DYNAMICS)  max=  4.82374483844482E-06
DEBUG_STATS_RL:               GtNm1 (DYNAMICS) mean=  1.64277286364692E-11
DEBUG_STATS_RL:               GtNm1 (DYNAMICS) S.D.=  7.75324590959633E-08
DEBUG_STATS_RL:               GsNm1 (DYNAMICS)  min= -1.35985129711513E-05
DEBUG_STATS_RL:               GsNm1 (DYNAMICS)  max=  2.33134799534799E-06
DEBUG_STATS_RL:               GsNm1 (DYNAMICS) mean= -3.80887870185943E-09
DEBUG_STATS_RL:               GsNm1 (DYNAMICS) S.D.=  1.72044638385807E-07
(PID.TID 0000.0001) DEBUG_MSG: LEAVING S/R DYNAMICS
DEBUG_STATS_RL:    cg2d_b (SOLVE_FOR_PRESSURE)  min= -4.29929674106555E+05
DEBUG_STATS_RL:    cg2d_b (SOLVE_FOR_PRESSURE)  max=  4.17956933373703E+05
DEBUG_STATS_RL:    cg2d_b (SOLVE_FOR_PRESSURE) mean= -2.31680902080038E+03
DEBUG_STATS_RL:    cg2d_b (SOLVE_FOR_PRESSURE) S.D.=  1.41233571363478E+04
 cg2d: Sum(rhs),rhsMax =  -2.38185370507822E+01  8.23597538413878E+01
(PID.TID 0000.0001)  cg2d: iter=     1 ; resid.=  3.14155209730579E-02
(PID.TID 0000.0001)  cg2d: iter=     2 ; resid.=  3.71334142162104E-03
(PID.TID 0000.0001)  cg2d: iter=     3 ; resid.=  8.46763958421143E-04
(PID.TID 0000.0001)  cg2d: iter=     4 ; resid.=  2.86616731316470E-04
(PID.TID 0000.0001)  cg2d: iter=     5 ; resid.=  8.08252217030454E-05
(PID.TID 0000.0001)  cg2d: iter=     6 ; resid.=  1.72154134674628E-05
(PID.TID 0000.0001)  cg2d: iter=     7 ; resid.=  3.89841503370576E-06
(PID.TID 0000.0001)  cg2d: iter=     8 ; resid.=  8.45377596129262E-07
(PID.TID 0000.0001)  cg2d: iter=     9 ; resid.=  2.15293225927525E-07
(PID.TID 0000.0001)  cg2d: iter=    10 ; resid.=  6.75515378475522E-08
DEBUG_STATS_RL:    cg2d_x (SOLVE_FOR_PRESSURE)  min= -4.42308883630316E+01
DEBUG_STATS_RL:    cg2d_x (SOLVE_FOR_PRESSURE)  max=  3.69102904406906E+01
DEBUG_STATS_RL:    cg2d_x (SOLVE_FOR_PRESSURE) mean=  2.38681758524729E-01
DEBUG_STATS_RL:    cg2d_x (SOLVE_FOR_PRESSURE) S.D.=  1.37045524184821E+00
(PID.TID 0000.0001)      cg2d_init_res =   2.08655634360928E-01
(PID.TID 0000.0001)      cg2d_iters(min,last) =      -1      10
(PID.TID 0000.0001)      cg2d_last_res =   6.75515378475522E-08
(PID.TID 0000.0001) DEBUG_MSG: CALLING S/R UPDATE_ETAH
(PID.TID 0000.0001) DEBUG_MSG: ENTERED S/R CALC_R_STAR
(PID.TID 0000.0001) DEBUG_MSG: LEAVING S/R CALC_R_STAR
(PID.TID 0000.0001) DEBUG_MSG: CALLING S/R DO_STAGGER_FIELDS_EXCH.
(PID.TID 0000.0001) DEBUG_MSG: CALLING S/R THERMODYNAMICS
(PID.TID 0000.0001) DEBUG_MSG: ENTERED S/R THERMODYNAMICS
(PID.TID 0000.0001) DEBUG_MSG: CALLING S/R TEMP_INTEGRATE
(PID.TID 0000.0001) DEBUG_MSG: CALLING S/R SALT_INTEGRATE
DEBUG_STATS_RL:          Uvel (THERMODYNAMICS)  min= -5.67842087466242E-01
DEBUG_STATS_RL:          Uvel (THERMODYNAMICS)  max=  8.12026848668409E-01
DEBUG_STATS_RL:          Uvel (THERMODYNAMICS) mean=  3.08639456636269E-04
DEBUG_STATS_RL:          Uvel (THERMODYNAMICS) S.D.=  2.15843428540367E-02
DEBUG_STATS_RL:          Vvel (THERMODYNAMICS)  min= -9.60621917950753E-01
DEBUG_STATS_RL:          Vvel (THERMODYNAMICS)  max=  5.48297658092546E-01
DEBUG_STATS_RL:          Vvel (THERMODYNAMICS) mean= -6.43970509973792E-04
DEBUG_STATS_RL:          Vvel (THERMODYNAMICS) S.D.=  2.43838581268392E-02
DEBUG_STATS_RL:          Wvel (THERMODYNAMICS)  min= -4.57787076571642E-04
DEBUG_STATS_RL:          Wvel (THERMODYNAMICS)  max=  1.25444728852204E-04
DEBUG_STATS_RL:          Wvel (THERMODYNAMICS) mean= -5.11711568971159E-07
DEBUG_STATS_RL:          Wvel (THERMODYNAMICS) S.D.=  9.32734215068011E-06
DEBUG_STATS_RL:         Theta (THERMODYNAMICS)  min=  1.60830655901744E+01
DEBUG_STATS_RL:         Theta (THERMODYNAMICS)  max=  2.15713832173022E+01
DEBUG_STATS_RL:         Theta (THERMODYNAMICS) mean=  1.99977360517304E+01
DEBUG_STATS_RL:         Theta (THERMODYNAMICS) S.D.=  6.39474272397952E-02
DEBUG_STATS_RL:          Salt (THERMODYNAMICS)  min=  2.88332194251597E+01
DEBUG_STATS_RL:          Salt (THERMODYNAMICS)  max=  3.51497936285831E+01
DEBUG_STATS_RL:          Salt (THERMODYNAMICS) mean=  3.49984846264907E+01
DEBUG_STATS_RL:          Salt (THERMODYNAMICS) S.D.=  6.91675614071933E-02
DEBUG_STATS_RL:         GtNm1 (THERMODYNAMICS)  min= -5.79578766840826E-06
DEBUG_STATS_RL:         GtNm1 (THERMODYNAMICS)  max=  5.07403283056229E-06
DEBUG_STATS_RL:         GtNm1 (THERMODYNAMICS) mean=  4.44061299893705E-10
DEBUG_STATS_RL:         GtNm1 (THERMODYNAMICS) S.D.=  6.96057269856177E-08
DEBUG_STATS_RL:         GsNm1 (THERMODYNAMICS)  min= -1.38782734879645E-05
DEBUG_STATS_RL:         GsNm1 (THERMODYNAMICS)  max=  2.27866998933417E-06
DEBUG_STATS_RL:         GsNm1 (THERMODYNAMICS) mean= -3.87161180877342E-09
DEBUG_STATS_RL:         GsNm1 (THERMODYNAMICS) S.D.=  1.75240008351156E-07
(PID.TID 0000.0001) DEBUG_MSG: LEAVING S/R THERMODYNAMICS
(PID.TID 0000.0001) // =======================================================
(PID.TID 0000.0001) // Begin MONITOR dynamic field statistics
(PID.TID 0000.0001) // =======================================================
(PID.TID 0000.0001) %MON time_tsnumber                =                    24
(PID.TID 0000.0001) %MON time_secondsf                =   2.1600000000000E+04
(PID.TID 0000.0001) %MON dynstat_eta_max              =   3.7625168612808E+00
(PID.TID 0000.0001) %MON dynstat_eta_min              =  -4.5087551886479E+00
(PID.TID 0000.0001) %MON dynstat_eta_mean             =   2.2794564355574E-02
(PID.TID 0000.0001) %MON dynstat_eta_sd               =   1.3622383581361E-01
(PID.TID 0000.0001) %MON dynstat_eta_del2             =   3.8074806366445E-03
(PID.TID 0000.0001) %MON dynstat_uvel_max             =   8.1202684866841E-01
(PID.TID 0000.0001) %MON dynstat_uvel_min             =  -5.6784208746624E-01
(PID.TID 0000.0001) %MON dynstat_uvel_mean            =   4.0400455840300E-04
(PID.TID 0000.0001) %MON dynstat_uvel_sd              =   7.1635724495201E-03
(PID.TID 0000.0001) %MON dynstat_uvel_del2            =   1.0215752140680E-04
(PID.TID 0000.0001) %MON dynstat_vvel_max             =   5.4829765809255E-01
(PID.TID 0000.0001) %MON dynstat_vvel_min             =  -9.6062191795075E-01
(PID.TID 0000.0001) %MON dynstat_vvel_mean            =  -3.8462488572778E-06
(PID.TID 0000.0001) %MON dynstat_vvel_sd              =   7.9844319414901E-03
(PID.TID 0000.0001) %MON dynstat_vvel_del2            =   1.1816896756728E-04
(PID.TID 0000.0001) %MON dynstat_wvel_max             =   1.2544472885220E-04
(PID.TID 0000.0001) %MON dynstat_wvel_min             =  -4.5778707657164E-04
(PID.TID 0000.0001) %MON dynstat_wvel_mean            =  -3.7249478447052E-07
(PID.TID 0000.0001) %MON dynstat_wvel_sd              =   8.7423396646451E-06
(PID.TID 0000.0001) %MON dynstat_wvel_del2            =   7.6141879829856E-08
(PID.TID 0000.0001) %MON dynstat_theta_max            =   2.1571383217302E+01
(PID.TID 0000.0001) %MON dynstat_theta_min            =   1.6083065590174E+01
(PID.TID 0000.0001) %MON dynstat_theta_mean           =   1.9997827765659E+01
(PID.TID 0000.0001) %MON dynstat_theta_sd             =   2.1678888813682E-02
(PID.TID 0000.0001) %MON dynstat_theta_del2           =   4.0949783292454E-04
(PID.TID 0000.0001) %MON dynstat_salt_max             =   3.5149793628583E+01
(PID.TID 0000.0001) %MON dynstat_salt_min             =   2.8833219425160E+01
(PID.TID 0000.0001) %MON dynstat_salt_mean            =   3.4999783102428E+01
(PID.TID 0000.0001) %MON dynstat_salt_sd              =   2.1369753652124E-02
(PID.TID 0000.0001) %MON dynstat_salt_del2            =   7.4918003281404E-04
(PID.TID 0000.0001) %MON dynstat_sst_max              =   2.1571383217302E+01
(PID.TID 0000.0001) %MON dynstat_sst_min              =   1.6085286531277E+01
(PID.TID 0000.0001) %MON dynstat_sst_mean             =   2.0060569745280E+01
(PID.TID 0000.0001) %MON dynstat_sst_sd               =   1.8412314393153E-01
(PID.TID 0000.0001) %MON dynstat_sst_del2             =   4.2399859113232E-03
(PID.TID 0000.0001) %MON dynstat_sss_max              =   3.5149793628583E+01
(PID.TID 0000.0001) %MON dynstat_sss_min              =   2.8833219425160E+01
(PID.TID 0000.0001) %MON dynstat_sss_mean             =   3.4982831205976E+01
(PID.TID 0000.0001) %MON dynstat_sss_sd               =   2.5763139368480E-01
(PID.TID 0000.0001) %MON dynstat_sss_del2             =   1.0150295417225E-02
(PID.TID 0000.0001) %MON forcing_qnet_max             =   5.8212773437500E+03
(PID.TID 0000.0001) %MON forcing_qnet_min             =  -1.8506875000000E+04
(PID.TID 0000.0001) %MON forcing_qnet_mean            =  -1.0664513170677E+02
(PID.TID 0000.0001) %MON forcing_qnet_sd              =   6.9892831576300E+02
(PID.TID 0000.0001) %MON forcing_qnet_del2            =   1.8566616782495E+01
(PID.TID 0000.0001) %MON forcing_qsw_max              =   0.0000000000000E+00
(PID.TID 0000.0001) %MON forcing_qsw_min              =  -1.1165275596523E+02
(PID.TID 0000.0001) %MON forcing_qsw_mean             =  -1.8859068752544E+01
(PID.TID 0000.0001) %MON forcing_qsw_sd               =   2.7145039166958E+01
(PID.TID 0000.0001) %MON forcing_qsw_del2             =   2.6854478394424E-01
(PID.TID 0000.0001) %MON forcing_empmr_max            =   8.7419906631112E-03
(PID.TID 0000.0001) %MON forcing_empmr_min            =  -1.2564563751221E-01
(PID.TID 0000.0001) %MON forcing_empmr_mean           =  -5.2114700595386E-04
(PID.TID 0000.0001) %MON forcing_empmr_sd             =   5.5519705007555E-03
(PID.TID 0000.0001) %MON forcing_empmr_del2           =   2.1862471421418E-04
(PID.TID 0000.0001) %MON forcing_fu_max               =   8.7724226645068E-01
(PID.TID 0000.0001) %MON forcing_fu_min               =  -6.2313814382509E-01
(PID.TID 0000.0001) %MON forcing_fu_mean              =  -2.4762528696650E-04
(PID.TID 0000.0001) %MON forcing_fu_sd                =   9.9616654481591E-02
(PID.TID 0000.0001) %MON forcing_fu_del2              =   8.2512562089528E-04
(PID.TID 0000.0001) %MON forcing_fv_max               =   4.8664851834310E-01
(PID.TID 0000.0001) %MON forcing_fv_min               =  -5.0873585665006E-01
(PID.TID 0000.0001) %MON forcing_fv_mean              =  -3.5584607768850E-03
(PID.TID 0000.0001) %MON forcing_fv_sd                =   8.3568408708050E-02
(PID.TID 0000.0001) %MON forcing_fv_del2              =   7.2482767258007E-04
(PID.TID 0000.0001) %MON trAdv_CFL_u_max              =   2.7320084113103E-03
(PID.TID 0000.0001) %MON trAdv_CFL_v_max              =   3.1492537649566E-03
(PID.TID 0000.0001) %MON trAdv_CFL_w_max              =   4.6277984920378E-03
(PID.TID 0000.0001) %MON advcfl_uvel_max              =   2.7079200400161E-03
(PID.TID 0000.0001) %MON advcfl_vvel_max              =   3.2824501397832E-03
(PID.TID 0000.0001) %MON advcfl_wvel_max              =   8.7405660878057E-03
(PID.TID 0000.0001) %MON advcfl_W_hf_max              =   4.6277984920378E-03
(PID.TID 0000.0001) %MON pe_b_mean                    =   2.5413303172705E-05
(PID.TID 0000.0001) %MON ke_max                       =   4.7207022304515E-01
(PID.TID 0000.0001) %MON ke_mean                      =   5.3228601510112E-05
(PID.TID 0000.0001) %MON ke_vol                       =   1.3398105750994E+18
(PID.TID 0000.0001) %MON vort_r_min                   =  -6.5977588007465E-06
(PID.TID 0000.0001) %MON vort_r_max                   =   2.9161663102837E-06
(PID.TID 0000.0001) %MON vort_a_mean                  =  -2.0549865324846E-05
(PID.TID 0000.0001) %MON vort_a_sd                    =   7.5259245815111E-05
(PID.TID 0000.0001) %MON vort_p_mean                  =  -2.4783373316762E-05
(PID.TID 0000.0001) %MON vort_p_sd                    =   1.2810564154850E-04
(PID.TID 0000.0001) %MON surfExpan_theta_mean         =  -1.8429634889336E-07
(PID.TID 0000.0001) %MON surfExpan_salt_mean          =   1.3886499501292E-06
(PID.TID 0000.0001) // =======================================================
(PID.TID 0000.0001) // End MONITOR dynamic field statistics
(PID.TID 0000.0001) // =======================================================
(PID.TID 0000.0001) DEBUG_MSG: LEAVING S/R FORWARD_STEP
(PID.TID 0000.0001) DEBUG_MSG: ENTERED S/R FORWARD_STEP
(PID.TID 0000.0001) DEBUG_MSG: CALLING S/R LOAD_FIELDS_DRIVER
(PID.TID 0000.0001) DEBUG_MSG: ENTERED S/R LOAD_FIELDS_DRIVER
(PID.TID 0000.0001) DEBUG_MSG: CALLING S/R EXTERNAL_FIELDS_LOAD
(PID.TID 0000.0001) DEBUG_MSG: LEAVING S/R LOAD_FIELDS_DRIVER
(PID.TID 0000.0001) DEBUG_MSG: CALLING S/R DO_ATMOSPHERIC_PHYS
(PID.TID 0000.0001) DEBUG_MSG: ENTERED S/R DO_ATMOSPHERIC_PHYS
(PID.TID 0000.0001) DEBUG_MSG: LEAVING S/R DO_ATMOSPHERIC_PHYS
(PID.TID 0000.0001) DEBUG_MSG: CALLING S/R DO_OCEANIC_PHYS
(PID.TID 0000.0001) DEBUG_MSG: ENTERED S/R DO_OCEANIC_PHYS
(PID.TID 0000.0001) DEBUG_MSG: CALLING S/R EXTERNAL_FORCING_SURF
(PID.TID 0000.0001) DEBUG_MSG: CALLING S/R FIND_RHO_2D (xNr)
(PID.TID 0000.0001) DEBUG_MSG:                  ENTERING UPWARD K LOOP (bi=   1, bj=   1)
(PID.TID 0000.0001) DEBUG_MSG: CALLING S/R GRAD_SIGMA
(PID.TID 0000.0001) DEBUG_MSG: CALLING S/R CALC_IVDC
(PID.TID 0000.0001) DEBUG_MSG: CALLING S/R GRAD_SIGMA
(PID.TID 0000.0001) DEBUG_MSG: CALLING S/R CALC_IVDC
(PID.TID 0000.0001) DEBUG_MSG: CALLING S/R GRAD_SIGMA
(PID.TID 0000.0001) DEBUG_MSG: CALLING S/R CALC_IVDC
(PID.TID 0000.0001) DEBUG_MSG: CALLING S/R GRAD_SIGMA
(PID.TID 0000.0001) DEBUG_MSG: CALLING S/R CALC_IVDC
(PID.TID 0000.0001) DEBUG_MSG: CALLING S/R GRAD_SIGMA
(PID.TID 0000.0001) DEBUG_MSG: CALLING S/R CALC_IVDC
(PID.TID 0000.0001) DEBUG_MSG: CALLING S/R GRAD_SIGMA
(PID.TID 0000.0001) DEBUG_MSG: CALLING S/R CALC_IVDC
(PID.TID 0000.0001) DEBUG_MSG: CALLING S/R GRAD_SIGMA
(PID.TID 0000.0001) DEBUG_MSG: CALLING S/R CALC_IVDC
(PID.TID 0000.0001) DEBUG_MSG: CALLING S/R GRAD_SIGMA
(PID.TID 0000.0001) DEBUG_MSG: CALLING S/R CALC_IVDC
(PID.TID 0000.0001) DEBUG_MSG: CALLING S/R GRAD_SIGMA
(PID.TID 0000.0001) DEBUG_MSG: CALLING S/R CALC_IVDC
(PID.TID 0000.0001) DEBUG_MSG: CALLING S/R GRAD_SIGMA
(PID.TID 0000.0001) DEBUG_MSG: CALLING S/R CALC_IVDC
(PID.TID 0000.0001) DEBUG_MSG: CALLING S/R GRAD_SIGMA
(PID.TID 0000.0001) DEBUG_MSG: CALLING S/R CALC_IVDC
(PID.TID 0000.0001) DEBUG_MSG: CALLING S/R GRAD_SIGMA
(PID.TID 0000.0001) DEBUG_MSG: CALLING S/R CALC_IVDC
(PID.TID 0000.0001) DEBUG_MSG: CALLING S/R GRAD_SIGMA
(PID.TID 0000.0001) DEBUG_MSG: CALLING S/R CALC_IVDC
(PID.TID 0000.0001) DEBUG_MSG: CALLING S/R GRAD_SIGMA
(PID.TID 0000.0001) DEBUG_MSG: CALLING S/R CALC_IVDC
(PID.TID 0000.0001) DEBUG_MSG: CALLING S/R GRAD_SIGMA
(PID.TID 0000.0001) DEBUG_MSG: CALLING S/R CALC_IVDC
(PID.TID 0000.0001) DEBUG_MSG: CALLING S/R GRAD_SIGMA
(PID.TID 0000.0001) DEBUG_MSG: CALLING S/R GMREDI_CALC_TENSOR
(PID.TID 0000.0001) DEBUG_MSG: LEAVING S/R DO_OCEANIC_PHYS
(PID.TID 0000.0001) DEBUG_MSG: CALLING S/R DYNAMICS
(PID.TID 0000.0001) DEBUG_MSG: ENTERED S/R DYNAMICS
DEBUG_STATS_RL:                EtaN (DYNAMICS)  min= -4.50875518864786E+00
DEBUG_STATS_RL:                EtaN (DYNAMICS)  max=  3.76251686128083E+00
DEBUG_STATS_RL:                EtaN (DYNAMICS) mean=  2.43304536998182E-02
DEBUG_STATS_RL:                EtaN (DYNAMICS) S.D.=  1.39699820792915E-01
DEBUG_STATS_RL:                Uvel (DYNAMICS)  min= -5.67842087466242E-01
DEBUG_STATS_RL:                Uvel (DYNAMICS)  max=  8.12026848668409E-01
DEBUG_STATS_RL:                Uvel (DYNAMICS) mean=  3.08639456636269E-04
DEBUG_STATS_RL:                Uvel (DYNAMICS) S.D.=  2.15843428540367E-02
DEBUG_STATS_RL:                Vvel (DYNAMICS)  min= -9.60621917950753E-01
DEBUG_STATS_RL:                Vvel (DYNAMICS)  max=  5.48297658092546E-01
DEBUG_STATS_RL:                Vvel (DYNAMICS) mean= -6.43970509973792E-04
DEBUG_STATS_RL:                Vvel (DYNAMICS) S.D.=  2.43838581268392E-02
DEBUG_STATS_RL:                Wvel (DYNAMICS)  min= -4.57787076571642E-04
DEBUG_STATS_RL:                Wvel (DYNAMICS)  max=  1.25444728852204E-04
DEBUG_STATS_RL:                Wvel (DYNAMICS) mean= -5.11711568971159E-07
DEBUG_STATS_RL:                Wvel (DYNAMICS) S.D.=  9.32734215068011E-06
DEBUG_STATS_RL:               Theta (DYNAMICS)  min=  1.60830655901744E+01
DEBUG_STATS_RL:               Theta (DYNAMICS)  max=  2.15713832173022E+01
DEBUG_STATS_RL:               Theta (DYNAMICS) mean=  1.99977360517304E+01
DEBUG_STATS_RL:               Theta (DYNAMICS) S.D.=  6.39474272397952E-02
DEBUG_STATS_RL:                Salt (DYNAMICS)  min=  2.88332194251597E+01
DEBUG_STATS_RL:                Salt (DYNAMICS)  max=  3.51497936285831E+01
DEBUG_STATS_RL:                Salt (DYNAMICS) mean=  3.49984846264907E+01
DEBUG_STATS_RL:                Salt (DYNAMICS) S.D.=  6.91675614071933E-02
DEBUG_STATS_RL:                  Gu (DYNAMICS)  min= -5.88232759522507E-01
DEBUG_STATS_RL:                  Gu (DYNAMICS)  max=  7.49620239758262E-01
DEBUG_STATS_RL:                  Gu (DYNAMICS) mean=  2.46723234925832E-04
DEBUG_STATS_RL:                  Gu (DYNAMICS) S.D.=  2.15110390084036E-02
DEBUG_STATS_RL:                  Gv (DYNAMICS)  min= -9.52917365746038E-01
DEBUG_STATS_RL:                  Gv (DYNAMICS)  max=  5.74718932806245E-01
DEBUG_STATS_RL:                  Gv (DYNAMICS) mean= -6.92896868791349E-04
DEBUG_STATS_RL:                  Gv (DYNAMICS) S.D.=  2.47607866313639E-02
DEBUG_STATS_RL:               GuNm1 (DYNAMICS)  min= -7.06604680624724E-05
DEBUG_STATS_RL:               GuNm1 (DYNAMICS)  max=  2.47130323132318E-05
DEBUG_STATS_RL:               GuNm1 (DYNAMICS) mean= -6.84553041316746E-08
DEBUG_STATS_RL:               GuNm1 (DYNAMICS) S.D.=  1.61676783394652E-06
DEBUG_STATS_RL:               GvNm1 (DYNAMICS)  min= -4.64336712872237E-05
DEBUG_STATS_RL:               GvNm1 (DYNAMICS)  max=  4.29723381388463E-05
DEBUG_STATS_RL:               GvNm1 (DYNAMICS) mean= -5.55221144141524E-08
DEBUG_STATS_RL:               GvNm1 (DYNAMICS) S.D.=  1.41992105992734E-06
DEBUG_STATS_RL:               GtNm1 (DYNAMICS)  min= -5.79578766840826E-06
DEBUG_STATS_RL:               GtNm1 (DYNAMICS)  max=  5.07403283056229E-06
DEBUG_STATS_RL:               GtNm1 (DYNAMICS) mean=  4.44061299893705E-10
DEBUG_STATS_RL:               GtNm1 (DYNAMICS) S.D.=  6.96057269856177E-08
DEBUG_STATS_RL:               GsNm1 (DYNAMICS)  min= -1.38782734879645E-05
DEBUG_STATS_RL:               GsNm1 (DYNAMICS)  max=  2.27866998933417E-06
DEBUG_STATS_RL:               GsNm1 (DYNAMICS) mean= -3.87161180877342E-09
DEBUG_STATS_RL:               GsNm1 (DYNAMICS) S.D.=  1.75240008351156E-07
(PID.TID 0000.0001) DEBUG_MSG: LEAVING S/R DYNAMICS
DEBUG_STATS_RL:    cg2d_b (SOLVE_FOR_PRESSURE)  min= -4.09010591284576E+05
DEBUG_STATS_RL:    cg2d_b (SOLVE_FOR_PRESSURE)  max=  4.16774657470423E+05
DEBUG_STATS_RL:    cg2d_b (SOLVE_FOR_PRESSURE) mean= -2.36258679997921E+03
DEBUG_STATS_RL:    cg2d_b (SOLVE_FOR_PRESSURE) S.D.=  1.39496389267424E+04
 cg2d: Sum(rhs),rhsMax =  -2.50558268568650E+01  7.98397046398929E+01
(PID.TID 0000.0001)  cg2d: iter=     1 ; resid.=  3.22048852133107E-02
(PID.TID 0000.0001)  cg2d: iter=     2 ; resid.=  3.91241344078713E-03
(PID.TID 0000.0001)  cg2d: iter=     3 ; resid.=  8.81989549267018E-04
(PID.TID 0000.0001)  cg2d: iter=     4 ; resid.=  3.07233897354181E-04
(PID.TID 0000.0001)  cg2d: iter=     5 ; resid.=  8.47219944720864E-05
(PID.TID 0000.0001)  cg2d: iter=     6 ; resid.=  1.73775707421889E-05
(PID.TID 0000.0001)  cg2d: iter=     7 ; resid.=  3.84017118298908E-06
(PID.TID 0000.0001)  cg2d: iter=     8 ; resid.=  8.88905923367077E-07
(PID.TID 0000.0001)  cg2d: iter=     9 ; resid.=  2.58687714736888E-07
(PID.TID 0000.0001)  cg2d: iter=    10 ; resid.=  7.96928895231143E-08
DEBUG_STATS_RL:    cg2d_x (SOLVE_FOR_PRESSURE)  min= -4.40981321733978E+01
DEBUG_STATS_RL:    cg2d_x (SOLVE_FOR_PRESSURE)  max=  3.51199185118042E+01
DEBUG_STATS_RL:    cg2d_x (SOLVE_FOR_PRESSURE) mean=  2.43629653777055E-01
DEBUG_STATS_RL:    cg2d_x (SOLVE_FOR_PRESSURE) S.D.=  1.35720409065789E+00
(PID.TID 0000.0001)      cg2d_init_res =   2.15241300783304E-01
(PID.TID 0000.0001)      cg2d_iters(min,last) =      -1      10
(PID.TID 0000.0001)      cg2d_last_res =   7.96928895231143E-08
(PID.TID 0000.0001) DEBUG_MSG: CALLING S/R UPDATE_ETAH
(PID.TID 0000.0001) DEBUG_MSG: ENTERED S/R CALC_R_STAR
(PID.TID 0000.0001) DEBUG_MSG: LEAVING S/R CALC_R_STAR
(PID.TID 0000.0001) DEBUG_MSG: CALLING S/R DO_STAGGER_FIELDS_EXCH.
(PID.TID 0000.0001) DEBUG_MSG: CALLING S/R THERMODYNAMICS
(PID.TID 0000.0001) DEBUG_MSG: ENTERED S/R THERMODYNAMICS
(PID.TID 0000.0001) DEBUG_MSG: CALLING S/R TEMP_INTEGRATE
(PID.TID 0000.0001) DEBUG_MSG: CALLING S/R SALT_INTEGRATE
DEBUG_STATS_RL:          Uvel (THERMODYNAMICS)  min= -6.16913953767394E-01
DEBUG_STATS_RL:          Uvel (THERMODYNAMICS)  max=  6.18858222773478E-01
DEBUG_STATS_RL:          Uvel (THERMODYNAMICS) mean=  2.40981626820586E-04
DEBUG_STATS_RL:          Uvel (THERMODYNAMICS) S.D.=  2.12588144661973E-02
DEBUG_STATS_RL:          Vvel (THERMODYNAMICS)  min= -9.52972904254784E-01
DEBUG_STATS_RL:          Vvel (THERMODYNAMICS)  max=  5.74286238534160E-01
DEBUG_STATS_RL:          Vvel (THERMODYNAMICS) mean= -6.82755710584965E-04
DEBUG_STATS_RL:          Vvel (THERMODYNAMICS) S.D.=  2.49707669609062E-02
DEBUG_STATS_RL:          Wvel (THERMODYNAMICS)  min= -4.59741036077601E-04
DEBUG_STATS_RL:          Wvel (THERMODYNAMICS)  max=  1.40934067016527E-04
DEBUG_STATS_RL:          Wvel (THERMODYNAMICS) mean= -4.93386675547615E-07
DEBUG_STATS_RL:          Wvel (THERMODYNAMICS) S.D.=  9.32283635405083E-06
DEBUG_STATS_RL:         Theta (THERMODYNAMICS)  min=  1.60813141047104E+01
DEBUG_STATS_RL:         Theta (THERMODYNAMICS)  max=  2.16268339588542E+01
DEBUG_STATS_RL:         Theta (THERMODYNAMICS) mean=  1.99979318069097E+01
DEBUG_STATS_RL:         Theta (THERMODYNAMICS) S.D.=  6.46838649965454E-02
DEBUG_STATS_RL:          Salt (THERMODYNAMICS)  min=  2.86548213561524E+01
DEBUG_STATS_RL:          Salt (THERMODYNAMICS)  max=  3.51501086984554E+01
DEBUG_STATS_RL:          Salt (THERMODYNAMICS) mean=  3.49984404410402E+01
DEBUG_STATS_RL:          Salt (THERMODYNAMICS) S.D.=  7.12075410261038E-02
DEBUG_STATS_RL:         GtNm1 (THERMODYNAMICS)  min= -3.40268559015524E-06
DEBUG_STATS_RL:         GtNm1 (THERMODYNAMICS)  max=  5.20469051222120E-06
DEBUG_STATS_RL:         GtNm1 (THERMODYNAMICS) mean=  8.43390857167766E-10
DEBUG_STATS_RL:         GtNm1 (THERMODYNAMICS) S.D.=  6.68956737267387E-08
DEBUG_STATS_RL:         GsNm1 (THERMODYNAMICS)  min= -1.41401287285877E-05
DEBUG_STATS_RL:         GsNm1 (THERMODYNAMICS)  max=  2.23644113997325E-06
DEBUG_STATS_RL:         GsNm1 (THERMODYNAMICS) mean= -3.93107884075940E-09
DEBUG_STATS_RL:         GsNm1 (THERMODYNAMICS) S.D.=  1.78242602453927E-07
(PID.TID 0000.0001) DEBUG_MSG: LEAVING S/R THERMODYNAMICS
(PID.TID 0000.0001) // =======================================================
(PID.TID 0000.0001) // Begin MONITOR dynamic field statistics
(PID.TID 0000.0001) // =======================================================
(PID.TID 0000.0001) %MON time_tsnumber                =                    25
(PID.TID 0000.0001) %MON time_secondsf                =   2.2500000000000E+04
(PID.TID 0000.0001) %MON dynstat_eta_max              =   3.5800120745530E+00
(PID.TID 0000.0001) %MON dynstat_eta_min              =  -4.4952224463251E+00
(PID.TID 0000.0001) %MON dynstat_eta_mean             =   2.3244961658148E-02
(PID.TID 0000.0001) %MON dynstat_eta_sd               =   1.3473603940603E-01
(PID.TID 0000.0001) %MON dynstat_eta_del2             =   3.7226084286848E-03
(PID.TID 0000.0001) %MON dynstat_uvel_max             =   6.1885822277348E-01
(PID.TID 0000.0001) %MON dynstat_uvel_min             =  -6.1691395376739E-01
(PID.TID 0000.0001) %MON dynstat_uvel_mean            =   3.8327529732395E-04
(PID.TID 0000.0001) %MON dynstat_uvel_sd              =   7.0469681527635E-03
(PID.TID 0000.0001) %MON dynstat_uvel_del2            =   9.8443972237592E-05
(PID.TID 0000.0001) %MON dynstat_vvel_max             =   5.7428623853416E-01
(PID.TID 0000.0001) %MON dynstat_vvel_min             =  -9.5297290425478E-01
(PID.TID 0000.0001) %MON dynstat_vvel_mean            =  -1.7425976281435E-05
(PID.TID 0000.0001) %MON dynstat_vvel_sd              =   8.1756710145361E-03
(PID.TID 0000.0001) %MON dynstat_vvel_del2            =   1.2264458593133E-04
(PID.TID 0000.0001) %MON dynstat_wvel_max             =   1.4093406701653E-04
(PID.TID 0000.0001) %MON dynstat_wvel_min             =  -4.5974103607760E-04
(PID.TID 0000.0001) %MON dynstat_wvel_mean            =  -3.5650657226702E-07
(PID.TID 0000.0001) %MON dynstat_wvel_sd              =   8.7398771801535E-06
(PID.TID 0000.0001) %MON dynstat_wvel_del2            =   7.6145961656267E-08
(PID.TID 0000.0001) %MON dynstat_theta_max            =   2.1626833958854E+01
(PID.TID 0000.0001) %MON dynstat_theta_min            =   1.6081314104710E+01
(PID.TID 0000.0001) %MON dynstat_theta_mean           =   1.9997833657701E+01
(PID.TID 0000.0001) %MON dynstat_theta_sd             =   2.1888330290096E-02
(PID.TID 0000.0001) %MON dynstat_theta_del2           =   4.1257617211618E-04
(PID.TID 0000.0001) %MON dynstat_salt_max             =   3.5150108698455E+01
(PID.TID 0000.0001) %MON dynstat_salt_min             =   2.8654821356152E+01
(PID.TID 0000.0001) %MON dynstat_salt_mean            =   3.4999778146630E+01
(PID.TID 0000.0001) %MON dynstat_salt_sd              =   2.1997771053129E-02
(PID.TID 0000.0001) %MON dynstat_salt_del2            =   7.7099679310679E-04
(PID.TID 0000.0001) %MON dynstat_sst_max              =   2.1626833958854E+01
(PID.TID 0000.0001) %MON dynstat_sst_min              =   1.6082251055438E+01
(PID.TID 0000.0001) %MON dynstat_sst_mean             =   2.0063214997210E+01
(PID.TID 0000.0001) %MON dynstat_sst_sd               =   1.8694820589358E-01
(PID.TID 0000.0001) %MON dynstat_sst_del2             =   4.2935748285250E-03
(PID.TID 0000.0001) %MON dynstat_sss_max              =   3.5150108698455E+01
(PID.TID 0000.0001) %MON dynstat_sss_min              =   2.8654821356152E+01
(PID.TID 0000.0001) %MON dynstat_sss_mean             =   3.4982258466429E+01
(PID.TID 0000.0001) %MON dynstat_sss_sd               =   2.6524571024925E-01
(PID.TID 0000.0001) %MON dynstat_sss_del2             =   1.0445963453642E-02
(PID.TID 0000.0001) %MON forcing_qnet_max             =   6.4454643554688E+03
(PID.TID 0000.0001) %MON forcing_qnet_min             =  -5.9907969467441E+03
(PID.TID 0000.0001) %MON forcing_qnet_mean            =  -9.7650719506000E+01
(PID.TID 0000.0001) %MON forcing_qnet_sd              =   6.6015834891708E+02
(PID.TID 0000.0001) %MON forcing_qnet_del2            =   1.1598737670599E+01
(PID.TID 0000.0001) %MON forcing_qsw_max              =   0.0000000000000E+00
(PID.TID 0000.0001) %MON forcing_qsw_min              =  -1.1142108042057E+02
(PID.TID 0000.0001) %MON forcing_qsw_mean             =  -1.8294048915805E+01
(PID.TID 0000.0001) %MON forcing_qsw_sd               =   2.6389041865263E+01
(PID.TID 0000.0001) %MON forcing_qsw_del2             =   2.6790315920684E-01
(PID.TID 0000.0001) %MON forcing_empmr_max            =   8.6518526077271E-03
(PID.TID 0000.0001) %MON forcing_empmr_min            =  -1.2435177713633E-01
(PID.TID 0000.0001) %MON forcing_empmr_mean           =  -5.1795689795987E-04
(PID.TID 0000.0001) %MON forcing_empmr_sd             =   5.4971211553069E-03
(PID.TID 0000.0001) %MON forcing_empmr_del2           =   2.1643513663587E-04
(PID.TID 0000.0001) %MON forcing_fu_max               =   8.6408536971563E-01
(PID.TID 0000.0001) %MON forcing_fu_min               =  -6.2610483324149E-01
(PID.TID 0000.0001) %MON forcing_fu_mean              =  -2.2783773061746E-04
(PID.TID 0000.0001) %MON forcing_fu_sd                =   9.9072196664093E-02
(PID.TID 0000.0001) %MON forcing_fu_del2              =   8.1887413821952E-04
(PID.TID 0000.0001) %MON forcing_fv_max               =   4.8174082765143E-01
(PID.TID 0000.0001) %MON forcing_fv_min               =  -4.9529129499919E-01
(PID.TID 0000.0001) %MON forcing_fv_mean              =  -3.5221809927593E-03
(PID.TID 0000.0001) %MON forcing_fv_sd                =   8.2914447696327E-02
(PID.TID 0000.0001) %MON forcing_fv_del2              =   7.1693922290605E-04
(PID.TID 0000.0001) %MON trAdv_CFL_u_max              =   2.1263667085138E-03
(PID.TID 0000.0001) %MON trAdv_CFL_v_max              =   3.2425256853799E-03
(PID.TID 0000.0001) %MON trAdv_CFL_w_max              =   4.5721458388920E-03
(PID.TID 0000.0001) %MON advcfl_uvel_max              =   2.0637477518448E-03
(PID.TID 0000.0001) %MON advcfl_vvel_max              =   3.2563134198038E-03
(PID.TID 0000.0001) %MON advcfl_wvel_max              =   8.6505584094835E-03
(PID.TID 0000.0001) %MON advcfl_W_hf_max              =   4.5721458388920E-03
(PID.TID 0000.0001) %MON pe_b_mean                    =   2.4903879661735E-05
(PID.TID 0000.0001) %MON ke_max                       =   4.2440405962579E-01
(PID.TID 0000.0001) %MON ke_mean                      =   5.3893892485006E-05
(PID.TID 0000.0001) %MON ke_vol                       =   1.3398107400024E+18
(PID.TID 0000.0001) %MON vort_r_min                   =  -5.8518699568311E-06
(PID.TID 0000.0001) %MON vort_r_max                   =   2.8688171353555E-06
(PID.TID 0000.0001) %MON vort_a_mean                  =  -2.0549865324846E-05
(PID.TID 0000.0001) %MON vort_a_sd                    =   7.5259240963169E-05
(PID.TID 0000.0001) %MON vort_p_mean                  =  -2.4783370045494E-05
(PID.TID 0000.0001) %MON vort_p_sd                    =   1.2810558835895E-04
(PID.TID 0000.0001) %MON surfExpan_theta_mean         =  -3.2565516996679E-07
(PID.TID 0000.0001) %MON surfExpan_salt_mean          =   1.4099671037802E-06
(PID.TID 0000.0001) // =======================================================
(PID.TID 0000.0001) // End MONITOR dynamic field statistics
(PID.TID 0000.0001) // =======================================================
(PID.TID 0000.0001) DEBUG_MSG: LEAVING S/R FORWARD_STEP
(PID.TID 0000.0001) DEBUG_MSG: ENTERED S/R FORWARD_STEP
(PID.TID 0000.0001) DEBUG_MSG: CALLING S/R LOAD_FIELDS_DRIVER
(PID.TID 0000.0001) DEBUG_MSG: ENTERED S/R LOAD_FIELDS_DRIVER
(PID.TID 0000.0001) DEBUG_MSG: CALLING S/R EXTERNAL_FIELDS_LOAD
(PID.TID 0000.0001) DEBUG_MSG: LEAVING S/R LOAD_FIELDS_DRIVER
(PID.TID 0000.0001) DEBUG_MSG: CALLING S/R DO_ATMOSPHERIC_PHYS
(PID.TID 0000.0001) DEBUG_MSG: ENTERED S/R DO_ATMOSPHERIC_PHYS
(PID.TID 0000.0001) DEBUG_MSG: LEAVING S/R DO_ATMOSPHERIC_PHYS
(PID.TID 0000.0001) DEBUG_MSG: CALLING S/R DO_OCEANIC_PHYS
(PID.TID 0000.0001) DEBUG_MSG: ENTERED S/R DO_OCEANIC_PHYS
(PID.TID 0000.0001) DEBUG_MSG: CALLING S/R EXTERNAL_FORCING_SURF
(PID.TID 0000.0001) DEBUG_MSG: CALLING S/R FIND_RHO_2D (xNr)
(PID.TID 0000.0001) DEBUG_MSG:                  ENTERING UPWARD K LOOP (bi=   1, bj=   1)
(PID.TID 0000.0001) DEBUG_MSG: CALLING S/R GRAD_SIGMA
(PID.TID 0000.0001) DEBUG_MSG: CALLING S/R CALC_IVDC
(PID.TID 0000.0001) DEBUG_MSG: CALLING S/R GRAD_SIGMA
(PID.TID 0000.0001) DEBUG_MSG: CALLING S/R CALC_IVDC
(PID.TID 0000.0001) DEBUG_MSG: CALLING S/R GRAD_SIGMA
(PID.TID 0000.0001) DEBUG_MSG: CALLING S/R CALC_IVDC
(PID.TID 0000.0001) DEBUG_MSG: CALLING S/R GRAD_SIGMA
(PID.TID 0000.0001) DEBUG_MSG: CALLING S/R CALC_IVDC
(PID.TID 0000.0001) DEBUG_MSG: CALLING S/R GRAD_SIGMA
(PID.TID 0000.0001) DEBUG_MSG: CALLING S/R CALC_IVDC
(PID.TID 0000.0001) DEBUG_MSG: CALLING S/R GRAD_SIGMA
(PID.TID 0000.0001) DEBUG_MSG: CALLING S/R CALC_IVDC
(PID.TID 0000.0001) DEBUG_MSG: CALLING S/R GRAD_SIGMA
(PID.TID 0000.0001) DEBUG_MSG: CALLING S/R CALC_IVDC
(PID.TID 0000.0001) DEBUG_MSG: CALLING S/R GRAD_SIGMA
(PID.TID 0000.0001) DEBUG_MSG: CALLING S/R CALC_IVDC
(PID.TID 0000.0001) DEBUG_MSG: CALLING S/R GRAD_SIGMA
(PID.TID 0000.0001) DEBUG_MSG: CALLING S/R CALC_IVDC
(PID.TID 0000.0001) DEBUG_MSG: CALLING S/R GRAD_SIGMA
(PID.TID 0000.0001) DEBUG_MSG: CALLING S/R CALC_IVDC
(PID.TID 0000.0001) DEBUG_MSG: CALLING S/R GRAD_SIGMA
(PID.TID 0000.0001) DEBUG_MSG: CALLING S/R CALC_IVDC
(PID.TID 0000.0001) DEBUG_MSG: CALLING S/R GRAD_SIGMA
(PID.TID 0000.0001) DEBUG_MSG: CALLING S/R CALC_IVDC
(PID.TID 0000.0001) DEBUG_MSG: CALLING S/R GRAD_SIGMA
(PID.TID 0000.0001) DEBUG_MSG: CALLING S/R CALC_IVDC
(PID.TID 0000.0001) DEBUG_MSG: CALLING S/R GRAD_SIGMA
(PID.TID 0000.0001) DEBUG_MSG: CALLING S/R CALC_IVDC
(PID.TID 0000.0001) DEBUG_MSG: CALLING S/R GRAD_SIGMA
(PID.TID 0000.0001) DEBUG_MSG: CALLING S/R CALC_IVDC
(PID.TID 0000.0001) DEBUG_MSG: CALLING S/R GRAD_SIGMA
(PID.TID 0000.0001) DEBUG_MSG: CALLING S/R GMREDI_CALC_TENSOR
(PID.TID 0000.0001) DEBUG_MSG: LEAVING S/R DO_OCEANIC_PHYS
(PID.TID 0000.0001) DEBUG_MSG: CALLING S/R DYNAMICS
(PID.TID 0000.0001) DEBUG_MSG: ENTERED S/R DYNAMICS
DEBUG_STATS_RL:                EtaN (DYNAMICS)  min= -4.49522244632512E+00
DEBUG_STATS_RL:                EtaN (DYNAMICS)  max=  3.58001207455304E+00
DEBUG_STATS_RL:                EtaN (DYNAMICS) mean=  2.48348264810867E-02
DEBUG_STATS_RL:                EtaN (DYNAMICS) S.D.=  1.38349040761183E-01
DEBUG_STATS_RL:                Uvel (DYNAMICS)  min= -6.16913953767394E-01
DEBUG_STATS_RL:                Uvel (DYNAMICS)  max=  6.18858222773478E-01
DEBUG_STATS_RL:                Uvel (DYNAMICS) mean=  2.40981626820586E-04
DEBUG_STATS_RL:                Uvel (DYNAMICS) S.D.=  2.12588144661973E-02
DEBUG_STATS_RL:                Vvel (DYNAMICS)  min= -9.52972904254784E-01
DEBUG_STATS_RL:                Vvel (DYNAMICS)  max=  5.74286238534160E-01
DEBUG_STATS_RL:                Vvel (DYNAMICS) mean= -6.82755710584965E-04
DEBUG_STATS_RL:                Vvel (DYNAMICS) S.D.=  2.49707669609062E-02
DEBUG_STATS_RL:                Wvel (DYNAMICS)  min= -4.59741036077601E-04
DEBUG_STATS_RL:                Wvel (DYNAMICS)  max=  1.40934067016527E-04
DEBUG_STATS_RL:                Wvel (DYNAMICS) mean= -4.93386675547615E-07
DEBUG_STATS_RL:                Wvel (DYNAMICS) S.D.=  9.32283635405083E-06
DEBUG_STATS_RL:               Theta (DYNAMICS)  min=  1.60813141047104E+01
DEBUG_STATS_RL:               Theta (DYNAMICS)  max=  2.16268339588542E+01
DEBUG_STATS_RL:               Theta (DYNAMICS) mean=  1.99979318069097E+01
DEBUG_STATS_RL:               Theta (DYNAMICS) S.D.=  6.46838649965454E-02
DEBUG_STATS_RL:                Salt (DYNAMICS)  min=  2.86548213561524E+01
DEBUG_STATS_RL:                Salt (DYNAMICS)  max=  3.51501086984554E+01
DEBUG_STATS_RL:                Salt (DYNAMICS) mean=  3.49984404410402E+01
DEBUG_STATS_RL:                Salt (DYNAMICS) S.D.=  7.12075410261038E-02
DEBUG_STATS_RL:                  Gu (DYNAMICS)  min= -6.36944141429657E-01
DEBUG_STATS_RL:                  Gu (DYNAMICS)  max=  5.55515987109302E-01
DEBUG_STATS_RL:                  Gu (DYNAMICS) mean=  1.78269525595638E-04
DEBUG_STATS_RL:                  Gu (DYNAMICS) S.D.=  2.12023523255697E-02
DEBUG_STATS_RL:                  Gv (DYNAMICS)  min= -9.38272969137773E-01
DEBUG_STATS_RL:                  Gv (DYNAMICS)  max=  5.98080140897184E-01
DEBUG_STATS_RL:                  Gv (DYNAMICS) mean= -7.29959438074994E-04
DEBUG_STATS_RL:                  Gv (DYNAMICS) S.D.=  2.52789802150547E-02
DEBUG_STATS_RL:               GuNm1 (DYNAMICS)  min= -7.24199203561775E-05
DEBUG_STATS_RL:               GuNm1 (DYNAMICS)  max=  2.37028441869368E-05
DEBUG_STATS_RL:               GuNm1 (DYNAMICS) mean= -6.96174520137907E-08
DEBUG_STATS_RL:               GuNm1 (DYNAMICS) S.D.=  1.64295561009412E-06
DEBUG_STATS_RL:               GvNm1 (DYNAMICS)  min= -3.97208803711356E-05
DEBUG_STATS_RL:               GvNm1 (DYNAMICS)  max=  4.29369171294311E-05
DEBUG_STATS_RL:               GvNm1 (DYNAMICS) mean= -5.40514261982108E-08
DEBUG_STATS_RL:               GvNm1 (DYNAMICS) S.D.=  1.38414366603810E-06
DEBUG_STATS_RL:               GtNm1 (DYNAMICS)  min= -3.40268559015524E-06
DEBUG_STATS_RL:               GtNm1 (DYNAMICS)  max=  5.20469051222120E-06
DEBUG_STATS_RL:               GtNm1 (DYNAMICS) mean=  8.43390857167766E-10
DEBUG_STATS_RL:               GtNm1 (DYNAMICS) S.D.=  6.68956737267387E-08
DEBUG_STATS_RL:               GsNm1 (DYNAMICS)  min= -1.41401287285877E-05
DEBUG_STATS_RL:               GsNm1 (DYNAMICS)  max=  2.23644113997325E-06
DEBUG_STATS_RL:               GsNm1 (DYNAMICS) mean= -3.93107884075940E-09
DEBUG_STATS_RL:               GsNm1 (DYNAMICS) S.D.=  1.78242602453927E-07
(PID.TID 0000.0001) DEBUG_MSG: LEAVING S/R DYNAMICS
DEBUG_STATS_RL:    cg2d_b (SOLVE_FOR_PRESSURE)  min= -3.84417405964391E+05
DEBUG_STATS_RL:    cg2d_b (SOLVE_FOR_PRESSURE)  max=  4.08165445735930E+05
DEBUG_STATS_RL:    cg2d_b (SOLVE_FOR_PRESSURE) mean= -2.40799279348373E+03
DEBUG_STATS_RL:    cg2d_b (SOLVE_FOR_PRESSURE) S.D.=  1.36714074201217E+04
 cg2d: Sum(rhs),rhsMax =  -2.60760146611822E+01  7.81904754707392E+01
(PID.TID 0000.0001)  cg2d: iter=     1 ; resid.=  3.25810750583371E-02
(PID.TID 0000.0001)  cg2d: iter=     2 ; resid.=  4.20086165760808E-03
(PID.TID 0000.0001)  cg2d: iter=     3 ; resid.=  9.34529328965762E-04
(PID.TID 0000.0001)  cg2d: iter=     4 ; resid.=  3.18246944840932E-04
(PID.TID 0000.0001)  cg2d: iter=     5 ; resid.=  9.16818914096040E-05
(PID.TID 0000.0001)  cg2d: iter=     6 ; resid.=  1.89499759378240E-05
(PID.TID 0000.0001)  cg2d: iter=     7 ; resid.=  4.05703306988847E-06
(PID.TID 0000.0001)  cg2d: iter=     8 ; resid.=  9.68096618218858E-07
(PID.TID 0000.0001)  cg2d: iter=     9 ; resid.=  3.07078423652351E-07
(PID.TID 0000.0001)  cg2d: iter=    10 ; resid.=  8.78961843413894E-08
DEBUG_STATS_RL:    cg2d_x (SOLVE_FOR_PRESSURE)  min= -4.31791379254089E+01
DEBUG_STATS_RL:    cg2d_x (SOLVE_FOR_PRESSURE)  max=  3.30157964323944E+01
DEBUG_STATS_RL:    cg2d_x (SOLVE_FOR_PRESSURE) mean=  2.48389723189617E-01
DEBUG_STATS_RL:    cg2d_x (SOLVE_FOR_PRESSURE) S.D.=  1.33437706131135E+00
(PID.TID 0000.0001)      cg2d_init_res =   2.25473198429708E-01
(PID.TID 0000.0001)      cg2d_iters(min,last) =      -1      10
(PID.TID 0000.0001)      cg2d_last_res =   8.78961843413894E-08
(PID.TID 0000.0001) DEBUG_MSG: CALLING S/R UPDATE_ETAH
(PID.TID 0000.0001) DEBUG_MSG: ENTERED S/R CALC_R_STAR
(PID.TID 0000.0001) DEBUG_MSG: LEAVING S/R CALC_R_STAR
(PID.TID 0000.0001) DEBUG_MSG: CALLING S/R DO_STAGGER_FIELDS_EXCH.
(PID.TID 0000.0001) DEBUG_MSG: CALLING S/R THERMODYNAMICS
(PID.TID 0000.0001) DEBUG_MSG: ENTERED S/R THERMODYNAMICS
(PID.TID 0000.0001) DEBUG_MSG: CALLING S/R TEMP_INTEGRATE
(PID.TID 0000.0001) DEBUG_MSG: CALLING S/R SALT_INTEGRATE
DEBUG_STATS_RL:          Uvel (THERMODYNAMICS)  min= -6.64897234388541E-01
DEBUG_STATS_RL:          Uvel (THERMODYNAMICS)  max=  4.43422679617107E-01
DEBUG_STATS_RL:          Uvel (THERMODYNAMICS) mean=  1.68069396831656E-04
DEBUG_STATS_RL:          Uvel (THERMODYNAMICS) S.D.=  2.10345134757524E-02
DEBUG_STATS_RL:          Vvel (THERMODYNAMICS)  min= -9.31190914354656E-01
DEBUG_STATS_RL:          Vvel (THERMODYNAMICS)  max=  5.97634249737117E-01
DEBUG_STATS_RL:          Vvel (THERMODYNAMICS) mean= -7.19214008174200E-04
DEBUG_STATS_RL:          Vvel (THERMODYNAMICS) S.D.=  2.55552861273929E-02
DEBUG_STATS_RL:          Wvel (THERMODYNAMICS)  min= -4.53462396429596E-04
DEBUG_STATS_RL:          Wvel (THERMODYNAMICS)  max=  1.54344454555068E-04
DEBUG_STATS_RL:          Wvel (THERMODYNAMICS) mean= -4.68922912688199E-07
DEBUG_STATS_RL:          Wvel (THERMODYNAMICS) S.D.=  9.31367510966526E-06
DEBUG_STATS_RL:         Theta (THERMODYNAMICS)  min=  1.60812007815114E+01
DEBUG_STATS_RL:         Theta (THERMODYNAMICS)  max=  2.16815941177935E+01
DEBUG_STATS_RL:         Theta (THERMODYNAMICS) mean=  1.99981176168513E+01
DEBUG_STATS_RL:         Theta (THERMODYNAMICS) S.D.=  6.53961542783385E-02
DEBUG_STATS_RL:          Salt (THERMODYNAMICS)  min=  2.84811367856309E+01
DEBUG_STATS_RL:          Salt (THERMODYNAMICS)  max=  3.51501466783475E+01
DEBUG_STATS_RL:          Salt (THERMODYNAMICS) mean=  3.49983957380454E+01
DEBUG_STATS_RL:          Salt (THERMODYNAMICS) S.D.=  7.31961439158381E-02
DEBUG_STATS_RL:         GtNm1 (THERMODYNAMICS)  min= -2.57563731446073E-06
DEBUG_STATS_RL:         GtNm1 (THERMODYNAMICS)  max=  5.51846934967645E-06
DEBUG_STATS_RL:         GtNm1 (THERMODYNAMICS) mean=  1.21128524008356E-09
DEBUG_STATS_RL:         GtNm1 (THERMODYNAMICS) S.D.=  7.04309181640410E-08
DEBUG_STATS_RL:         GsNm1 (THERMODYNAMICS)  min= -1.43847862834544E-05
DEBUG_STATS_RL:         GsNm1 (THERMODYNAMICS)  max=  2.24259845930133E-06
DEBUG_STATS_RL:         GsNm1 (THERMODYNAMICS) mean= -3.98840244623970E-09
DEBUG_STATS_RL:         GsNm1 (THERMODYNAMICS) S.D.=  1.81066487737737E-07
(PID.TID 0000.0001) DEBUG_MSG: LEAVING S/R THERMODYNAMICS
(PID.TID 0000.0001) // =======================================================
(PID.TID 0000.0001) // Begin MONITOR dynamic field statistics
(PID.TID 0000.0001) // =======================================================
(PID.TID 0000.0001) %MON time_tsnumber                =                    26
(PID.TID 0000.0001) %MON time_secondsf                =   2.3400000000000E+04
(PID.TID 0000.0001) %MON dynstat_eta_max              =   3.3655246011566E+00
(PID.TID 0000.0001) %MON dynstat_eta_min              =  -4.4015431114337E+00
(PID.TID 0000.0001) %MON dynstat_eta_mean             =   2.3691701044854E-02
(PID.TID 0000.0001) %MON dynstat_eta_sd               =   1.3225437835242E-01
(PID.TID 0000.0001) %MON dynstat_eta_del2             =   3.6050071771030E-03
(PID.TID 0000.0001) %MON dynstat_uvel_max             =   4.4342267961711E-01
(PID.TID 0000.0001) %MON dynstat_uvel_min             =  -6.6489723438854E-01
(PID.TID 0000.0001) %MON dynstat_uvel_mean            =   3.5916280979015E-04
(PID.TID 0000.0001) %MON dynstat_uvel_sd              =   6.9614247923167E-03
(PID.TID 0000.0001) %MON dynstat_uvel_del2            =   9.5877478548960E-05
(PID.TID 0000.0001) %MON dynstat_vvel_max             =   5.9763424973712E-01
(PID.TID 0000.0001) %MON dynstat_vvel_min             =  -9.3119091435466E-01
(PID.TID 0000.0001) %MON dynstat_vvel_mean            =  -3.1471994188263E-05
(PID.TID 0000.0001) %MON dynstat_vvel_sd              =   8.3683520995485E-03
(PID.TID 0000.0001) %MON dynstat_vvel_del2            =   1.2795271755041E-04
(PID.TID 0000.0001) %MON dynstat_wvel_max             =   1.5434445455507E-04
(PID.TID 0000.0001) %MON dynstat_wvel_min             =  -4.5346239642960E-04
(PID.TID 0000.0001) %MON dynstat_wvel_mean            =  -3.3344314916444E-07
(PID.TID 0000.0001) %MON dynstat_wvel_sd              =   8.7383796279189E-06
(PID.TID 0000.0001) %MON dynstat_wvel_del2            =   7.6150463353499E-08
(PID.TID 0000.0001) %MON dynstat_theta_max            =   2.1681594117794E+01
(PID.TID 0000.0001) %MON dynstat_theta_min            =   1.6081200781511E+01
(PID.TID 0000.0001) %MON dynstat_theta_mean           =   1.9997839146477E+01
(PID.TID 0000.0001) %MON dynstat_theta_sd             =   2.2096204229565E-02
(PID.TID 0000.0001) %MON dynstat_theta_del2           =   4.1566636654237E-04
(PID.TID 0000.0001) %MON dynstat_salt_max             =   3.5150146678348E+01
(PID.TID 0000.0001) %MON dynstat_salt_min             =   2.8481136785631E+01
(PID.TID 0000.0001) %MON dynstat_salt_mean            =   3.4999773253725E+01
(PID.TID 0000.0001) %MON dynstat_salt_sd              =   2.2610096728222E-02
(PID.TID 0000.0001) %MON dynstat_salt_del2            =   7.9224806047751E-04
(PID.TID 0000.0001) %MON dynstat_sst_max              =   2.1681594117794E+01
(PID.TID 0000.0001) %MON dynstat_sst_min              =   1.6081200781511E+01
(PID.TID 0000.0001) %MON dynstat_sst_mean             =   2.0065708976013E+01
(PID.TID 0000.0001) %MON dynstat_sst_sd               =   1.8969643349742E-01
(PID.TID 0000.0001) %MON dynstat_sst_del2             =   4.3469999134577E-03
(PID.TID 0000.0001) %MON dynstat_sss_max              =   3.5150146678348E+01
(PID.TID 0000.0001) %MON dynstat_sss_min              =   2.8481136785631E+01
(PID.TID 0000.0001) %MON dynstat_sss_mean             =   3.4981664913924E+01
(PID.TID 0000.0001) %MON dynstat_sss_sd               =   2.7266535078725E-01
(PID.TID 0000.0001) %MON dynstat_sss_del2             =   1.0733901416616E-02
(PID.TID 0000.0001) %MON forcing_qnet_max             =   7.1155219726562E+03
(PID.TID 0000.0001) %MON forcing_qnet_min             =  -5.9015354630992E+03
(PID.TID 0000.0001) %MON forcing_qnet_mean            =  -9.0876260467916E+01
(PID.TID 0000.0001) %MON forcing_qnet_sd              =   6.5442159382781E+02
(PID.TID 0000.0001) %MON forcing_qnet_del2            =   1.1362604847686E+01
(PID.TID 0000.0001) %MON forcing_qsw_max              =   0.0000000000000E+00
(PID.TID 0000.0001) %MON forcing_qsw_min              =  -1.1096917536601E+02
(PID.TID 0000.0001) %MON forcing_qsw_mean             =  -1.8085617326080E+01
(PID.TID 0000.0001) %MON forcing_qsw_sd               =   2.6144639229870E+01
(PID.TID 0000.0001) %MON forcing_qsw_del2             =   2.6718177253816E-01
(PID.TID 0000.0001) %MON forcing_empmr_max            =   8.5626496002078E-03
(PID.TID 0000.0001) %MON forcing_empmr_min            =  -1.2307049334049E-01
(PID.TID 0000.0001) %MON forcing_empmr_mean           =  -5.1375029471198E-04
(PID.TID 0000.0001) %MON forcing_empmr_sd             =   5.4432523506632E-03
(PID.TID 0000.0001) %MON forcing_empmr_del2           =   2.1427488704198E-04
(PID.TID 0000.0001) %MON forcing_fu_max               =   8.5676717830916E-01
(PID.TID 0000.0001) %MON forcing_fu_min               =  -6.2404048065860E-01
(PID.TID 0000.0001) %MON forcing_fu_mean              =  -2.3496216959359E-04
(PID.TID 0000.0001) %MON forcing_fu_sd                =   9.8343597553629E-02
(PID.TID 0000.0001) %MON forcing_fu_del2              =   8.1190939432305E-04
(PID.TID 0000.0001) %MON forcing_fv_max               =   4.8045453537835E-01
(PID.TID 0000.0001) %MON forcing_fv_min               =  -4.8307462515269E-01
(PID.TID 0000.0001) %MON forcing_fv_mean              =  -3.4638273970652E-03
(PID.TID 0000.0001) %MON forcing_fv_sd                =   8.2369133797984E-02
(PID.TID 0000.0001) %MON forcing_fv_del2              =   7.1068093324967E-04
(PID.TID 0000.0001) %MON trAdv_CFL_u_max              =   1.9521171950138E-03
(PID.TID 0000.0001) %MON trAdv_CFL_v_max              =   3.7157430638426E-03
(PID.TID 0000.0001) %MON trAdv_CFL_w_max              =   4.5103920501149E-03
(PID.TID 0000.0001) %MON advcfl_uvel_max              =   1.9569501733440E-03
(PID.TID 0000.0001) %MON advcfl_vvel_max              =   3.1818842458943E-03
(PID.TID 0000.0001) %MON advcfl_wvel_max              =   8.5614256236864E-03
(PID.TID 0000.0001) %MON advcfl_W_hf_max              =   4.5103920501149E-03
(PID.TID 0000.0001) %MON pe_b_mean                    =   2.4049137238608E-05
(PID.TID 0000.0001) %MON ke_max                       =   3.8578036138259E-01
(PID.TID 0000.0001) %MON ke_mean                      =   5.4814506612652E-05
(PID.TID 0000.0001) %MON ke_vol                       =   1.3398109038960E+18
(PID.TID 0000.0001) %MON vort_r_min                   =  -5.1489391413746E-06
(PID.TID 0000.0001) %MON vort_r_max                   =   2.8031078162524E-06
(PID.TID 0000.0001) %MON vort_a_mean                  =  -2.0549865324846E-05
(PID.TID 0000.0001) %MON vort_a_sd                    =   7.5259236025934E-05
(PID.TID 0000.0001) %MON vort_p_mean                  =  -2.4783366807531E-05
(PID.TID 0000.0001) %MON vort_p_sd                    =   1.2810553449666E-04
(PID.TID 0000.0001) %MON surfExpan_theta_mean         =  -4.5570516323854E-07
(PID.TID 0000.0001) %MON surfExpan_salt_mean          =   1.4302003488084E-06
(PID.TID 0000.0001) // =======================================================
(PID.TID 0000.0001) // End MONITOR dynamic field statistics
(PID.TID 0000.0001) // =======================================================
(PID.TID 0000.0001) DEBUG_MSG: LEAVING S/R FORWARD_STEP
(PID.TID 0000.0001) DEBUG_MSG: ENTERED S/R FORWARD_STEP
(PID.TID 0000.0001) DEBUG_MSG: CALLING S/R LOAD_FIELDS_DRIVER
(PID.TID 0000.0001) DEBUG_MSG: ENTERED S/R LOAD_FIELDS_DRIVER
(PID.TID 0000.0001) DEBUG_MSG: CALLING S/R EXTERNAL_FIELDS_LOAD
(PID.TID 0000.0001) DEBUG_MSG: LEAVING S/R LOAD_FIELDS_DRIVER
(PID.TID 0000.0001) DEBUG_MSG: CALLING S/R DO_ATMOSPHERIC_PHYS
(PID.TID 0000.0001) DEBUG_MSG: ENTERED S/R DO_ATMOSPHERIC_PHYS
(PID.TID 0000.0001) DEBUG_MSG: LEAVING S/R DO_ATMOSPHERIC_PHYS
(PID.TID 0000.0001) DEBUG_MSG: CALLING S/R DO_OCEANIC_PHYS
(PID.TID 0000.0001) DEBUG_MSG: ENTERED S/R DO_OCEANIC_PHYS
(PID.TID 0000.0001) DEBUG_MSG: CALLING S/R EXTERNAL_FORCING_SURF
(PID.TID 0000.0001) DEBUG_MSG: CALLING S/R FIND_RHO_2D (xNr)
(PID.TID 0000.0001) DEBUG_MSG:                  ENTERING UPWARD K LOOP (bi=   1, bj=   1)
(PID.TID 0000.0001) DEBUG_MSG: CALLING S/R GRAD_SIGMA
(PID.TID 0000.0001) DEBUG_MSG: CALLING S/R CALC_IVDC
(PID.TID 0000.0001) DEBUG_MSG: CALLING S/R GRAD_SIGMA
(PID.TID 0000.0001) DEBUG_MSG: CALLING S/R CALC_IVDC
(PID.TID 0000.0001) DEBUG_MSG: CALLING S/R GRAD_SIGMA
(PID.TID 0000.0001) DEBUG_MSG: CALLING S/R CALC_IVDC
(PID.TID 0000.0001) DEBUG_MSG: CALLING S/R GRAD_SIGMA
(PID.TID 0000.0001) DEBUG_MSG: CALLING S/R CALC_IVDC
(PID.TID 0000.0001) DEBUG_MSG: CALLING S/R GRAD_SIGMA
(PID.TID 0000.0001) DEBUG_MSG: CALLING S/R CALC_IVDC
(PID.TID 0000.0001) DEBUG_MSG: CALLING S/R GRAD_SIGMA
(PID.TID 0000.0001) DEBUG_MSG: CALLING S/R CALC_IVDC
(PID.TID 0000.0001) DEBUG_MSG: CALLING S/R GRAD_SIGMA
(PID.TID 0000.0001) DEBUG_MSG: CALLING S/R CALC_IVDC
(PID.TID 0000.0001) DEBUG_MSG: CALLING S/R GRAD_SIGMA
(PID.TID 0000.0001) DEBUG_MSG: CALLING S/R CALC_IVDC
(PID.TID 0000.0001) DEBUG_MSG: CALLING S/R GRAD_SIGMA
(PID.TID 0000.0001) DEBUG_MSG: CALLING S/R CALC_IVDC
(PID.TID 0000.0001) DEBUG_MSG: CALLING S/R GRAD_SIGMA
(PID.TID 0000.0001) DEBUG_MSG: CALLING S/R CALC_IVDC
(PID.TID 0000.0001) DEBUG_MSG: CALLING S/R GRAD_SIGMA
(PID.TID 0000.0001) DEBUG_MSG: CALLING S/R CALC_IVDC
(PID.TID 0000.0001) DEBUG_MSG: CALLING S/R GRAD_SIGMA
(PID.TID 0000.0001) DEBUG_MSG: CALLING S/R CALC_IVDC
(PID.TID 0000.0001) DEBUG_MSG: CALLING S/R GRAD_SIGMA
(PID.TID 0000.0001) DEBUG_MSG: CALLING S/R CALC_IVDC
(PID.TID 0000.0001) DEBUG_MSG: CALLING S/R GRAD_SIGMA
(PID.TID 0000.0001) DEBUG_MSG: CALLING S/R CALC_IVDC
(PID.TID 0000.0001) DEBUG_MSG: CALLING S/R GRAD_SIGMA
(PID.TID 0000.0001) DEBUG_MSG: CALLING S/R CALC_IVDC
(PID.TID 0000.0001) DEBUG_MSG: CALLING S/R GRAD_SIGMA
(PID.TID 0000.0001) DEBUG_MSG: CALLING S/R GMREDI_CALC_TENSOR
(PID.TID 0000.0001) DEBUG_MSG: LEAVING S/R DO_OCEANIC_PHYS
(PID.TID 0000.0001) DEBUG_MSG: CALLING S/R DYNAMICS
(PID.TID 0000.0001) DEBUG_MSG: ENTERED S/R DYNAMICS
DEBUG_STATS_RL:                EtaN (DYNAMICS)  min= -4.40154311143373E+00
DEBUG_STATS_RL:                EtaN (DYNAMICS)  max=  3.36552460115660E+00
DEBUG_STATS_RL:                EtaN (DYNAMICS) mean=  2.53200529350946E-02
DEBUG_STATS_RL:                EtaN (DYNAMICS) S.D.=  1.36022126328779E-01
DEBUG_STATS_RL:                Uvel (DYNAMICS)  min= -6.64897234388541E-01
DEBUG_STATS_RL:                Uvel (DYNAMICS)  max=  4.43422679617107E-01
DEBUG_STATS_RL:                Uvel (DYNAMICS) mean=  1.68069396831656E-04
DEBUG_STATS_RL:                Uvel (DYNAMICS) S.D.=  2.10345134757524E-02
DEBUG_STATS_RL:                Vvel (DYNAMICS)  min= -9.31190914354656E-01
DEBUG_STATS_RL:                Vvel (DYNAMICS)  max=  5.97634249737117E-01
DEBUG_STATS_RL:                Vvel (DYNAMICS) mean= -7.19214008174200E-04
DEBUG_STATS_RL:                Vvel (DYNAMICS) S.D.=  2.55552861273929E-02
DEBUG_STATS_RL:                Wvel (DYNAMICS)  min= -4.53462396429596E-04
DEBUG_STATS_RL:                Wvel (DYNAMICS)  max=  1.54344454555068E-04
DEBUG_STATS_RL:                Wvel (DYNAMICS) mean= -4.68922912688199E-07
DEBUG_STATS_RL:                Wvel (DYNAMICS) S.D.=  9.31367510966526E-06
DEBUG_STATS_RL:               Theta (DYNAMICS)  min=  1.60812007815114E+01
DEBUG_STATS_RL:               Theta (DYNAMICS)  max=  2.16815941177935E+01
DEBUG_STATS_RL:               Theta (DYNAMICS) mean=  1.99981176168513E+01
DEBUG_STATS_RL:               Theta (DYNAMICS) S.D.=  6.53961542783385E-02
DEBUG_STATS_RL:                Salt (DYNAMICS)  min=  2.84811367856309E+01
DEBUG_STATS_RL:                Salt (DYNAMICS)  max=  3.51501466783475E+01
DEBUG_STATS_RL:                Salt (DYNAMICS) mean=  3.49983957380454E+01
DEBUG_STATS_RL:                Salt (DYNAMICS) S.D.=  7.31961439158381E-02
DEBUG_STATS_RL:                  Gu (DYNAMICS)  min= -6.84399769305598E-01
DEBUG_STATS_RL:                  Gu (DYNAMICS)  max=  4.32482535131512E-01
DEBUG_STATS_RL:                  Gu (DYNAMICS) mean=  1.04885584598706E-04
DEBUG_STATS_RL:                  Gu (DYNAMICS) S.D.=  2.09996019070052E-02
DEBUG_STATS_RL:                  Gv (DYNAMICS)  min= -9.09891607032032E-01
DEBUG_STATS_RL:                  Gv (DYNAMICS)  max=  6.18530928931598E-01
DEBUG_STATS_RL:                  Gv (DYNAMICS) mean= -7.64300946771348E-04
DEBUG_STATS_RL:                  Gv (DYNAMICS) S.D.=  2.57872219329850E-02
DEBUG_STATS_RL:               GuNm1 (DYNAMICS)  min= -7.30485842735864E-05
DEBUG_STATS_RL:               GuNm1 (DYNAMICS)  max=  2.23989053925932E-05
DEBUG_STATS_RL:               GuNm1 (DYNAMICS) mean= -7.03961907670077E-08
DEBUG_STATS_RL:               GuNm1 (DYNAMICS) S.D.=  1.66667989601743E-06
DEBUG_STATS_RL:               GvNm1 (DYNAMICS)  min= -3.30413773730690E-05
DEBUG_STATS_RL:               GvNm1 (DYNAMICS)  max=  4.26987065404965E-05
DEBUG_STATS_RL:               GvNm1 (DYNAMICS) mean= -5.20275997490577E-08
DEBUG_STATS_RL:               GvNm1 (DYNAMICS) S.D.=  1.35787507073917E-06
DEBUG_STATS_RL:               GtNm1 (DYNAMICS)  min= -2.57563731446073E-06
DEBUG_STATS_RL:               GtNm1 (DYNAMICS)  max=  5.51846934967645E-06
DEBUG_STATS_RL:               GtNm1 (DYNAMICS) mean=  1.21128524008356E-09
DEBUG_STATS_RL:               GtNm1 (DYNAMICS) S.D.=  7.04309181640410E-08
DEBUG_STATS_RL:               GsNm1 (DYNAMICS)  min= -1.43847862834544E-05
DEBUG_STATS_RL:               GsNm1 (DYNAMICS)  max=  2.24259845930133E-06
DEBUG_STATS_RL:               GsNm1 (DYNAMICS) mean= -3.98840244623970E-09
DEBUG_STATS_RL:               GsNm1 (DYNAMICS) S.D.=  1.81066487737737E-07
(PID.TID 0000.0001) DEBUG_MSG: LEAVING S/R DYNAMICS
DEBUG_STATS_RL:    cg2d_b (SOLVE_FOR_PRESSURE)  min= -3.56617700554480E+05
DEBUG_STATS_RL:    cg2d_b (SOLVE_FOR_PRESSURE)  max=  3.92474389383766E+05
DEBUG_STATS_RL:    cg2d_b (SOLVE_FOR_PRESSURE) mean= -2.45326021386890E+03
DEBUG_STATS_RL:    cg2d_b (SOLVE_FOR_PRESSURE) S.D.=  1.33198767770768E+04
 cg2d: Sum(rhs),rhsMax =  -2.76283254108021E+01  7.51846081940476E+01
(PID.TID 0000.0001)  cg2d: iter=     1 ; resid.=  3.34467265254347E-02
(PID.TID 0000.0001)  cg2d: iter=     2 ; resid.=  4.63912088340633E-03
(PID.TID 0000.0001)  cg2d: iter=     3 ; resid.=  1.00266037102234E-03
(PID.TID 0000.0001)  cg2d: iter=     4 ; resid.=  3.27097087514725E-04
(PID.TID 0000.0001)  cg2d: iter=     5 ; resid.=  1.00567866146360E-04
(PID.TID 0000.0001)  cg2d: iter=     6 ; resid.=  2.11526591636608E-05
(PID.TID 0000.0001)  cg2d: iter=     7 ; resid.=  4.47635689694256E-06
(PID.TID 0000.0001)  cg2d: iter=     8 ; resid.=  1.07833323163205E-06
(PID.TID 0000.0001)  cg2d: iter=     9 ; resid.=  3.50798593631969E-07
(PID.TID 0000.0001)  cg2d: iter=    10 ; resid.=  9.70673022527607E-08
DEBUG_STATS_RL:    cg2d_x (SOLVE_FOR_PRESSURE)  min= -4.15112700235744E+01
DEBUG_STATS_RL:    cg2d_x (SOLVE_FOR_PRESSURE)  max=  3.06376477289405E+01
DEBUG_STATS_RL:    cg2d_x (SOLVE_FOR_PRESSURE) mean=  2.52918262697422E-01
DEBUG_STATS_RL:    cg2d_x (SOLVE_FOR_PRESSURE) S.D.=  1.30410977864945E+00
(PID.TID 0000.0001)      cg2d_init_res =   2.41848788858393E-01
(PID.TID 0000.0001)      cg2d_iters(min,last) =      -1      10
(PID.TID 0000.0001)      cg2d_last_res =   9.70673022527607E-08
(PID.TID 0000.0001) DEBUG_MSG: CALLING S/R UPDATE_ETAH
(PID.TID 0000.0001) DEBUG_MSG: ENTERED S/R CALC_R_STAR
(PID.TID 0000.0001) DEBUG_MSG: LEAVING S/R CALC_R_STAR
(PID.TID 0000.0001) DEBUG_MSG: CALLING S/R DO_STAGGER_FIELDS_EXCH.
(PID.TID 0000.0001) DEBUG_MSG: CALLING S/R THERMODYNAMICS
(PID.TID 0000.0001) DEBUG_MSG: ENTERED S/R THERMODYNAMICS
(PID.TID 0000.0001) DEBUG_MSG: CALLING S/R TEMP_INTEGRATE
(PID.TID 0000.0001) DEBUG_MSG: CALLING S/R SALT_INTEGRATE
DEBUG_STATS_RL:          Uvel (THERMODYNAMICS)  min= -7.11053177408888E-01
DEBUG_STATS_RL:          Uvel (THERMODYNAMICS)  max=  4.04573299333068E-01
DEBUG_STATS_RL:          Uvel (THERMODYNAMICS) mean=  9.09181283843409E-05
DEBUG_STATS_RL:          Uvel (THERMODYNAMICS) S.D.=  2.09119231540315E-02
DEBUG_STATS_RL:          Vvel (THERMODYNAMICS)  min= -9.26226641956019E-01
DEBUG_STATS_RL:          Vvel (THERMODYNAMICS)  max=  6.18081655345856E-01
DEBUG_STATS_RL:          Vvel (THERMODYNAMICS) mean= -7.52260350058400E-04
DEBUG_STATS_RL:          Vvel (THERMODYNAMICS) S.D.=  2.61062171108882E-02
DEBUG_STATS_RL:          Wvel (THERMODYNAMICS)  min= -4.39282996492772E-04
DEBUG_STATS_RL:          Wvel (THERMODYNAMICS)  max=  1.65764531065523E-04
DEBUG_STATS_RL:          Wvel (THERMODYNAMICS) mean= -4.41681652304601E-07
DEBUG_STATS_RL:          Wvel (THERMODYNAMICS) S.D.=  9.28358076833200E-06
DEBUG_STATS_RL:         Theta (THERMODYNAMICS)  min=  1.60818626105257E+01
DEBUG_STATS_RL:         Theta (THERMODYNAMICS)  max=  2.17356681611589E+01
DEBUG_STATS_RL:         Theta (THERMODYNAMICS) mean=  1.99983005935665E+01
DEBUG_STATS_RL:         Theta (THERMODYNAMICS) S.D.=  6.61180812726403E-02
DEBUG_STATS_RL:          Salt (THERMODYNAMICS)  min=  2.83120216428769E+01
DEBUG_STATS_RL:          Salt (THERMODYNAMICS)  max=  3.51501447273989E+01
DEBUG_STATS_RL:          Salt (THERMODYNAMICS) mean=  3.49983528061815E+01
DEBUG_STATS_RL:          Salt (THERMODYNAMICS) S.D.=  7.51383698500958E-02
DEBUG_STATS_RL:         GtNm1 (THERMODYNAMICS)  min= -2.62642084027332E-06
DEBUG_STATS_RL:         GtNm1 (THERMODYNAMICS)  max=  6.94548045667075E-06
DEBUG_STATS_RL:         GtNm1 (THERMODYNAMICS) mean=  1.54378451746966E-09
DEBUG_STATS_RL:         GtNm1 (THERMODYNAMICS) S.D.=  7.86163735124251E-08
DEBUG_STATS_RL:         GsNm1 (THERMODYNAMICS)  min= -1.46130689869872E-05
DEBUG_STATS_RL:         GsNm1 (THERMODYNAMICS)  max=  2.25013963044915E-06
DEBUG_STATS_RL:         GsNm1 (THERMODYNAMICS) mean= -4.04666344932106E-09
DEBUG_STATS_RL:         GsNm1 (THERMODYNAMICS) S.D.=  1.83768099029549E-07
(PID.TID 0000.0001) DEBUG_MSG: LEAVING S/R THERMODYNAMICS
(PID.TID 0000.0001) // =======================================================
(PID.TID 0000.0001) // Begin MONITOR dynamic field statistics
(PID.TID 0000.0001) // =======================================================
(PID.TID 0000.0001) %MON time_tsnumber                =                    27
(PID.TID 0000.0001) %MON time_secondsf                =   2.4300000000000E+04
(PID.TID 0000.0001) %MON dynstat_eta_max              =   3.1231037309070E+00
(PID.TID 0000.0001) %MON dynstat_eta_min              =  -4.2315259922736E+00
(PID.TID 0000.0001) %MON dynstat_eta_mean             =   2.4137077041717E-02
(PID.TID 0000.0001) %MON dynstat_eta_sd               =   1.2902881811011E-01
(PID.TID 0000.0001) %MON dynstat_eta_del2             =   3.4618817095803E-03
(PID.TID 0000.0001) %MON dynstat_uvel_max             =   4.0457329933307E-01
(PID.TID 0000.0001) %MON dynstat_uvel_min             =  -7.1105317740889E-01
(PID.TID 0000.0001) %MON dynstat_uvel_mean            =   3.3194698288804E-04
(PID.TID 0000.0001) %MON dynstat_uvel_sd              =   6.9061279532078E-03
(PID.TID 0000.0001) %MON dynstat_uvel_del2            =   9.4302345374336E-05
(PID.TID 0000.0001) %MON dynstat_vvel_max             =   6.1808165534586E-01
(PID.TID 0000.0001) %MON dynstat_vvel_min             =  -9.2622664195602E-01
(PID.TID 0000.0001) %MON dynstat_vvel_mean            =  -4.4651817362285E-05
(PID.TID 0000.0001) %MON dynstat_vvel_sd              =   8.5482689086086E-03
(PID.TID 0000.0001) %MON dynstat_vvel_del2            =   1.3354287399831E-04
(PID.TID 0000.0001) %MON dynstat_wvel_max             =   1.6576453106552E-04
(PID.TID 0000.0001) %MON dynstat_wvel_min             =  -4.3928299649277E-04
(PID.TID 0000.0001) %MON dynstat_wvel_mean            =  -3.0621868352726E-07
(PID.TID 0000.0001) %MON dynstat_wvel_sd              =   8.7178145269478E-06
(PID.TID 0000.0001) %MON dynstat_wvel_del2            =   7.6026449372679E-08
(PID.TID 0000.0001) %MON dynstat_theta_max            =   2.1735668161159E+01
(PID.TID 0000.0001) %MON dynstat_theta_min            =   1.6081862610526E+01
(PID.TID 0000.0001) %MON dynstat_theta_mean           =   1.9997844312524E+01
(PID.TID 0000.0001) %MON dynstat_theta_sd             =   2.2310165009904E-02
(PID.TID 0000.0001) %MON dynstat_theta_del2           =   4.1873928342375E-04
(PID.TID 0000.0001) %MON dynstat_salt_max             =   3.5150144727399E+01
(PID.TID 0000.0001) %MON dynstat_salt_min             =   2.8312021642877E+01
(PID.TID 0000.0001) %MON dynstat_salt_mean            =   3.4999768429490E+01
(PID.TID 0000.0001) %MON dynstat_salt_sd              =   2.3208066288484E-02
(PID.TID 0000.0001) %MON dynstat_salt_del2            =   8.1295900811266E-04
(PID.TID 0000.0001) %MON dynstat_sst_max              =   2.1735668161159E+01
(PID.TID 0000.0001) %MON dynstat_sst_min              =   1.6081862610526E+01
(PID.TID 0000.0001) %MON dynstat_sst_mean             =   2.0068224901156E+01
(PID.TID 0000.0001) %MON dynstat_sst_sd               =   1.9246464009816E-01
(PID.TID 0000.0001) %MON dynstat_sst_del2             =   4.4005676491075E-03
(PID.TID 0000.0001) %MON dynstat_sss_max              =   3.5150144727399E+01
(PID.TID 0000.0001) %MON dynstat_sss_min              =   2.8312021642877E+01
(PID.TID 0000.0001) %MON dynstat_sss_mean             =   3.4981110896672E+01
(PID.TID 0000.0001) %MON dynstat_sss_sd               =   2.7991224429200E-01
(PID.TID 0000.0001) %MON dynstat_sss_del2             =   1.1014497942916E-02
(PID.TID 0000.0001) %MON forcing_qnet_max             =   7.8772294921875E+03
(PID.TID 0000.0001) %MON forcing_qnet_min             =  -5.8134556670157E+03
(PID.TID 0000.0001) %MON forcing_qnet_mean            =  -8.5477261293080E+01
(PID.TID 0000.0001) %MON forcing_qnet_sd              =   6.5170209316810E+02
(PID.TID 0000.0001) %MON forcing_qnet_del2            =   1.1577847908414E+01
(PID.TID 0000.0001) %MON forcing_qsw_max              =   0.0000000000000E+00
(PID.TID 0000.0001) %MON forcing_qsw_min              =  -1.1005622833688E+02
(PID.TID 0000.0001) %MON forcing_qsw_mean             =  -1.7832746835174E+01
(PID.TID 0000.0001) %MON forcing_qsw_sd               =   2.5887090554100E+01
(PID.TID 0000.0001) %MON forcing_qsw_del2             =   2.6565936982909E-01
(PID.TID 0000.0001) %MON forcing_empmr_max            =   8.4743816405535E-03
(PID.TID 0000.0001) %MON forcing_empmr_min            =  -1.2180263549089E-01
(PID.TID 0000.0001) %MON forcing_empmr_mean           =  -5.1218239639263E-04
(PID.TID 0000.0001) %MON forcing_empmr_sd             =   5.3901835391387E-03
(PID.TID 0000.0001) %MON forcing_empmr_del2           =   2.1215070878181E-04
(PID.TID 0000.0001) %MON forcing_fu_max               =   8.3964886417540E-01
(PID.TID 0000.0001) %MON forcing_fu_min               =  -6.1845719299439E-01
(PID.TID 0000.0001) %MON forcing_fu_mean              =  -2.4774009656967E-04
(PID.TID 0000.0001) %MON forcing_fu_sd                =   9.7474653259900E-02
(PID.TID 0000.0001) %MON forcing_fu_del2              =   8.0324083692906E-04
(PID.TID 0000.0001) %MON forcing_fv_max               =   4.8365661258707E-01
(PID.TID 0000.0001) %MON forcing_fv_min               =  -4.7396380086118E-01
(PID.TID 0000.0001) %MON forcing_fv_mean              =  -3.4503704103070E-03
(PID.TID 0000.0001) %MON forcing_fv_sd                =   8.2008571436573E-02
(PID.TID 0000.0001) %MON forcing_fv_del2              =   7.0603891076571E-04
(PID.TID 0000.0001) %MON trAdv_CFL_u_max              =   2.0881807195172E-03
(PID.TID 0000.0001) %MON trAdv_CFL_v_max              =   4.1355798141675E-03
(PID.TID 0000.0001) %MON trAdv_CFL_w_max              =   4.4443393497940E-03
(PID.TID 0000.0001) %MON advcfl_uvel_max              =   2.0927980548253E-03
(PID.TID 0000.0001) %MON advcfl_vvel_max              =   3.0599075687987E-03
(PID.TID 0000.0001) %MON advcfl_wvel_max              =   8.4732268167579E-03
(PID.TID 0000.0001) %MON advcfl_W_hf_max              =   4.4443393497940E-03
(PID.TID 0000.0001) %MON pe_b_mean                    =   2.2954774331780E-05
(PID.TID 0000.0001) %MON ke_max                       =   3.6696941200608E-01
(PID.TID 0000.0001) %MON ke_mean                      =   5.5866207413409E-05
(PID.TID 0000.0001) %MON ke_vol                       =   1.3398110664586E+18
(PID.TID 0000.0001) %MON vort_r_min                   =  -5.3111992953750E-06
(PID.TID 0000.0001) %MON vort_r_max                   =   2.7238324726329E-06
(PID.TID 0000.0001) %MON vort_a_mean                  =  -2.0549865324846E-05
(PID.TID 0000.0001) %MON vort_a_sd                    =   7.5259231272945E-05
(PID.TID 0000.0001) %MON vort_p_mean                  =  -2.4783363622418E-05
(PID.TID 0000.0001) %MON vort_p_sd                    =   1.2810548273048E-04
(PID.TID 0000.0001) %MON surfExpan_theta_mean         =  -5.7262653387051E-07
(PID.TID 0000.0001) %MON surfExpan_salt_mean          =   1.4495240704619E-06
(PID.TID 0000.0001) // =======================================================
(PID.TID 0000.0001) // End MONITOR dynamic field statistics
(PID.TID 0000.0001) // =======================================================
 Computing Diagnostic #     81  oceTAUX      Counter:       1   Parms: UU      U1      
           Vector  Mate for  oceTAUX      Diagnostic #     82  oceTAUY  exists 
(PID.TID 0000.0001)  MDS_WRITE_FIELD: it,rec,kS,kL,kH=      26    -1  32   1   1 file=oceTAUX.0000000026
 Computing Diagnostic #     82  oceTAUY      Counter:       1   Parms: VV      U1      
           Vector  Mate for  oceTAUY      Diagnostic #     81  oceTAUX  exists 
(PID.TID 0000.0001)  MDS_WRITE_FIELD: it,rec,kS,kL,kH=      26    -1  32   1   1 file=oceTAUY.0000000026
 Computing Diagnostic #     85  oceFWflx     Counter:       1   Parms: SM      U1      
(PID.TID 0000.0001)  MDS_WRITE_FIELD: it,rec,kS,kL,kH=      26    -1  32   1   1 file=oceFWflx.0000000026
 Computing Diagnostic #     86  oceSflux     Counter:       1   Parms: SM      U1      
(PID.TID 0000.0001)  MDS_WRITE_FIELD: it,rec,kS,kL,kH=      26    -1  32   1   1 file=oceSflux.0000000026
 Computing Diagnostic #     87  oceQnet      Counter:       1   Parms: SM      U1      
(PID.TID 0000.0001)  MDS_WRITE_FIELD: it,rec,kS,kL,kH=      26    -1  32   1   1 file=oceQnet.0000000026
 Computing Diagnostic #     88  oceQsw       Counter:       1   Parms: SM      U1      
(PID.TID 0000.0001)  MDS_WRITE_FIELD: it,rec,kS,kL,kH=      26    -1  32   1   1 file=oceQsw.0000000026
 Computing Diagnostic #     27  SALT         Counter:       1   Parms: SMR     MR      
(PID.TID 0000.0001)  MDS_WRITE_FIELD: it,rec,kS,kL,kH=      26    -1  32   1   1 file=SSS.0000000026
 Computing Diagnostic #     26  THETA        Counter:       1   Parms: SMR     MR      
(PID.TID 0000.0001)  MDS_WRITE_FIELD: it,rec,kS,kL,kH=      26    -1  32   1   1 file=SST.0000000026
 Computing Diagnostic #     45  UVELMASS     Counter:       1   Parms: UUr     MR      
           Vector  Mate for  UVELMASS     Diagnostic #     46  VVELMASS exists 
(PID.TID 0000.0001)  MDS_WRITE_FIELD: it,rec,kS,kL,kH=      26    -1  32   1   1 file=UVEL1.0000000026
 Computing Diagnostic #     46  VVELMASS     Counter:       1   Parms: VVr     MR      
           Vector  Mate for  VVELMASS     Diagnostic #     45  UVELMASS exists 
(PID.TID 0000.0001)  MDS_WRITE_FIELD: it,rec,kS,kL,kH=      26    -1  32   1   1 file=VVEL1.0000000026
 Computing Diagnostic #     83  atmPload     Counter:       1   Parms: SM      U1      
(PID.TID 0000.0001)  MDS_WRITE_FIELD: it,rec,kS,kL,kH=      26    -1  32   1   1 file=atmPload.0000000026
(PID.TID 0000.0001)  write diagnostics summary to file: diagnostics_status.0000000027.txt
(PID.TID 0000.0001) DEBUG_MSG: LEAVING S/R FORWARD_STEP
(PID.TID 0000.0001) DEBUG_MSG: ENTERED S/R FORWARD_STEP
(PID.TID 0000.0001) DEBUG_MSG: CALLING S/R LOAD_FIELDS_DRIVER
(PID.TID 0000.0001) DEBUG_MSG: ENTERED S/R LOAD_FIELDS_DRIVER
(PID.TID 0000.0001) DEBUG_MSG: CALLING S/R EXTERNAL_FIELDS_LOAD
(PID.TID 0000.0001) DEBUG_MSG: LEAVING S/R LOAD_FIELDS_DRIVER
(PID.TID 0000.0001) DEBUG_MSG: CALLING S/R DO_ATMOSPHERIC_PHYS
(PID.TID 0000.0001) DEBUG_MSG: ENTERED S/R DO_ATMOSPHERIC_PHYS
(PID.TID 0000.0001) DEBUG_MSG: LEAVING S/R DO_ATMOSPHERIC_PHYS
(PID.TID 0000.0001) DEBUG_MSG: CALLING S/R DO_OCEANIC_PHYS
(PID.TID 0000.0001) DEBUG_MSG: ENTERED S/R DO_OCEANIC_PHYS
(PID.TID 0000.0001) DEBUG_MSG: CALLING S/R EXTERNAL_FORCING_SURF
(PID.TID 0000.0001) DEBUG_MSG: CALLING S/R FIND_RHO_2D (xNr)
(PID.TID 0000.0001) DEBUG_MSG:                  ENTERING UPWARD K LOOP (bi=   1, bj=   1)
(PID.TID 0000.0001) DEBUG_MSG: CALLING S/R GRAD_SIGMA
(PID.TID 0000.0001) DEBUG_MSG: CALLING S/R CALC_IVDC
(PID.TID 0000.0001) DEBUG_MSG: CALLING S/R GRAD_SIGMA
(PID.TID 0000.0001) DEBUG_MSG: CALLING S/R CALC_IVDC
(PID.TID 0000.0001) DEBUG_MSG: CALLING S/R GRAD_SIGMA
(PID.TID 0000.0001) DEBUG_MSG: CALLING S/R CALC_IVDC
(PID.TID 0000.0001) DEBUG_MSG: CALLING S/R GRAD_SIGMA
(PID.TID 0000.0001) DEBUG_MSG: CALLING S/R CALC_IVDC
(PID.TID 0000.0001) DEBUG_MSG: CALLING S/R GRAD_SIGMA
(PID.TID 0000.0001) DEBUG_MSG: CALLING S/R CALC_IVDC
(PID.TID 0000.0001) DEBUG_MSG: CALLING S/R GRAD_SIGMA
(PID.TID 0000.0001) DEBUG_MSG: CALLING S/R CALC_IVDC
(PID.TID 0000.0001) DEBUG_MSG: CALLING S/R GRAD_SIGMA
(PID.TID 0000.0001) DEBUG_MSG: CALLING S/R CALC_IVDC
(PID.TID 0000.0001) DEBUG_MSG: CALLING S/R GRAD_SIGMA
(PID.TID 0000.0001) DEBUG_MSG: CALLING S/R CALC_IVDC
(PID.TID 0000.0001) DEBUG_MSG: CALLING S/R GRAD_SIGMA
(PID.TID 0000.0001) DEBUG_MSG: CALLING S/R CALC_IVDC
(PID.TID 0000.0001) DEBUG_MSG: CALLING S/R GRAD_SIGMA
(PID.TID 0000.0001) DEBUG_MSG: CALLING S/R CALC_IVDC
(PID.TID 0000.0001) DEBUG_MSG: CALLING S/R GRAD_SIGMA
(PID.TID 0000.0001) DEBUG_MSG: CALLING S/R CALC_IVDC
(PID.TID 0000.0001) DEBUG_MSG: CALLING S/R GRAD_SIGMA
(PID.TID 0000.0001) DEBUG_MSG: CALLING S/R CALC_IVDC
(PID.TID 0000.0001) DEBUG_MSG: CALLING S/R GRAD_SIGMA
(PID.TID 0000.0001) DEBUG_MSG: CALLING S/R CALC_IVDC
(PID.TID 0000.0001) DEBUG_MSG: CALLING S/R GRAD_SIGMA
(PID.TID 0000.0001) DEBUG_MSG: CALLING S/R CALC_IVDC
(PID.TID 0000.0001) DEBUG_MSG: CALLING S/R GRAD_SIGMA
(PID.TID 0000.0001) DEBUG_MSG: CALLING S/R CALC_IVDC
(PID.TID 0000.0001) DEBUG_MSG: CALLING S/R GRAD_SIGMA
(PID.TID 0000.0001) DEBUG_MSG: CALLING S/R GMREDI_CALC_TENSOR
(PID.TID 0000.0001) DEBUG_MSG: LEAVING S/R DO_OCEANIC_PHYS
(PID.TID 0000.0001) DEBUG_MSG: CALLING S/R DYNAMICS
(PID.TID 0000.0001) DEBUG_MSG: ENTERED S/R DYNAMICS
DEBUG_STATS_RL:                EtaN (DYNAMICS)  min= -4.23152599227364E+00
DEBUG_STATS_RL:                EtaN (DYNAMICS)  max=  3.12310373090703E+00
DEBUG_STATS_RL:                EtaN (DYNAMICS) mean=  2.57816777979404E-02
DEBUG_STATS_RL:                EtaN (DYNAMICS) S.D.=  1.32936776357150E-01
DEBUG_STATS_RL:                Uvel (DYNAMICS)  min= -7.11053177408888E-01
DEBUG_STATS_RL:                Uvel (DYNAMICS)  max=  4.04573299333068E-01
DEBUG_STATS_RL:                Uvel (DYNAMICS) mean=  9.09181283843409E-05
DEBUG_STATS_RL:                Uvel (DYNAMICS) S.D.=  2.09119231540315E-02
DEBUG_STATS_RL:                Vvel (DYNAMICS)  min= -9.26226641956019E-01
DEBUG_STATS_RL:                Vvel (DYNAMICS)  max=  6.18081655345856E-01
DEBUG_STATS_RL:                Vvel (DYNAMICS) mean= -7.52260350058400E-04
DEBUG_STATS_RL:                Vvel (DYNAMICS) S.D.=  2.61062171108882E-02
DEBUG_STATS_RL:                Wvel (DYNAMICS)  min= -4.39282996492772E-04
DEBUG_STATS_RL:                Wvel (DYNAMICS)  max=  1.65764531065523E-04
DEBUG_STATS_RL:                Wvel (DYNAMICS) mean= -4.41681652304601E-07
DEBUG_STATS_RL:                Wvel (DYNAMICS) S.D.=  9.28358076833200E-06
DEBUG_STATS_RL:               Theta (DYNAMICS)  min=  1.60818626105257E+01
DEBUG_STATS_RL:               Theta (DYNAMICS)  max=  2.17356681611589E+01
DEBUG_STATS_RL:               Theta (DYNAMICS) mean=  1.99983005935665E+01
DEBUG_STATS_RL:               Theta (DYNAMICS) S.D.=  6.61180812726403E-02
DEBUG_STATS_RL:                Salt (DYNAMICS)  min=  2.83120216428769E+01
DEBUG_STATS_RL:                Salt (DYNAMICS)  max=  3.51501447273989E+01
DEBUG_STATS_RL:                Salt (DYNAMICS) mean=  3.49983528061815E+01
DEBUG_STATS_RL:                Salt (DYNAMICS) S.D.=  7.51383698500958E-02
DEBUG_STATS_RL:                  Gu (DYNAMICS)  min= -7.29869203593364E-01
DEBUG_STATS_RL:                  Gu (DYNAMICS)  max=  3.95477582333148E-01
DEBUG_STATS_RL:                  Gu (DYNAMICS) mean=  2.78228724399043E-05
DEBUG_STATS_RL:                  Gu (DYNAMICS) S.D.=  2.09053131177407E-02
DEBUG_STATS_RL:                  Gv (DYNAMICS)  min= -8.87969664894349E-01
DEBUG_STATS_RL:                  Gv (DYNAMICS)  max=  6.35810485962016E-01
DEBUG_STATS_RL:                  Gv (DYNAMICS) mean= -7.94599429958809E-04
DEBUG_STATS_RL:                  Gv (DYNAMICS) S.D.=  2.62572559756809E-02
DEBUG_STATS_RL:               GuNm1 (DYNAMICS)  min= -7.26003972216739E-05
DEBUG_STATS_RL:               GuNm1 (DYNAMICS)  max=  2.08331917366092E-05
DEBUG_STATS_RL:               GuNm1 (DYNAMICS) mean= -7.06387728411748E-08
DEBUG_STATS_RL:               GuNm1 (DYNAMICS) S.D.=  1.68359313689861E-06
DEBUG_STATS_RL:               GvNm1 (DYNAMICS)  min= -2.64874213388413E-05
DEBUG_STATS_RL:               GvNm1 (DYNAMICS)  max=  4.22764018621187E-05
DEBUG_STATS_RL:               GvNm1 (DYNAMICS) mean= -4.93542425657818E-08
DEBUG_STATS_RL:               GvNm1 (DYNAMICS) S.D.=  1.34183794628464E-06
DEBUG_STATS_RL:               GtNm1 (DYNAMICS)  min= -2.62642084027332E-06
DEBUG_STATS_RL:               GtNm1 (DYNAMICS)  max=  6.94548045667075E-06
DEBUG_STATS_RL:               GtNm1 (DYNAMICS) mean=  1.54378451746966E-09
DEBUG_STATS_RL:               GtNm1 (DYNAMICS) S.D.=  7.86163735124251E-08
DEBUG_STATS_RL:               GsNm1 (DYNAMICS)  min= -1.46130689869872E-05
DEBUG_STATS_RL:               GsNm1 (DYNAMICS)  max=  2.25013963044915E-06
DEBUG_STATS_RL:               GsNm1 (DYNAMICS) mean= -4.04666344932106E-09
DEBUG_STATS_RL:               GsNm1 (DYNAMICS) S.D.=  1.83768099029549E-07
(PID.TID 0000.0001) DEBUG_MSG: LEAVING S/R DYNAMICS
DEBUG_STATS_RL:    cg2d_b (SOLVE_FOR_PRESSURE)  min= -3.26117984748058E+05
DEBUG_STATS_RL:    cg2d_b (SOLVE_FOR_PRESSURE)  max=  3.70157444948390E+05
DEBUG_STATS_RL:    cg2d_b (SOLVE_FOR_PRESSURE) mean= -2.49810558398786E+03
DEBUG_STATS_RL:    cg2d_b (SOLVE_FOR_PRESSURE) S.D.=  1.29259603457791E+04
 cg2d: Sum(rhs),rhsMax =  -2.98295410018455E+01  7.09094484158603E+01
(PID.TID 0000.0001)  cg2d: iter=     1 ; resid.=  3.49854063372617E-02
(PID.TID 0000.0001)  cg2d: iter=     2 ; resid.=  5.19586529763750E-03
(PID.TID 0000.0001)  cg2d: iter=     3 ; resid.=  1.07738637471282E-03
(PID.TID 0000.0001)  cg2d: iter=     4 ; resid.=  3.38011767553587E-04
(PID.TID 0000.0001)  cg2d: iter=     5 ; resid.=  1.08975568855183E-04
(PID.TID 0000.0001)  cg2d: iter=     6 ; resid.=  2.35494927966307E-05
(PID.TID 0000.0001)  cg2d: iter=     7 ; resid.=  4.93443175109530E-06
(PID.TID 0000.0001)  cg2d: iter=     8 ; resid.=  1.20416518455604E-06
(PID.TID 0000.0001)  cg2d: iter=     9 ; resid.=  3.89559096030491E-07
(PID.TID 0000.0001)  cg2d: iter=    10 ; resid.=  1.07596459465396E-07
(PID.TID 0000.0001)  cg2d: iter=    11 ; resid.=  2.85345971504374E-08
DEBUG_STATS_RL:    cg2d_x (SOLVE_FOR_PRESSURE)  min= -3.91434495051219E+01
DEBUG_STATS_RL:    cg2d_x (SOLVE_FOR_PRESSURE)  max=  2.80285474022453E+01
DEBUG_STATS_RL:    cg2d_x (SOLVE_FOR_PRESSURE) mean=  2.57132462300847E-01
DEBUG_STATS_RL:    cg2d_x (SOLVE_FOR_PRESSURE) S.D.=  1.26871907609187E+00
(PID.TID 0000.0001)      cg2d_init_res =   2.62594357802978E-01
(PID.TID 0000.0001)      cg2d_iters(min,last) =      -1      11
(PID.TID 0000.0001)      cg2d_last_res =   2.85345971504374E-08
(PID.TID 0000.0001) DEBUG_MSG: CALLING S/R UPDATE_ETAH
(PID.TID 0000.0001) DEBUG_MSG: ENTERED S/R CALC_R_STAR
(PID.TID 0000.0001) DEBUG_MSG: LEAVING S/R CALC_R_STAR
(PID.TID 0000.0001) DEBUG_MSG: CALLING S/R DO_STAGGER_FIELDS_EXCH.
(PID.TID 0000.0001) DEBUG_MSG: CALLING S/R THERMODYNAMICS
(PID.TID 0000.0001) DEBUG_MSG: ENTERED S/R THERMODYNAMICS
(PID.TID 0000.0001) DEBUG_MSG: CALLING S/R TEMP_INTEGRATE
(PID.TID 0000.0001) DEBUG_MSG: CALLING S/R SALT_INTEGRATE
DEBUG_STATS_RL:          Uvel (THERMODYNAMICS)  min= -7.54631395150944E-01
DEBUG_STATS_RL:          Uvel (THERMODYNAMICS)  max=  4.00623853969217E-01
DEBUG_STATS_RL:          Uvel (THERMODYNAMICS) mean=  1.09793156791662E-05
DEBUG_STATS_RL:          Uvel (THERMODYNAMICS) S.D.=  2.08885157017306E-02
DEBUG_STATS_RL:          Vvel (THERMODYNAMICS)  min= -9.26592996029092E-01
DEBUG_STATS_RL:          Vvel (THERMODYNAMICS)  max=  6.60102310784359E-01
DEBUG_STATS_RL:          Vvel (THERMODYNAMICS) mean= -7.80756369645539E-04
DEBUG_STATS_RL:          Vvel (THERMODYNAMICS) S.D.=  2.65963744070818E-02
DEBUG_STATS_RL:          Wvel (THERMODYNAMICS)  min= -4.19455975998113E-04
DEBUG_STATS_RL:          Wvel (THERMODYNAMICS)  max=  1.75354522497754E-04
DEBUG_STATS_RL:          Wvel (THERMODYNAMICS) mean= -4.08778778733999E-07
DEBUG_STATS_RL:          Wvel (THERMODYNAMICS) S.D.=  9.22734858699716E-06
DEBUG_STATS_RL:         Theta (THERMODYNAMICS)  min=  1.60840009875286E+01
DEBUG_STATS_RL:         Theta (THERMODYNAMICS)  max=  2.17890860511995E+01
DEBUG_STATS_RL:         Theta (THERMODYNAMICS) mean=  1.99984779213327E+01
DEBUG_STATS_RL:         Theta (THERMODYNAMICS) S.D.=  6.68355699311907E-02
DEBUG_STATS_RL:          Salt (THERMODYNAMICS)  min=  2.81473384737946E+01
DEBUG_STATS_RL:          Salt (THERMODYNAMICS)  max=  3.51501440776960E+01
DEBUG_STATS_RL:          Salt (THERMODYNAMICS) mean=  3.49983107117471E+01
DEBUG_STATS_RL:          Salt (THERMODYNAMICS) S.D.=  7.70337987081953E-02
DEBUG_STATS_RL:         GtNm1 (THERMODYNAMICS)  min= -2.68108045714307E-06
DEBUG_STATS_RL:         GtNm1 (THERMODYNAMICS)  max=  8.29091425545171E-06
DEBUG_STATS_RL:         GtNm1 (THERMODYNAMICS) mean=  1.83500342939045E-09
DEBUG_STATS_RL:         GtNm1 (THERMODYNAMICS) S.D.=  8.91277999954691E-08
DEBUG_STATS_RL:         GsNm1 (THERMODYNAMICS)  min= -1.48255208524860E-05
DEBUG_STATS_RL:         GsNm1 (THERMODYNAMICS)  max=  2.25507008050799E-06
DEBUG_STATS_RL:         GsNm1 (THERMODYNAMICS) mean= -4.10398003652387E-09
DEBUG_STATS_RL:         GsNm1 (THERMODYNAMICS) S.D.=  1.86291004160449E-07
(PID.TID 0000.0001) DEBUG_MSG: LEAVING S/R THERMODYNAMICS
(PID.TID 0000.0001) // =======================================================
(PID.TID 0000.0001) // Begin MONITOR dynamic field statistics
(PID.TID 0000.0001) // =======================================================
(PID.TID 0000.0001) %MON time_tsnumber                =                    28
(PID.TID 0000.0001) %MON time_secondsf                =   2.5200000000000E+04
(PID.TID 0000.0001) %MON dynstat_eta_max              =   2.8571404116165E+00
(PID.TID 0000.0001) %MON dynstat_eta_min              =  -3.9901579532123E+00
(PID.TID 0000.0001) %MON dynstat_eta_mean             =   2.4578300580666E-02
(PID.TID 0000.0001) %MON dynstat_eta_sd               =   1.2531974565825E-01
(PID.TID 0000.0001) %MON dynstat_eta_del2             =   3.2996797654777E-03
(PID.TID 0000.0001) %MON dynstat_uvel_max             =   4.0062385396922E-01
(PID.TID 0000.0001) %MON dynstat_uvel_min             =  -7.5463139515094E-01
(PID.TID 0000.0001) %MON dynstat_uvel_mean            =   3.0198344819335E-04
(PID.TID 0000.0001) %MON dynstat_uvel_sd              =   6.8802031711319E-03
(PID.TID 0000.0001) %MON dynstat_uvel_del2            =   9.3553431138705E-05
(PID.TID 0000.0001) %MON dynstat_vvel_max             =   6.6010231078436E-01
(PID.TID 0000.0001) %MON dynstat_vvel_min             =  -9.2659299602909E-01
(PID.TID 0000.0001) %MON dynstat_vvel_mean            =  -5.5689047507584E-05
(PID.TID 0000.0001) %MON dynstat_vvel_sd              =   8.7036115497632E-03
(PID.TID 0000.0001) %MON dynstat_vvel_del2            =   1.3899284596426E-04
(PID.TID 0000.0001) %MON dynstat_wvel_max             =   1.7535452249775E-04
(PID.TID 0000.0001) %MON dynstat_wvel_min             =  -4.1945597599811E-04
(PID.TID 0000.0001) %MON dynstat_wvel_mean            =  -2.7246291730997E-07
(PID.TID 0000.0001) %MON dynstat_wvel_sd              =   8.6682722635693E-06
(PID.TID 0000.0001) %MON dynstat_wvel_del2            =   7.5712503502087E-08
(PID.TID 0000.0001) %MON dynstat_theta_max            =   2.1789086051200E+01
(PID.TID 0000.0001) %MON dynstat_theta_min            =   1.6084000987529E+01
(PID.TID 0000.0001) %MON dynstat_theta_mean           =   1.9997849085762E+01
(PID.TID 0000.0001) %MON dynstat_theta_sd             =   2.2526338429256E-02
(PID.TID 0000.0001) %MON dynstat_theta_del2           =   4.2177527245399E-04
(PID.TID 0000.0001) %MON dynstat_salt_max             =   3.5150144077696E+01
(PID.TID 0000.0001) %MON dynstat_salt_min             =   2.8147338473795E+01
(PID.TID 0000.0001) %MON dynstat_salt_mean            =   3.4999763676071E+01
(PID.TID 0000.0001) %MON dynstat_salt_sd              =   2.3791586590786E-02
(PID.TID 0000.0001) %MON dynstat_salt_del2            =   8.3314068425932E-04
(PID.TID 0000.0001) %MON dynstat_sst_max              =   2.1789086051200E+01
(PID.TID 0000.0001) %MON dynstat_sst_min              =   1.6084000987529E+01
(PID.TID 0000.0001) %MON dynstat_sst_mean             =   2.0070685577066E+01
(PID.TID 0000.0001) %MON dynstat_sst_sd               =   1.9521333254326E-01
(PID.TID 0000.0001) %MON dynstat_sst_del2             =   4.4535613615931E-03
(PID.TID 0000.0001) %MON dynstat_sss_max              =   3.5150144077696E+01
(PID.TID 0000.0001) %MON dynstat_sss_min              =   2.8147338473795E+01
(PID.TID 0000.0001) %MON dynstat_sss_mean             =   3.4980569470237E+01
(PID.TID 0000.0001) %MON dynstat_sss_sd               =   2.8698318573373E-01
(PID.TID 0000.0001) %MON dynstat_sss_del2             =   1.1287887707579E-02
(PID.TID 0000.0001) %MON forcing_qnet_max             =   8.8630253906250E+03
(PID.TID 0000.0001) %MON forcing_qnet_min             =  -5.7295753817015E+03
(PID.TID 0000.0001) %MON forcing_qnet_mean            =  -7.8903186234634E+01
(PID.TID 0000.0001) %MON forcing_qnet_sd              =   6.4845203235319E+02
(PID.TID 0000.0001) %MON forcing_qnet_del2            =   1.1422217714819E+01
(PID.TID 0000.0001) %MON forcing_qsw_max              =   0.0000000000000E+00
(PID.TID 0000.0001) %MON forcing_qsw_min              =  -1.0868609710205E+02
(PID.TID 0000.0001) %MON forcing_qsw_mean             =  -1.7532981169429E+01
(PID.TID 0000.0001) %MON forcing_qsw_sd               =   2.5621560830001E+01
(PID.TID 0000.0001) %MON forcing_qsw_del2             =   2.6335465495088E-01
(PID.TID 0000.0001) %MON forcing_empmr_max            =   8.3869993686676E-03
(PID.TID 0000.0001) %MON forcing_empmr_min            =  -1.2054736167192E-01
(PID.TID 0000.0001) %MON forcing_empmr_mean           =  -5.0740706979119E-04
(PID.TID 0000.0001) %MON forcing_empmr_sd             =   5.3391719937321E-03
(PID.TID 0000.0001) %MON forcing_empmr_del2           =   2.1008430044526E-04
(PID.TID 0000.0001) %MON forcing_fu_max               =   8.2798443404981E-01
(PID.TID 0000.0001) %MON forcing_fu_min               =  -6.1226169725746E-01
(PID.TID 0000.0001) %MON forcing_fu_mean              =  -2.0236166453218E-04
(PID.TID 0000.0001) %MON forcing_fu_sd                =   9.7032404042327E-02
(PID.TID 0000.0001) %MON forcing_fu_del2              =   7.9897022275787E-04
(PID.TID 0000.0001) %MON forcing_fv_max               =   4.8798468567855E-01
(PID.TID 0000.0001) %MON forcing_fv_min               =  -4.6537147634729E-01
(PID.TID 0000.0001) %MON forcing_fv_mean              =  -3.4332604824908E-03
(PID.TID 0000.0001) %MON forcing_fv_sd                =   8.1735028371220E-02
(PID.TID 0000.0001) %MON forcing_fv_del2              =   7.0185622363203E-04
(PID.TID 0000.0001) %MON trAdv_CFL_u_max              =   2.2171676297493E-03
(PID.TID 0000.0001) %MON trAdv_CFL_v_max              =   4.4969568712130E-03
(PID.TID 0000.0001) %MON trAdv_CFL_w_max              =   4.3754249385973E-03
(PID.TID 0000.0001) %MON advcfl_uvel_max              =   2.2210590797682E-03
(PID.TID 0000.0001) %MON advcfl_vvel_max              =   3.0238109395968E-03
(PID.TID 0000.0001) %MON advcfl_wvel_max              =   8.3859034206556E-03
(PID.TID 0000.0001) %MON advcfl_W_hf_max              =   4.3754249385973E-03
(PID.TID 0000.0001) %MON pe_b_mean                    =   2.1726634606408E-05
(PID.TID 0000.0001) %MON ke_max                       =   3.7710694122655E-01
(PID.TID 0000.0001) %MON ke_mean                      =   5.6937242934201E-05
(PID.TID 0000.0001) %MON ke_vol                       =   1.3398112285250E+18
(PID.TID 0000.0001) %MON vort_r_min                   =  -5.4350239232685E-06
(PID.TID 0000.0001) %MON vort_r_max                   =   2.6299442247314E-06
(PID.TID 0000.0001) %MON vort_a_mean                  =  -2.0549865324846E-05
(PID.TID 0000.0001) %MON vort_a_sd                    =   7.5259226998108E-05
(PID.TID 0000.0001) %MON vort_p_mean                  =  -2.4783360487726E-05
(PID.TID 0000.0001) %MON vort_p_sd                    =   1.2810543609379E-04
(PID.TID 0000.0001) %MON surfExpan_theta_mean         =  -6.7523545822990E-07
(PID.TID 0000.0001) %MON surfExpan_salt_mean          =   1.4680127566220E-06
(PID.TID 0000.0001) // =======================================================
(PID.TID 0000.0001) // End MONITOR dynamic field statistics
(PID.TID 0000.0001) // =======================================================
(PID.TID 0000.0001) DEBUG_MSG: LEAVING S/R FORWARD_STEP
(PID.TID 0000.0001) DEBUG_MSG: ENTERED S/R FORWARD_STEP
(PID.TID 0000.0001) DEBUG_MSG: CALLING S/R LOAD_FIELDS_DRIVER
(PID.TID 0000.0001) DEBUG_MSG: ENTERED S/R LOAD_FIELDS_DRIVER
(PID.TID 0000.0001) DEBUG_MSG: CALLING S/R EXTERNAL_FIELDS_LOAD
(PID.TID 0000.0001) DEBUG_MSG: LEAVING S/R LOAD_FIELDS_DRIVER
(PID.TID 0000.0001) DEBUG_MSG: CALLING S/R DO_ATMOSPHERIC_PHYS
(PID.TID 0000.0001) DEBUG_MSG: ENTERED S/R DO_ATMOSPHERIC_PHYS
(PID.TID 0000.0001) DEBUG_MSG: LEAVING S/R DO_ATMOSPHERIC_PHYS
(PID.TID 0000.0001) DEBUG_MSG: CALLING S/R DO_OCEANIC_PHYS
(PID.TID 0000.0001) DEBUG_MSG: ENTERED S/R DO_OCEANIC_PHYS
(PID.TID 0000.0001) DEBUG_MSG: CALLING S/R EXTERNAL_FORCING_SURF
(PID.TID 0000.0001) DEBUG_MSG: CALLING S/R FIND_RHO_2D (xNr)
(PID.TID 0000.0001) DEBUG_MSG:                  ENTERING UPWARD K LOOP (bi=   1, bj=   1)
(PID.TID 0000.0001) DEBUG_MSG: CALLING S/R GRAD_SIGMA
(PID.TID 0000.0001) DEBUG_MSG: CALLING S/R CALC_IVDC
(PID.TID 0000.0001) DEBUG_MSG: CALLING S/R GRAD_SIGMA
(PID.TID 0000.0001) DEBUG_MSG: CALLING S/R CALC_IVDC
(PID.TID 0000.0001) DEBUG_MSG: CALLING S/R GRAD_SIGMA
(PID.TID 0000.0001) DEBUG_MSG: CALLING S/R CALC_IVDC
(PID.TID 0000.0001) DEBUG_MSG: CALLING S/R GRAD_SIGMA
(PID.TID 0000.0001) DEBUG_MSG: CALLING S/R CALC_IVDC
(PID.TID 0000.0001) DEBUG_MSG: CALLING S/R GRAD_SIGMA
(PID.TID 0000.0001) DEBUG_MSG: CALLING S/R CALC_IVDC
(PID.TID 0000.0001) DEBUG_MSG: CALLING S/R GRAD_SIGMA
(PID.TID 0000.0001) DEBUG_MSG: CALLING S/R CALC_IVDC
(PID.TID 0000.0001) DEBUG_MSG: CALLING S/R GRAD_SIGMA
(PID.TID 0000.0001) DEBUG_MSG: CALLING S/R CALC_IVDC
(PID.TID 0000.0001) DEBUG_MSG: CALLING S/R GRAD_SIGMA
(PID.TID 0000.0001) DEBUG_MSG: CALLING S/R CALC_IVDC
(PID.TID 0000.0001) DEBUG_MSG: CALLING S/R GRAD_SIGMA
(PID.TID 0000.0001) DEBUG_MSG: CALLING S/R CALC_IVDC
(PID.TID 0000.0001) DEBUG_MSG: CALLING S/R GRAD_SIGMA
(PID.TID 0000.0001) DEBUG_MSG: CALLING S/R CALC_IVDC
(PID.TID 0000.0001) DEBUG_MSG: CALLING S/R GRAD_SIGMA
(PID.TID 0000.0001) DEBUG_MSG: CALLING S/R CALC_IVDC
(PID.TID 0000.0001) DEBUG_MSG: CALLING S/R GRAD_SIGMA
(PID.TID 0000.0001) DEBUG_MSG: CALLING S/R CALC_IVDC
(PID.TID 0000.0001) DEBUG_MSG: CALLING S/R GRAD_SIGMA
(PID.TID 0000.0001) DEBUG_MSG: CALLING S/R CALC_IVDC
(PID.TID 0000.0001) DEBUG_MSG: CALLING S/R GRAD_SIGMA
(PID.TID 0000.0001) DEBUG_MSG: CALLING S/R CALC_IVDC
(PID.TID 0000.0001) DEBUG_MSG: CALLING S/R GRAD_SIGMA
(PID.TID 0000.0001) DEBUG_MSG: CALLING S/R CALC_IVDC
(PID.TID 0000.0001) DEBUG_MSG: CALLING S/R GRAD_SIGMA
(PID.TID 0000.0001) DEBUG_MSG: CALLING S/R GMREDI_CALC_TENSOR
(PID.TID 0000.0001) DEBUG_MSG: LEAVING S/R DO_OCEANIC_PHYS
(PID.TID 0000.0001) DEBUG_MSG: CALLING S/R DYNAMICS
(PID.TID 0000.0001) DEBUG_MSG: ENTERED S/R DYNAMICS
DEBUG_STATS_RL:                EtaN (DYNAMICS)  min= -3.99015795321227E+00
DEBUG_STATS_RL:                EtaN (DYNAMICS)  max=  2.85714041161650E+00
DEBUG_STATS_RL:                EtaN (DYNAMICS) mean=  2.62112602150355E-02
DEBUG_STATS_RL:                EtaN (DYNAMICS) S.D.=  1.29329161782243E-01
DEBUG_STATS_RL:                Uvel (DYNAMICS)  min= -7.54631395150944E-01
DEBUG_STATS_RL:                Uvel (DYNAMICS)  max=  4.00623853969217E-01
DEBUG_STATS_RL:                Uvel (DYNAMICS) mean=  1.09793156791662E-05
DEBUG_STATS_RL:                Uvel (DYNAMICS) S.D.=  2.08885157017306E-02
DEBUG_STATS_RL:                Vvel (DYNAMICS)  min= -9.26592996029092E-01
DEBUG_STATS_RL:                Vvel (DYNAMICS)  max=  6.60102310784359E-01
DEBUG_STATS_RL:                Vvel (DYNAMICS) mean= -7.80756369645539E-04
DEBUG_STATS_RL:                Vvel (DYNAMICS) S.D.=  2.65963744070818E-02
DEBUG_STATS_RL:                Wvel (DYNAMICS)  min= -4.19455975998113E-04
DEBUG_STATS_RL:                Wvel (DYNAMICS)  max=  1.75354522497754E-04
DEBUG_STATS_RL:                Wvel (DYNAMICS) mean= -4.08778778733999E-07
DEBUG_STATS_RL:                Wvel (DYNAMICS) S.D.=  9.22734858699716E-06
DEBUG_STATS_RL:               Theta (DYNAMICS)  min=  1.60840009875286E+01
DEBUG_STATS_RL:               Theta (DYNAMICS)  max=  2.17890860511995E+01
DEBUG_STATS_RL:               Theta (DYNAMICS) mean=  1.99984779213327E+01
DEBUG_STATS_RL:               Theta (DYNAMICS) S.D.=  6.68355699311907E-02
DEBUG_STATS_RL:                Salt (DYNAMICS)  min=  2.81473384737946E+01
DEBUG_STATS_RL:                Salt (DYNAMICS)  max=  3.51501440776960E+01
DEBUG_STATS_RL:                Salt (DYNAMICS) mean=  3.49983107117471E+01
DEBUG_STATS_RL:                Salt (DYNAMICS) S.D.=  7.70337987081953E-02
DEBUG_STATS_RL:                  Gu (DYNAMICS)  min= -7.72604822651559E-01
DEBUG_STATS_RL:                  Gu (DYNAMICS)  max=  3.99484428807491E-01
DEBUG_STATS_RL:                  Gu (DYNAMICS) mean= -5.18938261626528E-05
DEBUG_STATS_RL:                  Gu (DYNAMICS) S.D.=  2.09094099631635E-02
DEBUG_STATS_RL:                  Gv (DYNAMICS)  min= -9.14693865462705E-01
DEBUG_STATS_RL:                  Gv (DYNAMICS)  max=  6.49776197828067E-01
DEBUG_STATS_RL:                  Gv (DYNAMICS) mean= -8.19964482872680E-04
DEBUG_STATS_RL:                  Gv (DYNAMICS) S.D.=  2.66657250655989E-02
DEBUG_STATS_RL:               GuNm1 (DYNAMICS)  min= -7.11530707666287E-05
DEBUG_STATS_RL:               GuNm1 (DYNAMICS)  max=  2.22061932629452E-05
DEBUG_STATS_RL:               GuNm1 (DYNAMICS) mean= -7.05835294144474E-08
DEBUG_STATS_RL:               GuNm1 (DYNAMICS) S.D.=  1.69520805193727E-06
DEBUG_STATS_RL:               GvNm1 (DYNAMICS)  min= -2.79271110033976E-05
DEBUG_STATS_RL:               GvNm1 (DYNAMICS)  max=  4.19592980997774E-05
DEBUG_STATS_RL:               GvNm1 (DYNAMICS) mean= -4.61684451726030E-08
DEBUG_STATS_RL:               GvNm1 (DYNAMICS) S.D.=  1.33692329704052E-06
DEBUG_STATS_RL:               GtNm1 (DYNAMICS)  min= -2.68108045714307E-06
DEBUG_STATS_RL:               GtNm1 (DYNAMICS)  max=  8.29091425545171E-06
DEBUG_STATS_RL:               GtNm1 (DYNAMICS) mean=  1.83500342939045E-09
DEBUG_STATS_RL:               GtNm1 (DYNAMICS) S.D.=  8.91277999954691E-08
DEBUG_STATS_RL:               GsNm1 (DYNAMICS)  min= -1.48255208524860E-05
DEBUG_STATS_RL:               GsNm1 (DYNAMICS)  max=  2.25507008050799E-06
DEBUG_STATS_RL:               GsNm1 (DYNAMICS) mean= -4.10398003652387E-09
DEBUG_STATS_RL:               GsNm1 (DYNAMICS) S.D.=  1.86291004160449E-07
(PID.TID 0000.0001) DEBUG_MSG: LEAVING S/R DYNAMICS
DEBUG_STATS_RL:    cg2d_b (SOLVE_FOR_PRESSURE)  min= -2.93451026324186E+05
DEBUG_STATS_RL:    cg2d_b (SOLVE_FOR_PRESSURE)  max=  3.41774699450702E+05
DEBUG_STATS_RL:    cg2d_b (SOLVE_FOR_PRESSURE) mean= -2.54278944315052E+03
DEBUG_STATS_RL:    cg2d_b (SOLVE_FOR_PRESSURE) S.D.=  1.25160757985216E+04
 cg2d: Sum(rhs),rhsMax =  -3.28846147967908E+01  6.54722895656598E+01
(PID.TID 0000.0001)  cg2d: iter=     1 ; resid.=  3.74259772168340E-02
(PID.TID 0000.0001)  cg2d: iter=     2 ; resid.=  5.83688412983439E-03
(PID.TID 0000.0001)  cg2d: iter=     3 ; resid.=  1.16779538596127E-03
(PID.TID 0000.0001)  cg2d: iter=     4 ; resid.=  3.57808272278701E-04
(PID.TID 0000.0001)  cg2d: iter=     5 ; resid.=  1.17573733846122E-04
(PID.TID 0000.0001)  cg2d: iter=     6 ; resid.=  2.61697641643100E-05
(PID.TID 0000.0001)  cg2d: iter=     7 ; resid.=  5.37876349444667E-06
(PID.TID 0000.0001)  cg2d: iter=     8 ; resid.=  1.35211872289524E-06
(PID.TID 0000.0001)  cg2d: iter=     9 ; resid.=  4.27398033836891E-07
(PID.TID 0000.0001)  cg2d: iter=    10 ; resid.=  1.20112768542954E-07
(PID.TID 0000.0001)  cg2d: iter=    11 ; resid.=  3.19057424411088E-08
DEBUG_STATS_RL:    cg2d_x (SOLVE_FOR_PRESSURE)  min= -3.61354027134114E+01
DEBUG_STATS_RL:    cg2d_x (SOLVE_FOR_PRESSURE)  max=  2.52338431567401E+01
DEBUG_STATS_RL:    cg2d_x (SOLVE_FOR_PRESSURE) mean=  2.61010532098201E-01
DEBUG_STATS_RL:    cg2d_x (SOLVE_FOR_PRESSURE) S.D.=  1.23047582534505E+00
(PID.TID 0000.0001)      cg2d_init_res =   2.87903100122419E-01
(PID.TID 0000.0001)      cg2d_iters(min,last) =      -1      11
(PID.TID 0000.0001)      cg2d_last_res =   3.19057424411088E-08
(PID.TID 0000.0001) DEBUG_MSG: CALLING S/R UPDATE_ETAH
(PID.TID 0000.0001) DEBUG_MSG: ENTERED S/R CALC_R_STAR
(PID.TID 0000.0001) DEBUG_MSG: LEAVING S/R CALC_R_STAR
(PID.TID 0000.0001) DEBUG_MSG: CALLING S/R DO_STAGGER_FIELDS_EXCH.
(PID.TID 0000.0001) DEBUG_MSG: CALLING S/R THERMODYNAMICS
(PID.TID 0000.0001) DEBUG_MSG: ENTERED S/R THERMODYNAMICS
(PID.TID 0000.0001) DEBUG_MSG: CALLING S/R TEMP_INTEGRATE
(PID.TID 0000.0001) DEBUG_MSG: CALLING S/R SALT_INTEGRATE
DEBUG_STATS_RL:          Uvel (THERMODYNAMICS)  min= -7.94876159394081E-01
DEBUG_STATS_RL:          Uvel (THERMODYNAMICS)  max=  3.99307004066197E-01
DEBUG_STATS_RL:          Uvel (THERMODYNAMICS) mean= -7.05805911282964E-05
DEBUG_STATS_RL:          Uvel (THERMODYNAMICS) S.D.=  2.09503039655982E-02
DEBUG_STATS_RL:          Vvel (THERMODYNAMICS)  min= -1.02313628367372E+00
DEBUG_STATS_RL:          Vvel (THERMODYNAMICS)  max=  7.82818588445122E-01
DEBUG_STATS_RL:          Vvel (THERMODYNAMICS) mean= -8.04051310445374E-04
DEBUG_STATS_RL:          Vvel (THERMODYNAMICS) S.D.=  2.70049855916221E-02
DEBUG_STATS_RL:          Wvel (THERMODYNAMICS)  min= -3.96179796329604E-04
DEBUG_STATS_RL:          Wvel (THERMODYNAMICS)  max=  1.83319343786189E-04
DEBUG_STATS_RL:          Wvel (THERMODYNAMICS) mean= -3.75278091991166E-07
DEBUG_STATS_RL:          Wvel (THERMODYNAMICS) S.D.=  9.14420141226523E-06
DEBUG_STATS_RL:         Theta (THERMODYNAMICS)  min=  1.60875283539692E+01
DEBUG_STATS_RL:         Theta (THERMODYNAMICS)  max=  2.18418222899635E+01
DEBUG_STATS_RL:         Theta (THERMODYNAMICS) mean=  1.99986494038080E+01
DEBUG_STATS_RL:         Theta (THERMODYNAMICS) S.D.=  6.75446006832965E-02
DEBUG_STATS_RL:          Salt (THERMODYNAMICS)  min=  2.79869529646411E+01
DEBUG_STATS_RL:          Salt (THERMODYNAMICS)  max=  3.51501444120930E+01
DEBUG_STATS_RL:          Salt (THERMODYNAMICS) mean=  3.49982692331569E+01
DEBUG_STATS_RL:          Salt (THERMODYNAMICS) S.D.=  7.88833055162406E-02
DEBUG_STATS_RL:         GtNm1 (THERMODYNAMICS)  min= -2.74010139629199E-06
DEBUG_STATS_RL:         GtNm1 (THERMODYNAMICS)  max=  9.52117957115747E-06
DEBUG_STATS_RL:         GtNm1 (THERMODYNAMICS) mean=  2.08193831929889E-09
DEBUG_STATS_RL:         GtNm1 (THERMODYNAMICS) S.D.=  1.00292549850963E-07
DEBUG_STATS_RL:         GsNm1 (THERMODYNAMICS)  min= -1.50229146135754E-05
DEBUG_STATS_RL:         GsNm1 (THERMODYNAMICS)  max=  2.25468619258894E-06
DEBUG_STATS_RL:         GsNm1 (THERMODYNAMICS) mean= -4.16102866771401E-09
DEBUG_STATS_RL:         GsNm1 (THERMODYNAMICS) S.D.=  1.88647798887020E-07
(PID.TID 0000.0001) DEBUG_MSG: LEAVING S/R THERMODYNAMICS
(PID.TID 0000.0001) // =======================================================
(PID.TID 0000.0001) // Begin MONITOR dynamic field statistics
(PID.TID 0000.0001) // =======================================================
(PID.TID 0000.0001) %MON time_tsnumber                =                    29
(PID.TID 0000.0001) %MON time_secondsf                =   2.6100000000000E+04
(PID.TID 0000.0001) %MON dynstat_eta_max              =   2.5722572065676E+00
(PID.TID 0000.0001) %MON dynstat_eta_min              =  -3.6835272921828E+00
(PID.TID 0000.0001) %MON dynstat_eta_mean             =   2.5017935049538E-02
(PID.TID 0000.0001) %MON dynstat_eta_sd               =   1.2136821715029E-01
(PID.TID 0000.0001) %MON dynstat_eta_del2             =   3.1236630427020E-03
(PID.TID 0000.0001) %MON dynstat_uvel_max             =   3.9930700406620E-01
(PID.TID 0000.0001) %MON dynstat_uvel_min             =  -7.9487615939408E-01
(PID.TID 0000.0001) %MON dynstat_uvel_mean            =   2.6964992801448E-04
(PID.TID 0000.0001) %MON dynstat_uvel_sd              =   6.8803689329739E-03
(PID.TID 0000.0001) %MON dynstat_uvel_del2            =   9.3457183059262E-05
(PID.TID 0000.0001) %MON dynstat_vvel_max             =   7.8281858844512E-01
(PID.TID 0000.0001) %MON dynstat_vvel_min             =  -1.0231362836737E+00
(PID.TID 0000.0001) %MON dynstat_vvel_mean            =  -6.3529264017627E-05
(PID.TID 0000.0001) %MON dynstat_vvel_sd              =   8.8261996984011E-03
(PID.TID 0000.0001) %MON dynstat_vvel_del2            =   1.4400139149172E-04
(PID.TID 0000.0001) %MON dynstat_wvel_max             =   1.8331934378619E-04
(PID.TID 0000.0001) %MON dynstat_wvel_min             =  -3.9617979632960E-04
(PID.TID 0000.0001) %MON dynstat_wvel_mean            =  -2.3660827443491E-07
(PID.TID 0000.0001) %MON dynstat_wvel_sd              =   8.5859967886537E-06
(PID.TID 0000.0001) %MON dynstat_wvel_del2            =   7.5221538970941E-08
(PID.TID 0000.0001) %MON dynstat_theta_max            =   2.1841822289963E+01
(PID.TID 0000.0001) %MON dynstat_theta_min            =   1.6087528353969E+01
(PID.TID 0000.0001) %MON dynstat_theta_mean           =   1.9997853454594E+01
(PID.TID 0000.0001) %MON dynstat_theta_sd             =   2.2743440262003E-02
(PID.TID 0000.0001) %MON dynstat_theta_del2           =   4.2476313224563E-04
(PID.TID 0000.0001) %MON dynstat_salt_max             =   3.5150144412093E+01
(PID.TID 0000.0001) %MON dynstat_salt_min             =   2.7986952964641E+01
(PID.TID 0000.0001) %MON dynstat_salt_mean            =   3.4999758977337E+01
(PID.TID 0000.0001) %MON dynstat_salt_sd              =   2.4360937446628E-02
(PID.TID 0000.0001) %MON dynstat_salt_del2            =   8.5280588694164E-04
(PID.TID 0000.0001) %MON dynstat_sst_max              =   2.1841822289963E+01
(PID.TID 0000.0001) %MON dynstat_sst_min              =   1.6087528353969E+01
(PID.TID 0000.0001) %MON dynstat_sst_mean             =   2.0073059595091E+01
(PID.TID 0000.0001) %MON dynstat_sst_sd               =   1.9793309920706E-01
(PID.TID 0000.0001) %MON dynstat_sst_del2             =   4.5048646471306E-03
(PID.TID 0000.0001) %MON dynstat_sss_max              =   3.5150144412093E+01
(PID.TID 0000.0001) %MON dynstat_sss_min              =   2.7986952964641E+01
(PID.TID 0000.0001) %MON dynstat_sss_mean             =   3.4980029724258E+01
(PID.TID 0000.0001) %MON dynstat_sss_sd               =   2.9388041478885E-01
(PID.TID 0000.0001) %MON dynstat_sss_del2             =   1.1554203040285E-02
(PID.TID 0000.0001) %MON forcing_qnet_max             =   1.0370791992188E+04
(PID.TID 0000.0001) %MON forcing_qnet_min             =  -5.6435557954140E+03
(PID.TID 0000.0001) %MON forcing_qnet_mean            =  -7.2143871359953E+01
(PID.TID 0000.0001) %MON forcing_qnet_sd              =   6.4747920494869E+02
(PID.TID 0000.0001) %MON forcing_qnet_del2            =   1.1623670503707E+01
(PID.TID 0000.0001) %MON forcing_qsw_max              =   0.0000000000000E+00
(PID.TID 0000.0001) %MON forcing_qsw_min              =  -1.0369615248964E+02
(PID.TID 0000.0001) %MON forcing_qsw_mean             =  -1.6959587271997E+01
(PID.TID 0000.0001) %MON forcing_qsw_sd               =   2.5251664842373E+01
(PID.TID 0000.0001) %MON forcing_qsw_del2             =   2.5653281486338E-01
(PID.TID 0000.0001) %MON forcing_empmr_max            =   8.3005512133241E-03
(PID.TID 0000.0001) %MON forcing_empmr_min            =  -1.1930634826422E-01
(PID.TID 0000.0001) %MON forcing_empmr_mean           =  -5.0557963920341E-04
(PID.TID 0000.0001) %MON forcing_empmr_sd             =   5.2913471216521E-03
(PID.TID 0000.0001) %MON forcing_empmr_del2           =   2.0812653212378E-04
(PID.TID 0000.0001) %MON forcing_fu_max               =   8.1284466079515E-01
(PID.TID 0000.0001) %MON forcing_fu_min               =  -6.0576619383431E-01
(PID.TID 0000.0001) %MON forcing_fu_mean              =  -1.7686777630457E-04
(PID.TID 0000.0001) %MON forcing_fu_sd                =   9.6464059802994E-02
(PID.TID 0000.0001) %MON forcing_fu_del2              =   7.9326718050805E-04
(PID.TID 0000.0001) %MON forcing_fv_max               =   4.8324778357699E-01
(PID.TID 0000.0001) %MON forcing_fv_min               =  -4.5749504735002E-01
(PID.TID 0000.0001) %MON forcing_fv_mean              =  -3.4479319751096E-03
(PID.TID 0000.0001) %MON forcing_fv_sd                =   8.1381537490630E-02
(PID.TID 0000.0001) %MON forcing_fv_del2              =   6.9666898206839E-04
(PID.TID 0000.0001) %MON trAdv_CFL_u_max              =   2.3369334218734E-03
(PID.TID 0000.0001) %MON trAdv_CFL_v_max              =   4.7957908465826E-03
(PID.TID 0000.0001) %MON trAdv_CFL_w_max              =   4.3046068253332E-03
(PID.TID 0000.0001) %MON advcfl_uvel_max              =   2.3395089608753E-03
(PID.TID 0000.0001) %MON advcfl_vvel_max              =   3.3388669032999E-03
(PID.TID 0000.0001) %MON advcfl_wvel_max              =   8.2995720531629E-03
(PID.TID 0000.0001) %MON advcfl_W_hf_max              =   4.3046068253332E-03
(PID.TID 0000.0001) %MON pe_b_mean                    =   2.0457081285225E-05
(PID.TID 0000.0001) %MON ke_max                       =   3.8292348518423E-01
(PID.TID 0000.0001) %MON ke_mean                      =   5.7927295681160E-05
(PID.TID 0000.0001) %MON ke_vol                       =   1.3398113890804E+18
(PID.TID 0000.0001) %MON vort_r_min                   =  -5.5177802847693E-06
(PID.TID 0000.0001) %MON vort_r_max                   =   2.5838263564347E-06
(PID.TID 0000.0001) %MON vort_a_mean                  =  -2.0549865324846E-05
(PID.TID 0000.0001) %MON vort_a_sd                    =   7.5259223485182E-05
(PID.TID 0000.0001) %MON vort_p_mean                  =  -2.4783357438074E-05
(PID.TID 0000.0001) %MON vort_p_sd                    =   1.2810539775331E-04
(PID.TID 0000.0001) %MON surfExpan_theta_mean         =  -7.6206007003684E-07
(PID.TID 0000.0001) %MON surfExpan_salt_mean          =   1.4857531317113E-06
(PID.TID 0000.0001) // =======================================================
(PID.TID 0000.0001) // End MONITOR dynamic field statistics
(PID.TID 0000.0001) // =======================================================
(PID.TID 0000.0001) DEBUG_MSG: LEAVING S/R FORWARD_STEP
(PID.TID 0000.0001) DEBUG_MSG: ENTERED S/R FORWARD_STEP
(PID.TID 0000.0001) DEBUG_MSG: CALLING S/R LOAD_FIELDS_DRIVER
(PID.TID 0000.0001) DEBUG_MSG: ENTERED S/R LOAD_FIELDS_DRIVER
(PID.TID 0000.0001) DEBUG_MSG: CALLING S/R EXTERNAL_FIELDS_LOAD
(PID.TID 0000.0001) DEBUG_MSG: LEAVING S/R LOAD_FIELDS_DRIVER
(PID.TID 0000.0001) DEBUG_MSG: CALLING S/R DO_ATMOSPHERIC_PHYS
(PID.TID 0000.0001) DEBUG_MSG: ENTERED S/R DO_ATMOSPHERIC_PHYS
(PID.TID 0000.0001) DEBUG_MSG: LEAVING S/R DO_ATMOSPHERIC_PHYS
(PID.TID 0000.0001) DEBUG_MSG: CALLING S/R DO_OCEANIC_PHYS
(PID.TID 0000.0001) DEBUG_MSG: ENTERED S/R DO_OCEANIC_PHYS
(PID.TID 0000.0001) DEBUG_MSG: CALLING S/R EXTERNAL_FORCING_SURF
(PID.TID 0000.0001) DEBUG_MSG: CALLING S/R FIND_RHO_2D (xNr)
(PID.TID 0000.0001) DEBUG_MSG:                  ENTERING UPWARD K LOOP (bi=   1, bj=   1)
(PID.TID 0000.0001) DEBUG_MSG: CALLING S/R GRAD_SIGMA
(PID.TID 0000.0001) DEBUG_MSG: CALLING S/R CALC_IVDC
(PID.TID 0000.0001) DEBUG_MSG: CALLING S/R GRAD_SIGMA
(PID.TID 0000.0001) DEBUG_MSG: CALLING S/R CALC_IVDC
(PID.TID 0000.0001) DEBUG_MSG: CALLING S/R GRAD_SIGMA
(PID.TID 0000.0001) DEBUG_MSG: CALLING S/R CALC_IVDC
(PID.TID 0000.0001) DEBUG_MSG: CALLING S/R GRAD_SIGMA
(PID.TID 0000.0001) DEBUG_MSG: CALLING S/R CALC_IVDC
(PID.TID 0000.0001) DEBUG_MSG: CALLING S/R GRAD_SIGMA
(PID.TID 0000.0001) DEBUG_MSG: CALLING S/R CALC_IVDC
(PID.TID 0000.0001) DEBUG_MSG: CALLING S/R GRAD_SIGMA
(PID.TID 0000.0001) DEBUG_MSG: CALLING S/R CALC_IVDC
(PID.TID 0000.0001) DEBUG_MSG: CALLING S/R GRAD_SIGMA
(PID.TID 0000.0001) DEBUG_MSG: CALLING S/R CALC_IVDC
(PID.TID 0000.0001) DEBUG_MSG: CALLING S/R GRAD_SIGMA
(PID.TID 0000.0001) DEBUG_MSG: CALLING S/R CALC_IVDC
(PID.TID 0000.0001) DEBUG_MSG: CALLING S/R GRAD_SIGMA
(PID.TID 0000.0001) DEBUG_MSG: CALLING S/R CALC_IVDC
(PID.TID 0000.0001) DEBUG_MSG: CALLING S/R GRAD_SIGMA
(PID.TID 0000.0001) DEBUG_MSG: CALLING S/R CALC_IVDC
(PID.TID 0000.0001) DEBUG_MSG: CALLING S/R GRAD_SIGMA
(PID.TID 0000.0001) DEBUG_MSG: CALLING S/R CALC_IVDC
(PID.TID 0000.0001) DEBUG_MSG: CALLING S/R GRAD_SIGMA
(PID.TID 0000.0001) DEBUG_MSG: CALLING S/R CALC_IVDC
(PID.TID 0000.0001) DEBUG_MSG: CALLING S/R GRAD_SIGMA
(PID.TID 0000.0001) DEBUG_MSG: CALLING S/R CALC_IVDC
(PID.TID 0000.0001) DEBUG_MSG: CALLING S/R GRAD_SIGMA
(PID.TID 0000.0001) DEBUG_MSG: CALLING S/R CALC_IVDC
(PID.TID 0000.0001) DEBUG_MSG: CALLING S/R GRAD_SIGMA
(PID.TID 0000.0001) DEBUG_MSG: CALLING S/R CALC_IVDC
(PID.TID 0000.0001) DEBUG_MSG: CALLING S/R GRAD_SIGMA
(PID.TID 0000.0001) DEBUG_MSG: CALLING S/R GMREDI_CALC_TENSOR
(PID.TID 0000.0001) DEBUG_MSG: LEAVING S/R DO_OCEANIC_PHYS
(PID.TID 0000.0001) DEBUG_MSG: CALLING S/R DYNAMICS
(PID.TID 0000.0001) DEBUG_MSG: ENTERED S/R DYNAMICS
DEBUG_STATS_RL:                EtaN (DYNAMICS)  min= -3.68352729218277E+00
DEBUG_STATS_RL:                EtaN (DYNAMICS)  max=  2.57225720656763E+00
DEBUG_STATS_RL:                EtaN (DYNAMICS) mean=  2.66065781969599E-02
DEBUG_STATS_RL:                EtaN (DYNAMICS) S.D.=  1.25430767220393E-01
DEBUG_STATS_RL:                Uvel (DYNAMICS)  min= -7.94876159394081E-01
DEBUG_STATS_RL:                Uvel (DYNAMICS)  max=  3.99307004066197E-01
DEBUG_STATS_RL:                Uvel (DYNAMICS) mean= -7.05805911282964E-05
DEBUG_STATS_RL:                Uvel (DYNAMICS) S.D.=  2.09503039655982E-02
DEBUG_STATS_RL:                Vvel (DYNAMICS)  min= -1.02313628367372E+00
DEBUG_STATS_RL:                Vvel (DYNAMICS)  max=  7.82818588445122E-01
DEBUG_STATS_RL:                Vvel (DYNAMICS) mean= -8.04051310445374E-04
DEBUG_STATS_RL:                Vvel (DYNAMICS) S.D.=  2.70049855916221E-02
DEBUG_STATS_RL:                Wvel (DYNAMICS)  min= -3.96179796329604E-04
DEBUG_STATS_RL:                Wvel (DYNAMICS)  max=  1.83319343786189E-04
DEBUG_STATS_RL:                Wvel (DYNAMICS) mean= -3.75278091991166E-07
DEBUG_STATS_RL:                Wvel (DYNAMICS) S.D.=  9.14420141226523E-06
DEBUG_STATS_RL:               Theta (DYNAMICS)  min=  1.60875283539692E+01
DEBUG_STATS_RL:               Theta (DYNAMICS)  max=  2.18418222899635E+01
DEBUG_STATS_RL:               Theta (DYNAMICS) mean=  1.99986494038080E+01
DEBUG_STATS_RL:               Theta (DYNAMICS) S.D.=  6.75446006832965E-02
DEBUG_STATS_RL:                Salt (DYNAMICS)  min=  2.79869529646411E+01
DEBUG_STATS_RL:                Salt (DYNAMICS)  max=  3.51501444120930E+01
DEBUG_STATS_RL:                Salt (DYNAMICS) mean=  3.49982692331569E+01
DEBUG_STATS_RL:                Salt (DYNAMICS) S.D.=  7.88833055162406E-02
DEBUG_STATS_RL:                  Gu (DYNAMICS)  min= -8.11856489158509E-01
DEBUG_STATS_RL:                  Gu (DYNAMICS)  max=  4.00951783639255E-01
DEBUG_STATS_RL:                  Gu (DYNAMICS) mean= -1.33160177232075E-04
DEBUG_STATS_RL:                  Gu (DYNAMICS) S.D.=  2.09958605475986E-02
DEBUG_STATS_RL:                  Gv (DYNAMICS)  min= -1.00309687943786E+00
DEBUG_STATS_RL:                  Gv (DYNAMICS)  max=  7.55426677461341E-01
DEBUG_STATS_RL:                  Gv (DYNAMICS) mean= -8.39721347444465E-04
DEBUG_STATS_RL:                  Gv (DYNAMICS) S.D.=  2.69945870127219E-02
DEBUG_STATS_RL:               GuNm1 (DYNAMICS)  min= -6.88027206252996E-05
DEBUG_STATS_RL:               GuNm1 (DYNAMICS)  max=  2.40572109317463E-05
DEBUG_STATS_RL:               GuNm1 (DYNAMICS) mean= -7.03624197076532E-08
DEBUG_STATS_RL:               GuNm1 (DYNAMICS) S.D.=  1.70329933031160E-06
DEBUG_STATS_RL:               GvNm1 (DYNAMICS)  min= -2.91041300299863E-05
DEBUG_STATS_RL:               GvNm1 (DYNAMICS)  max=  4.17614073800865E-05
DEBUG_STATS_RL:               GvNm1 (DYNAMICS) mean= -4.25064638989763E-08
DEBUG_STATS_RL:               GvNm1 (DYNAMICS) S.D.=  1.34134832664110E-06
DEBUG_STATS_RL:               GtNm1 (DYNAMICS)  min= -2.74010139629199E-06
DEBUG_STATS_RL:               GtNm1 (DYNAMICS)  max=  9.52117957115747E-06
DEBUG_STATS_RL:               GtNm1 (DYNAMICS) mean=  2.08193831929889E-09
DEBUG_STATS_RL:               GtNm1 (DYNAMICS) S.D.=  1.00292549850963E-07
DEBUG_STATS_RL:               GsNm1 (DYNAMICS)  min= -1.50229146135754E-05
DEBUG_STATS_RL:               GsNm1 (DYNAMICS)  max=  2.25468619258894E-06
DEBUG_STATS_RL:               GsNm1 (DYNAMICS) mean= -4.16102866771401E-09
DEBUG_STATS_RL:               GsNm1 (DYNAMICS) S.D.=  1.88647798887020E-07
(PID.TID 0000.0001) DEBUG_MSG: LEAVING S/R DYNAMICS
DEBUG_STATS_RL:    cg2d_b (SOLVE_FOR_PRESSURE)  min= -2.59164793631721E+05
DEBUG_STATS_RL:    cg2d_b (SOLVE_FOR_PRESSURE)  max=  3.07992321639528E+05
DEBUG_STATS_RL:    cg2d_b (SOLVE_FOR_PRESSURE) mean= -2.58732646477286E+03
DEBUG_STATS_RL:    cg2d_b (SOLVE_FOR_PRESSURE) S.D.=  1.21107978271948E+04
 cg2d: Sum(rhs),rhsMax =  -3.71307405113839E+01  5.90007466871948E+01
(PID.TID 0000.0001)  cg2d: iter=     1 ; resid.=  4.10669769483034E-02
(PID.TID 0000.0001)  cg2d: iter=     2 ; resid.=  6.54895072267812E-03
(PID.TID 0000.0001)  cg2d: iter=     3 ; resid.=  1.29463122986422E-03
(PID.TID 0000.0001)  cg2d: iter=     4 ; resid.=  3.96818077157866E-04
(PID.TID 0000.0001)  cg2d: iter=     5 ; resid.=  1.29378049063247E-04
(PID.TID 0000.0001)  cg2d: iter=     6 ; resid.=  2.91642730202328E-05
(PID.TID 0000.0001)  cg2d: iter=     7 ; resid.=  5.88020851222357E-06
(PID.TID 0000.0001)  cg2d: iter=     8 ; resid.=  1.54481624268679E-06
(PID.TID 0000.0001)  cg2d: iter=     9 ; resid.=  4.75910856396100E-07
(PID.TID 0000.0001)  cg2d: iter=    10 ; resid.=  1.36127378558797E-07
(PID.TID 0000.0001)  cg2d: iter=    11 ; resid.=  3.59290197778101E-08
DEBUG_STATS_RL:    cg2d_x (SOLVE_FOR_PRESSURE)  min= -3.25578532275762E+01
DEBUG_STATS_RL:    cg2d_x (SOLVE_FOR_PRESSURE)  max=  2.23002194298741E+01
DEBUG_STATS_RL:    cg2d_x (SOLVE_FOR_PRESSURE) mean=  2.64529909771589E-01
DEBUG_STATS_RL:    cg2d_x (SOLVE_FOR_PRESSURE) S.D.=  1.19147331722495E+00
(PID.TID 0000.0001)      cg2d_init_res =   3.19972343886780E-01
(PID.TID 0000.0001)      cg2d_iters(min,last) =      -1      11
(PID.TID 0000.0001)      cg2d_last_res =   3.59290197778101E-08
(PID.TID 0000.0001) DEBUG_MSG: CALLING S/R UPDATE_ETAH
(PID.TID 0000.0001) DEBUG_MSG: ENTERED S/R CALC_R_STAR
(PID.TID 0000.0001) DEBUG_MSG: LEAVING S/R CALC_R_STAR
(PID.TID 0000.0001) DEBUG_MSG: CALLING S/R DO_STAGGER_FIELDS_EXCH.
(PID.TID 0000.0001) DEBUG_MSG: CALLING S/R THERMODYNAMICS
(PID.TID 0000.0001) DEBUG_MSG: ENTERED S/R THERMODYNAMICS
(PID.TID 0000.0001) DEBUG_MSG: CALLING S/R TEMP_INTEGRATE
(PID.TID 0000.0001) DEBUG_MSG: CALLING S/R SALT_INTEGRATE
DEBUG_STATS_RL:          Uvel (THERMODYNAMICS)  min= -8.31041661164477E-01
DEBUG_STATS_RL:          Uvel (THERMODYNAMICS)  max=  4.00757509505382E-01
DEBUG_STATS_RL:          Uvel (THERMODYNAMICS) mean= -1.52596376563982E-04
DEBUG_STATS_RL:          Uvel (THERMODYNAMICS) S.D.=  2.10787199130162E-02
DEBUG_STATS_RL:          Vvel (THERMODYNAMICS)  min= -1.10196664853597E+00
DEBUG_STATS_RL:          Vvel (THERMODYNAMICS)  max=  8.90416600961372E-01
DEBUG_STATS_RL:          Vvel (THERMODYNAMICS) mean= -8.21701844333329E-04
DEBUG_STATS_RL:          Vvel (THERMODYNAMICS) S.D.=  2.73173186575052E-02
DEBUG_STATS_RL:          Wvel (THERMODYNAMICS)  min= -3.71432565537177E-04
DEBUG_STATS_RL:          Wvel (THERMODYNAMICS)  max=  1.89864023832759E-04
DEBUG_STATS_RL:          Wvel (THERMODYNAMICS) mean= -3.39889161187155E-07
DEBUG_STATS_RL:          Wvel (THERMODYNAMICS) S.D.=  9.04230448322830E-06
DEBUG_STATS_RL:         Theta (THERMODYNAMICS)  min=  1.60921377088731E+01
DEBUG_STATS_RL:         Theta (THERMODYNAMICS)  max=  2.18938810247532E+01
DEBUG_STATS_RL:         Theta (THERMODYNAMICS) mean=  1.99988149348079E+01
DEBUG_STATS_RL:         Theta (THERMODYNAMICS) S.D.=  6.82554549008988E-02
DEBUG_STATS_RL:          Salt (THERMODYNAMICS)  min=  2.78307380585819E+01
DEBUG_STATS_RL:          Salt (THERMODYNAMICS)  max=  3.51501442019028E+01
DEBUG_STATS_RL:          Salt (THERMODYNAMICS) mean=  3.49982281004003E+01
DEBUG_STATS_RL:          Salt (THERMODYNAMICS) S.D.=  8.06890317676988E-02
DEBUG_STATS_RL:         GtNm1 (THERMODYNAMICS)  min= -2.80283788120321E-06
DEBUG_STATS_RL:         GtNm1 (THERMODYNAMICS)  max=  1.06107055066512E-05
DEBUG_STATS_RL:         GtNm1 (THERMODYNAMICS) mean=  2.28140704114908E-09
DEBUG_STATS_RL:         GtNm1 (THERMODYNAMICS) S.D.=  1.11077951379463E-07
DEBUG_STATS_RL:         GsNm1 (THERMODYNAMICS)  min= -1.52054251192061E-05
DEBUG_STATS_RL:         GsNm1 (THERMODYNAMICS)  max=  2.24798883224383E-06
DEBUG_STATS_RL:         GsNm1 (THERMODYNAMICS) mean= -4.21875303922097E-09
DEBUG_STATS_RL:         GsNm1 (THERMODYNAMICS) S.D.=  1.90850203278415E-07
(PID.TID 0000.0001) DEBUG_MSG: LEAVING S/R THERMODYNAMICS
(PID.TID 0000.0001) // =======================================================
(PID.TID 0000.0001) // Begin MONITOR dynamic field statistics
(PID.TID 0000.0001) // =======================================================
(PID.TID 0000.0001) %MON time_tsnumber                =                    30
(PID.TID 0000.0001) %MON time_secondsf                =   2.7000000000000E+04
(PID.TID 0000.0001) %MON dynstat_eta_max              =   2.2732129938846E+00
(PID.TID 0000.0001) %MON dynstat_eta_min              =  -3.3188433489950E+00
(PID.TID 0000.0001) %MON dynstat_eta_mean             =   2.5456124816783E-02
(PID.TID 0000.0001) %MON dynstat_eta_sd               =   1.1738272276388E-01
(PID.TID 0000.0001) %MON dynstat_eta_del2             =   2.9383420187771E-03
(PID.TID 0000.0001) %MON dynstat_uvel_max             =   4.0075750950538E-01
(PID.TID 0000.0001) %MON dynstat_uvel_min             =  -8.3104166116448E-01
(PID.TID 0000.0001) %MON dynstat_uvel_mean            =   2.3538232683746E-04
(PID.TID 0000.0001) %MON dynstat_uvel_sd              =   6.9025897094495E-03
(PID.TID 0000.0001) %MON dynstat_uvel_del2            =   9.3845942829677E-05
(PID.TID 0000.0001) %MON dynstat_vvel_max             =   8.9041660096137E-01
(PID.TID 0000.0001) %MON dynstat_vvel_min             =  -1.1019666485360E+00
(PID.TID 0000.0001) %MON dynstat_vvel_mean            =  -6.7328574644964E-05
(PID.TID 0000.0001) %MON dynstat_vvel_sd              =   8.9114143492927E-03
(PID.TID 0000.0001) %MON dynstat_vvel_del2            =   1.4836442775120E-04
(PID.TID 0000.0001) %MON dynstat_wvel_max             =   1.8986402383276E-04
(PID.TID 0000.0001) %MON dynstat_wvel_min             =  -3.7143256553718E-04
(PID.TID 0000.0001) %MON dynstat_wvel_mean            =  -1.9792402339185E-07
(PID.TID 0000.0001) %MON dynstat_wvel_sd              =   8.4771604295040E-06
(PID.TID 0000.0001) %MON dynstat_wvel_del2            =   7.4614465116000E-08
(PID.TID 0000.0001) %MON dynstat_theta_max            =   2.1893881024753E+01
(PID.TID 0000.0001) %MON dynstat_theta_min            =   1.6092137708873E+01
(PID.TID 0000.0001) %MON dynstat_theta_mean           =   1.9997857508698E+01
(PID.TID 0000.0001) %MON dynstat_theta_sd             =   2.2963714266953E-02
(PID.TID 0000.0001) %MON dynstat_theta_del2           =   4.2782587302111E-04
(PID.TID 0000.0001) %MON dynstat_salt_max             =   3.5150144201903E+01
(PID.TID 0000.0001) %MON dynstat_salt_min             =   2.7830738058582E+01
(PID.TID 0000.0001) %MON dynstat_salt_mean            =   3.4999754350519E+01
(PID.TID 0000.0001) %MON dynstat_salt_sd              =   2.4916729742969E-02
(PID.TID 0000.0001) %MON dynstat_salt_del2            =   8.7197440743367E-04
(PID.TID 0000.0001) %MON dynstat_sst_max              =   2.1893881024753E+01
(PID.TID 0000.0001) %MON dynstat_sst_min              =   1.6092137708873E+01
(PID.TID 0000.0001) %MON dynstat_sst_mean             =   2.0075371565429E+01
(PID.TID 0000.0001) %MON dynstat_sst_sd               =   2.0066929179913E-01
(PID.TID 0000.0001) %MON dynstat_sst_del2             =   4.5582002836799E-03
(PID.TID 0000.0001) %MON dynstat_sss_max              =   3.5150144201903E+01
(PID.TID 0000.0001) %MON dynstat_sss_min              =   2.7830738058582E+01
(PID.TID 0000.0001) %MON dynstat_sss_mean             =   3.4979496737348E+01
(PID.TID 0000.0001) %MON dynstat_sss_sd               =   3.0061260920622E-01
(PID.TID 0000.0001) %MON dynstat_sss_del2             =   1.1813796557684E-02
(PID.TID 0000.0001) %MON forcing_qnet_max             =   1.3288538085938E+04
(PID.TID 0000.0001) %MON forcing_qnet_min             =  -5.5588915165149E+03
(PID.TID 0000.0001) %MON forcing_qnet_mean            =  -6.6912002321598E+01
(PID.TID 0000.0001) %MON forcing_qnet_sd              =   6.5584901087232E+02
(PID.TID 0000.0001) %MON forcing_qnet_del2            =   1.2443241066632E+01
(PID.TID 0000.0001) %MON forcing_qsw_max              =   0.0000000000000E+00
(PID.TID 0000.0001) %MON forcing_qsw_min              =  -1.0149847768099E+02
(PID.TID 0000.0001) %MON forcing_qsw_mean             =  -1.6771491718663E+01
(PID.TID 0000.0001) %MON forcing_qsw_sd               =   2.5189591912138E+01
(PID.TID 0000.0001) %MON forcing_qsw_del2             =   2.5376286918247E-01
(PID.TID 0000.0001) %MON forcing_empmr_max            =   8.2149896770716E-03
(PID.TID 0000.0001) %MON forcing_empmr_min            =  -1.1807709187269E-01
(PID.TID 0000.0001) %MON forcing_empmr_mean           =  -5.0391823233185E-04
(PID.TID 0000.0001) %MON forcing_empmr_sd             =   5.2535410656953E-03
(PID.TID 0000.0001) %MON forcing_empmr_del2           =   2.0648100083007E-04
(PID.TID 0000.0001) %MON forcing_fu_max               =   7.5955090078945E-01
(PID.TID 0000.0001) %MON forcing_fu_min               =  -5.9821507800078E-01
(PID.TID 0000.0001) %MON forcing_fu_mean              =  -2.2902922410366E-04
(PID.TID 0000.0001) %MON forcing_fu_sd                =   9.5444470219380E-02
(PID.TID 0000.0001) %MON forcing_fu_del2              =   7.8093585498729E-04
(PID.TID 0000.0001) %MON forcing_fv_max               =   4.8642780564116E-01
(PID.TID 0000.0001) %MON forcing_fv_min               =  -4.5198789328664E-01
(PID.TID 0000.0001) %MON forcing_fv_mean              =  -3.4617898861568E-03
(PID.TID 0000.0001) %MON forcing_fv_sd                =   8.1111907676558E-02
(PID.TID 0000.0001) %MON forcing_fv_del2              =   6.9233381422271E-04
(PID.TID 0000.0001) %MON trAdv_CFL_u_max              =   2.4453403485243E-03
(PID.TID 0000.0001) %MON trAdv_CFL_v_max              =   5.0290123265312E-03
(PID.TID 0000.0001) %MON trAdv_CFL_w_max              =   4.2324476857408E-03
(PID.TID 0000.0001) %MON advcfl_uvel_max              =   2.4459526055443E-03
(PID.TID 0000.0001) %MON advcfl_vvel_max              =   3.5961191388169E-03
(PID.TID 0000.0001) %MON advcfl_wvel_max              =   8.2140585650568E-03
(PID.TID 0000.0001) %MON advcfl_W_hf_max              =   4.2324476857408E-03
(PID.TID 0000.0001) %MON pe_b_mean                    =   1.9218923647261E-05
(PID.TID 0000.0001) %MON ke_max                       =   3.8434017579694E-01
(PID.TID 0000.0001) %MON ke_mean                      =   5.8761573540498E-05
(PID.TID 0000.0001) %MON ke_vol                       =   1.3398115490575E+18
(PID.TID 0000.0001) %MON vort_r_min                   =  -5.5574006162065E-06
(PID.TID 0000.0001) %MON vort_r_max                   =   2.9389719607205E-06
(PID.TID 0000.0001) %MON vort_a_mean                  =  -2.0549865324846E-05
(PID.TID 0000.0001) %MON vort_a_sd                    =   7.5259221004328E-05
(PID.TID 0000.0001) %MON vort_p_mean                  =  -2.4783354468078E-05
(PID.TID 0000.0001) %MON vort_p_sd                    =   1.2810536997747E-04
(PID.TID 0000.0001) %MON surfExpan_theta_mean         =  -8.3181971733515E-07
(PID.TID 0000.0001) %MON surfExpan_salt_mean          =   1.5029371558571E-06
(PID.TID 0000.0001) // =======================================================
(PID.TID 0000.0001) // End MONITOR dynamic field statistics
(PID.TID 0000.0001) // =======================================================
(PID.TID 0000.0001) DEBUG_MSG: LEAVING S/R FORWARD_STEP
(PID.TID 0000.0001) DEBUG_MSG: ENTERED S/R FORWARD_STEP
(PID.TID 0000.0001) DEBUG_MSG: CALLING S/R LOAD_FIELDS_DRIVER
(PID.TID 0000.0001) DEBUG_MSG: ENTERED S/R LOAD_FIELDS_DRIVER
(PID.TID 0000.0001) DEBUG_MSG: CALLING S/R EXTERNAL_FIELDS_LOAD
(PID.TID 0000.0001) DEBUG_MSG: LEAVING S/R LOAD_FIELDS_DRIVER
(PID.TID 0000.0001) DEBUG_MSG: CALLING S/R DO_ATMOSPHERIC_PHYS
(PID.TID 0000.0001) DEBUG_MSG: ENTERED S/R DO_ATMOSPHERIC_PHYS
(PID.TID 0000.0001) DEBUG_MSG: LEAVING S/R DO_ATMOSPHERIC_PHYS
(PID.TID 0000.0001) DEBUG_MSG: CALLING S/R DO_OCEANIC_PHYS
(PID.TID 0000.0001) DEBUG_MSG: ENTERED S/R DO_OCEANIC_PHYS
(PID.TID 0000.0001) DEBUG_MSG: CALLING S/R EXTERNAL_FORCING_SURF
(PID.TID 0000.0001) DEBUG_MSG: CALLING S/R FIND_RHO_2D (xNr)
(PID.TID 0000.0001) DEBUG_MSG:                  ENTERING UPWARD K LOOP (bi=   1, bj=   1)
(PID.TID 0000.0001) DEBUG_MSG: CALLING S/R GRAD_SIGMA
(PID.TID 0000.0001) DEBUG_MSG: CALLING S/R CALC_IVDC
(PID.TID 0000.0001) DEBUG_MSG: CALLING S/R GRAD_SIGMA
(PID.TID 0000.0001) DEBUG_MSG: CALLING S/R CALC_IVDC
(PID.TID 0000.0001) DEBUG_MSG: CALLING S/R GRAD_SIGMA
(PID.TID 0000.0001) DEBUG_MSG: CALLING S/R CALC_IVDC
(PID.TID 0000.0001) DEBUG_MSG: CALLING S/R GRAD_SIGMA
(PID.TID 0000.0001) DEBUG_MSG: CALLING S/R CALC_IVDC
(PID.TID 0000.0001) DEBUG_MSG: CALLING S/R GRAD_SIGMA
(PID.TID 0000.0001) DEBUG_MSG: CALLING S/R CALC_IVDC
(PID.TID 0000.0001) DEBUG_MSG: CALLING S/R GRAD_SIGMA
(PID.TID 0000.0001) DEBUG_MSG: CALLING S/R CALC_IVDC
(PID.TID 0000.0001) DEBUG_MSG: CALLING S/R GRAD_SIGMA
(PID.TID 0000.0001) DEBUG_MSG: CALLING S/R CALC_IVDC
(PID.TID 0000.0001) DEBUG_MSG: CALLING S/R GRAD_SIGMA
(PID.TID 0000.0001) DEBUG_MSG: CALLING S/R CALC_IVDC
(PID.TID 0000.0001) DEBUG_MSG: CALLING S/R GRAD_SIGMA
(PID.TID 0000.0001) DEBUG_MSG: CALLING S/R CALC_IVDC
(PID.TID 0000.0001) DEBUG_MSG: CALLING S/R GRAD_SIGMA
(PID.TID 0000.0001) DEBUG_MSG: CALLING S/R CALC_IVDC
(PID.TID 0000.0001) DEBUG_MSG: CALLING S/R GRAD_SIGMA
(PID.TID 0000.0001) DEBUG_MSG: CALLING S/R CALC_IVDC
(PID.TID 0000.0001) DEBUG_MSG: CALLING S/R GRAD_SIGMA
(PID.TID 0000.0001) DEBUG_MSG: CALLING S/R CALC_IVDC
(PID.TID 0000.0001) DEBUG_MSG: CALLING S/R GRAD_SIGMA
(PID.TID 0000.0001) DEBUG_MSG: CALLING S/R CALC_IVDC
(PID.TID 0000.0001) DEBUG_MSG: CALLING S/R GRAD_SIGMA
(PID.TID 0000.0001) DEBUG_MSG: CALLING S/R CALC_IVDC
(PID.TID 0000.0001) DEBUG_MSG: CALLING S/R GRAD_SIGMA
(PID.TID 0000.0001) DEBUG_MSG: CALLING S/R CALC_IVDC
(PID.TID 0000.0001) DEBUG_MSG: CALLING S/R GRAD_SIGMA
(PID.TID 0000.0001) DEBUG_MSG: CALLING S/R GMREDI_CALC_TENSOR
(PID.TID 0000.0001) DEBUG_MSG: LEAVING S/R DO_OCEANIC_PHYS
(PID.TID 0000.0001) DEBUG_MSG: CALLING S/R DYNAMICS
(PID.TID 0000.0001) DEBUG_MSG: ENTERED S/R DYNAMICS
DEBUG_STATS_RL:                EtaN (DYNAMICS)  min= -3.31884334899496E+00
DEBUG_STATS_RL:                EtaN (DYNAMICS)  max=  2.27321299388459E+00
DEBUG_STATS_RL:                EtaN (DYNAMICS) mean=  2.69653322448964E-02
DEBUG_STATS_RL:                EtaN (DYNAMICS) S.D.=  1.21454976394621E-01
DEBUG_STATS_RL:                Uvel (DYNAMICS)  min= -8.31041661164477E-01
DEBUG_STATS_RL:                Uvel (DYNAMICS)  max=  4.00757509505382E-01
DEBUG_STATS_RL:                Uvel (DYNAMICS) mean= -1.52596376563982E-04
DEBUG_STATS_RL:                Uvel (DYNAMICS) S.D.=  2.10787199130162E-02
DEBUG_STATS_RL:                Vvel (DYNAMICS)  min= -1.10196664853597E+00
DEBUG_STATS_RL:                Vvel (DYNAMICS)  max=  8.90416600961372E-01
DEBUG_STATS_RL:                Vvel (DYNAMICS) mean= -8.21701844333329E-04
DEBUG_STATS_RL:                Vvel (DYNAMICS) S.D.=  2.73173186575052E-02
DEBUG_STATS_RL:                Wvel (DYNAMICS)  min= -3.71432565537177E-04
DEBUG_STATS_RL:                Wvel (DYNAMICS)  max=  1.89864023832759E-04
DEBUG_STATS_RL:                Wvel (DYNAMICS) mean= -3.39889161187155E-07
DEBUG_STATS_RL:                Wvel (DYNAMICS) S.D.=  9.04230448322830E-06
DEBUG_STATS_RL:               Theta (DYNAMICS)  min=  1.60921377088731E+01
DEBUG_STATS_RL:               Theta (DYNAMICS)  max=  2.18938810247532E+01
DEBUG_STATS_RL:               Theta (DYNAMICS) mean=  1.99988149348079E+01
DEBUG_STATS_RL:               Theta (DYNAMICS) S.D.=  6.82554549008988E-02
DEBUG_STATS_RL:                Salt (DYNAMICS)  min=  2.78307380585819E+01
DEBUG_STATS_RL:                Salt (DYNAMICS)  max=  3.51501442019028E+01
DEBUG_STATS_RL:                Salt (DYNAMICS) mean=  3.49982281004003E+01
DEBUG_STATS_RL:                Salt (DYNAMICS) S.D.=  8.06890317676988E-02
DEBUG_STATS_RL:                  Gu (DYNAMICS)  min= -8.46893102297351E-01
DEBUG_STATS_RL:                  Gu (DYNAMICS)  max=  3.99842987141307E-01
DEBUG_STATS_RL:                  Gu (DYNAMICS) mean= -2.14168781614580E-04
DEBUG_STATS_RL:                  Gu (DYNAMICS) S.D.=  2.11476224795252E-02
DEBUG_STATS_RL:                  Gv (DYNAMICS)  min= -1.07441704136764E+00
DEBUG_STATS_RL:                  Gv (DYNAMICS)  max=  8.62282641813371E-01
DEBUG_STATS_RL:                  Gv (DYNAMICS) mean= -8.53538106858458E-04
DEBUG_STATS_RL:                  Gv (DYNAMICS) S.D.=  2.72297712863441E-02
DEBUG_STATS_RL:               GuNm1 (DYNAMICS)  min= -6.56582017307178E-05
DEBUG_STATS_RL:               GuNm1 (DYNAMICS)  max=  2.56226563532736E-05
DEBUG_STATS_RL:               GuNm1 (DYNAMICS) mean= -6.95786697172053E-08
DEBUG_STATS_RL:               GuNm1 (DYNAMICS) S.D.=  1.70141555370846E-06
DEBUG_STATS_RL:               GvNm1 (DYNAMICS)  min= -2.99836267399006E-05
DEBUG_STATS_RL:               GvNm1 (DYNAMICS)  max=  4.18552418357224E-05
DEBUG_STATS_RL:               GvNm1 (DYNAMICS) mean= -3.84604889100521E-08
DEBUG_STATS_RL:               GvNm1 (DYNAMICS) S.D.=  1.35309443679153E-06
DEBUG_STATS_RL:               GtNm1 (DYNAMICS)  min= -2.80283788120321E-06
DEBUG_STATS_RL:               GtNm1 (DYNAMICS)  max=  1.06107055066512E-05
DEBUG_STATS_RL:               GtNm1 (DYNAMICS) mean=  2.28140704114908E-09
DEBUG_STATS_RL:               GtNm1 (DYNAMICS) S.D.=  1.11077951379463E-07
DEBUG_STATS_RL:               GsNm1 (DYNAMICS)  min= -1.52054251192061E-05
DEBUG_STATS_RL:               GsNm1 (DYNAMICS)  max=  2.24798883224383E-06
DEBUG_STATS_RL:               GsNm1 (DYNAMICS) mean= -4.21875303922097E-09
DEBUG_STATS_RL:               GsNm1 (DYNAMICS) S.D.=  1.90850203278415E-07
(PID.TID 0000.0001) DEBUG_MSG: LEAVING S/R DYNAMICS
DEBUG_STATS_RL:    cg2d_b (SOLVE_FOR_PRESSURE)  min= -2.24494296729130E+05
DEBUG_STATS_RL:    cg2d_b (SOLVE_FOR_PRESSURE)  max=  2.69558363075800E+05
DEBUG_STATS_RL:    cg2d_b (SOLVE_FOR_PRESSURE) mean= -2.63213811125740E+03
DEBUG_STATS_RL:    cg2d_b (SOLVE_FOR_PRESSURE) S.D.=  1.17258881249105E+04
 cg2d: Sum(rhs),rhsMax =  -4.31596716904169E+01  5.16381207576474E+01
(PID.TID 0000.0001)  cg2d: iter=     1 ; resid.=  4.63517970030656E-02
(PID.TID 0000.0001)  cg2d: iter=     2 ; resid.=  7.36988994571732E-03
(PID.TID 0000.0001)  cg2d: iter=     3 ; resid.=  1.48611062626918E-03
(PID.TID 0000.0001)  cg2d: iter=     4 ; resid.=  4.69327106889667E-04
(PID.TID 0000.0001)  cg2d: iter=     5 ; resid.=  1.47262933193793E-04
(PID.TID 0000.0001)  cg2d: iter=     6 ; resid.=  3.29763768112697E-05
(PID.TID 0000.0001)  cg2d: iter=     7 ; resid.=  6.57829752381289E-06
(PID.TID 0000.0001)  cg2d: iter=     8 ; resid.=  1.81959396722187E-06
(PID.TID 0000.0001)  cg2d: iter=     9 ; resid.=  5.46548441476708E-07
(PID.TID 0000.0001)  cg2d: iter=    10 ; resid.=  1.57604738933121E-07
(PID.TID 0000.0001)  cg2d: iter=    11 ; resid.=  4.18015894515488E-08
DEBUG_STATS_RL:    cg2d_x (SOLVE_FOR_PRESSURE)  min= -2.84899850592090E+01
DEBUG_STATS_RL:    cg2d_x (SOLVE_FOR_PRESSURE)  max=  1.92748086147295E+01
DEBUG_STATS_RL:    cg2d_x (SOLVE_FOR_PRESSURE) mean=  2.67731999339323E-01
DEBUG_STATS_RL:    cg2d_x (SOLVE_FOR_PRESSURE) S.D.=  1.15358002773760E+00
(PID.TID 0000.0001)      cg2d_init_res =   3.63318237911938E-01
(PID.TID 0000.0001)      cg2d_iters(min,last) =      -1      11
(PID.TID 0000.0001)      cg2d_last_res =   4.18015894515488E-08
(PID.TID 0000.0001) DEBUG_MSG: CALLING S/R UPDATE_ETAH
(PID.TID 0000.0001) DEBUG_MSG: ENTERED S/R CALC_R_STAR
(PID.TID 0000.0001) DEBUG_MSG: LEAVING S/R CALC_R_STAR
(PID.TID 0000.0001) DEBUG_MSG: CALLING S/R DO_STAGGER_FIELDS_EXCH.
(PID.TID 0000.0001) DEBUG_MSG: CALLING S/R THERMODYNAMICS
(PID.TID 0000.0001) DEBUG_MSG: ENTERED S/R THERMODYNAMICS
(PID.TID 0000.0001) DEBUG_MSG: CALLING S/R TEMP_INTEGRATE
(PID.TID 0000.0001) DEBUG_MSG: CALLING S/R SALT_INTEGRATE
DEBUG_STATS_RL:          Uvel (THERMODYNAMICS)  min= -8.62413741140205E-01
DEBUG_STATS_RL:          Uvel (THERMODYNAMICS)  max=  3.99626837052069E-01
DEBUG_STATS_RL:          Uvel (THERMODYNAMICS) mean= -2.33272228411489E-04
DEBUG_STATS_RL:          Uvel (THERMODYNAMICS) S.D.=  2.12557900898235E-02
DEBUG_STATS_RL:          Vvel (THERMODYNAMICS)  min= -1.16209162424200E+00
DEBUG_STATS_RL:          Vvel (THERMODYNAMICS)  max=  9.82023901802478E-01
DEBUG_STATS_RL:          Vvel (THERMODYNAMICS) mean= -8.33592250133649E-04
DEBUG_STATS_RL:          Vvel (THERMODYNAMICS) S.D.=  2.75228000582817E-02
DEBUG_STATS_RL:          Wvel (THERMODYNAMICS)  min= -3.46857909189933E-04
DEBUG_STATS_RL:          Wvel (THERMODYNAMICS)  max=  1.95160704494713E-04
DEBUG_STATS_RL:          Wvel (THERMODYNAMICS) mean= -3.05136961213704E-07
DEBUG_STATS_RL:          Wvel (THERMODYNAMICS) S.D.=  8.93461367103498E-06
DEBUG_STATS_RL:         Theta (THERMODYNAMICS)  min=  1.60976322073583E+01
DEBUG_STATS_RL:         Theta (THERMODYNAMICS)  max=  2.19452901797983E+01
DEBUG_STATS_RL:         Theta (THERMODYNAMICS) mean=  1.99989741119910E+01
DEBUG_STATS_RL:         Theta (THERMODYNAMICS) S.D.=  6.89892188451317E-02
DEBUG_STATS_RL:          Salt (THERMODYNAMICS)  min=  2.76785694282489E+01
DEBUG_STATS_RL:          Salt (THERMODYNAMICS)  max=  3.51501448541573E+01
DEBUG_STATS_RL:          Salt (THERMODYNAMICS) mean=  3.49981872175792E+01
DEBUG_STATS_RL:          Salt (THERMODYNAMICS) S.D.=  8.24540629638481E-02
DEBUG_STATS_RL:         GtNm1 (THERMODYNAMICS)  min= -2.86759381083245E-06
DEBUG_STATS_RL:         GtNm1 (THERMODYNAMICS)  max=  1.15379362147011E-05
DEBUG_STATS_RL:         GtNm1 (THERMODYNAMICS) mean=  2.42270871081440E-09
DEBUG_STATS_RL:         GtNm1 (THERMODYNAMICS) S.D.=  1.21003965014284E-07
DEBUG_STATS_RL:         GsNm1 (THERMODYNAMICS)  min= -1.53735191993397E-05
DEBUG_STATS_RL:         GsNm1 (THERMODYNAMICS)  max=  2.23350837690213E-06
DEBUG_STATS_RL:         GsNm1 (THERMODYNAMICS) mean= -4.27897007756353E-09
DEBUG_STATS_RL:         GsNm1 (THERMODYNAMICS) S.D.=  1.92870604213868E-07
(PID.TID 0000.0001) DEBUG_MSG: LEAVING S/R THERMODYNAMICS
(PID.TID 0000.0001) // =======================================================
(PID.TID 0000.0001) // Begin MONITOR dynamic field statistics
(PID.TID 0000.0001) // =======================================================
(PID.TID 0000.0001) %MON time_tsnumber                =                    31
(PID.TID 0000.0001) %MON time_secondsf                =   2.7900000000000E+04
(PID.TID 0000.0001) %MON dynstat_eta_max              =   1.9648122990219E+00
(PID.TID 0000.0001) %MON dynstat_eta_min              =  -2.9041778883654E+00
(PID.TID 0000.0001) %MON dynstat_eta_mean             =   2.5897016556456E-02
(PID.TID 0000.0001) %MON dynstat_eta_sd               =   1.1354017648180E-01
(PID.TID 0000.0001) %MON dynstat_eta_del2             =   2.7486496360872E-03
(PID.TID 0000.0001) %MON dynstat_uvel_max             =   3.9962683705207E-01
(PID.TID 0000.0001) %MON dynstat_uvel_min             =  -8.6241374114020E-01
(PID.TID 0000.0001) %MON dynstat_uvel_mean            =   1.9975008664162E-04
(PID.TID 0000.0001) %MON dynstat_uvel_sd              =   6.9432225210992E-03
(PID.TID 0000.0001) %MON dynstat_uvel_del2            =   9.4589199463919E-05
(PID.TID 0000.0001) %MON dynstat_vvel_max             =   9.8202390180248E-01
(PID.TID 0000.0001) %MON dynstat_vvel_min             =  -1.1620916242420E+00
(PID.TID 0000.0001) %MON dynstat_vvel_mean            =  -6.6490698063973E-05
(PID.TID 0000.0001) %MON dynstat_vvel_sd              =   8.9572313129072E-03
(PID.TID 0000.0001) %MON dynstat_vvel_del2            =   1.5194415959805E-04
(PID.TID 0000.0001) %MON dynstat_wvel_max             =   1.9516070449471E-04
(PID.TID 0000.0001) %MON dynstat_wvel_min             =  -3.4685790918993E-04
(PID.TID 0000.0001) %MON dynstat_wvel_mean            =  -1.5850226983015E-07
(PID.TID 0000.0001) %MON dynstat_wvel_sd              =   8.3514188923984E-06
(PID.TID 0000.0001) %MON dynstat_wvel_del2            =   7.4016280244546E-08
(PID.TID 0000.0001) %MON dynstat_theta_max            =   2.1945290179798E+01
(PID.TID 0000.0001) %MON dynstat_theta_min            =   1.6097632207358E+01
(PID.TID 0000.0001) %MON dynstat_theta_mean           =   1.9997861146941E+01
(PID.TID 0000.0001) %MON dynstat_theta_sd             =   2.3192756157132E-02
(PID.TID 0000.0001) %MON dynstat_theta_del2           =   4.3127718743351E-04
(PID.TID 0000.0001) %MON dynstat_salt_max             =   3.5150144854157E+01
(PID.TID 0000.0001) %MON dynstat_salt_min             =   2.7678569428249E+01
(PID.TID 0000.0001) %MON dynstat_salt_mean            =   3.4999749770454E+01
(PID.TID 0000.0001) %MON dynstat_salt_sd              =   2.5459901651670E-02
(PID.TID 0000.0001) %MON dynstat_salt_del2            =   8.9067874247989E-04
(PID.TID 0000.0001) %MON dynstat_sst_max              =   2.1945290179798E+01
(PID.TID 0000.0001) %MON dynstat_sst_min              =   1.6097632207358E+01
(PID.TID 0000.0001) %MON dynstat_sst_mean             =   2.0077629665109E+01
(PID.TID 0000.0001) %MON dynstat_sst_sd               =   2.0352089396239E-01
(PID.TID 0000.0001) %MON dynstat_sst_del2             =   4.6185332891016E-03
(PID.TID 0000.0001) %MON dynstat_sss_max              =   3.5150144854157E+01
(PID.TID 0000.0001) %MON dynstat_sss_min              =   2.7678569428249E+01
(PID.TID 0000.0001) %MON dynstat_sss_mean             =   3.4978974692873E+01
(PID.TID 0000.0001) %MON dynstat_sss_sd               =   3.0719168776823E-01
(PID.TID 0000.0001) %MON dynstat_sss_del2             =   1.2067093159964E-02
(PID.TID 0000.0001) %MON forcing_qnet_max             =   2.2640169921875E+04
(PID.TID 0000.0001) %MON forcing_qnet_min             =  -5.4782941392441E+03
(PID.TID 0000.0001) %MON forcing_qnet_mean            =  -6.0001250753056E+01
(PID.TID 0000.0001) %MON forcing_qnet_sd              =   7.1393489313235E+02
(PID.TID 0000.0001) %MON forcing_qnet_del2            =   1.6002758969833E+01
(PID.TID 0000.0001) %MON forcing_qsw_max              =   0.0000000000000E+00
(PID.TID 0000.0001) %MON forcing_qsw_min              =  -9.8879868136114E+01
(PID.TID 0000.0001) %MON forcing_qsw_mean             =  -1.6538653045439E+01
(PID.TID 0000.0001) %MON forcing_qsw_sd               =   2.5118558932364E+01
(PID.TID 0000.0001) %MON forcing_qsw_del2             =   2.5033372350108E-01
(PID.TID 0000.0001) %MON forcing_empmr_max            =   8.1303128972650E-03
(PID.TID 0000.0001) %MON forcing_empmr_min            =  -1.1686041206121E-01
(PID.TID 0000.0001) %MON forcing_empmr_mean           =  -5.0702550062417E-04
(PID.TID 0000.0001) %MON forcing_empmr_sd             =   5.2793368060500E-03
(PID.TID 0000.0001) %MON forcing_empmr_del2           =   2.0681383946990E-04
(PID.TID 0000.0001) %MON forcing_fu_max               =   7.5100968013900E-01
(PID.TID 0000.0001) %MON forcing_fu_min               =  -5.9021154122432E-01
(PID.TID 0000.0001) %MON forcing_fu_mean              =  -2.1197423024452E-04
(PID.TID 0000.0001) %MON forcing_fu_sd                =   9.4850343534057E-02
(PID.TID 0000.0001) %MON forcing_fu_del2              =   7.7708808787029E-04
(PID.TID 0000.0001) %MON forcing_fv_max               =   4.9101028898961E-01
(PID.TID 0000.0001) %MON forcing_fv_min               =  -4.4678715329275E-01
(PID.TID 0000.0001) %MON forcing_fv_mean              =  -3.4623379615476E-03
(PID.TID 0000.0001) %MON forcing_fv_sd                =   8.0946546836405E-02
(PID.TID 0000.0001) %MON forcing_fv_del2              =   6.8872799814976E-04
(PID.TID 0000.0001) %MON trAdv_CFL_u_max              =   2.5403144258807E-03
(PID.TID 0000.0001) %MON trAdv_CFL_v_max              =   5.2019839370286E-03
(PID.TID 0000.0001) %MON trAdv_CFL_w_max              =   4.1590206145753E-03
(PID.TID 0000.0001) %MON advcfl_uvel_max              =   2.5382880736007E-03
(PID.TID 0000.0001) %MON advcfl_vvel_max              =   3.7923288663477E-03
(PID.TID 0000.0001) %MON advcfl_wvel_max              =   8.1294199694758E-03
(PID.TID 0000.0001) %MON advcfl_W_hf_max              =   4.3325834297754E-03
(PID.TID 0000.0001) %MON pe_b_mean                    =   1.8067001450895E-05
(PID.TID 0000.0001) %MON ke_max                       =   4.4616095081378E-01
(PID.TID 0000.0001) %MON ke_mean                      =   5.9392696115119E-05
(PID.TID 0000.0001) %MON ke_vol                       =   1.3398117085090E+18
(PID.TID 0000.0001) %MON vort_r_min                   =  -5.5524168004785E-06
(PID.TID 0000.0001) %MON vort_r_max                   =   3.2413374919546E-06
(PID.TID 0000.0001) %MON vort_a_mean                  =  -2.0549865324846E-05
(PID.TID 0000.0001) %MON vort_a_sd                    =   7.5259219797480E-05
(PID.TID 0000.0001) %MON vort_p_mean                  =  -2.4783351589579E-05
(PID.TID 0000.0001) %MON vort_p_sd                    =   1.2810535423183E-04
(PID.TID 0000.0001) %MON surfExpan_theta_mean         =  -8.7922491871736E-07
(PID.TID 0000.0001) %MON surfExpan_salt_mean          =   1.5212089027078E-06
(PID.TID 0000.0001) // =======================================================
(PID.TID 0000.0001) // End MONITOR dynamic field statistics
(PID.TID 0000.0001) // =======================================================
 Computing Diagnostic #     81  oceTAUX      Counter:       1   Parms: UU      U1      
           Vector  Mate for  oceTAUX      Diagnostic #     82  oceTAUY  exists 
(PID.TID 0000.0001)  MDS_WRITE_FIELD: it,rec,kS,kL,kH=      30    -1  32   1   1 file=oceTAUX.0000000030
 Computing Diagnostic #     82  oceTAUY      Counter:       1   Parms: VV      U1      
           Vector  Mate for  oceTAUY      Diagnostic #     81  oceTAUX  exists 
(PID.TID 0000.0001)  MDS_WRITE_FIELD: it,rec,kS,kL,kH=      30    -1  32   1   1 file=oceTAUY.0000000030
 Computing Diagnostic #     85  oceFWflx     Counter:       1   Parms: SM      U1      
(PID.TID 0000.0001)  MDS_WRITE_FIELD: it,rec,kS,kL,kH=      30    -1  32   1   1 file=oceFWflx.0000000030
 Computing Diagnostic #     86  oceSflux     Counter:       1   Parms: SM      U1      
(PID.TID 0000.0001)  MDS_WRITE_FIELD: it,rec,kS,kL,kH=      30    -1  32   1   1 file=oceSflux.0000000030
 Computing Diagnostic #     87  oceQnet      Counter:       1   Parms: SM      U1      
(PID.TID 0000.0001)  MDS_WRITE_FIELD: it,rec,kS,kL,kH=      30    -1  32   1   1 file=oceQnet.0000000030
 Computing Diagnostic #     88  oceQsw       Counter:       1   Parms: SM      U1      
(PID.TID 0000.0001)  MDS_WRITE_FIELD: it,rec,kS,kL,kH=      30    -1  32   1   1 file=oceQsw.0000000030
 Computing Diagnostic #     27  SALT         Counter:       1   Parms: SMR     MR      
(PID.TID 0000.0001)  MDS_WRITE_FIELD: it,rec,kS,kL,kH=      30    -1  32   1   1 file=SSS.0000000030
 Computing Diagnostic #     26  THETA        Counter:       1   Parms: SMR     MR      
(PID.TID 0000.0001)  MDS_WRITE_FIELD: it,rec,kS,kL,kH=      30    -1  32   1   1 file=SST.0000000030
 Computing Diagnostic #     45  UVELMASS     Counter:       1   Parms: UUr     MR      
           Vector  Mate for  UVELMASS     Diagnostic #     46  VVELMASS exists 
(PID.TID 0000.0001)  MDS_WRITE_FIELD: it,rec,kS,kL,kH=      30    -1  32   1   1 file=UVEL1.0000000030
 Computing Diagnostic #     46  VVELMASS     Counter:       1   Parms: VVr     MR      
           Vector  Mate for  VVELMASS     Diagnostic #     45  UVELMASS exists 
(PID.TID 0000.0001)  MDS_WRITE_FIELD: it,rec,kS,kL,kH=      30    -1  32   1   1 file=VVEL1.0000000030
 Computing Diagnostic #     83  atmPload     Counter:       1   Parms: SM      U1      
(PID.TID 0000.0001)  MDS_WRITE_FIELD: it,rec,kS,kL,kH=      30    -1  32   1   1 file=atmPload.0000000030
(PID.TID 0000.0001)  write diagnostics summary to file: diagnostics_status.0000000031.txt
(PID.TID 0000.0001) DEBUG_MSG: LEAVING S/R FORWARD_STEP
(PID.TID 0000.0001) DEBUG_MSG: ENTERED S/R FORWARD_STEP
(PID.TID 0000.0001) DEBUG_MSG: CALLING S/R LOAD_FIELDS_DRIVER
(PID.TID 0000.0001) DEBUG_MSG: ENTERED S/R LOAD_FIELDS_DRIVER
(PID.TID 0000.0001) DEBUG_MSG: CALLING S/R EXTERNAL_FIELDS_LOAD
(PID.TID 0000.0001) DEBUG_MSG: LEAVING S/R LOAD_FIELDS_DRIVER
(PID.TID 0000.0001) DEBUG_MSG: CALLING S/R DO_ATMOSPHERIC_PHYS
(PID.TID 0000.0001) DEBUG_MSG: ENTERED S/R DO_ATMOSPHERIC_PHYS
(PID.TID 0000.0001) DEBUG_MSG: LEAVING S/R DO_ATMOSPHERIC_PHYS
(PID.TID 0000.0001) DEBUG_MSG: CALLING S/R DO_OCEANIC_PHYS
(PID.TID 0000.0001) DEBUG_MSG: ENTERED S/R DO_OCEANIC_PHYS
(PID.TID 0000.0001) DEBUG_MSG: CALLING S/R EXTERNAL_FORCING_SURF
(PID.TID 0000.0001) DEBUG_MSG: CALLING S/R FIND_RHO_2D (xNr)
(PID.TID 0000.0001) DEBUG_MSG:                  ENTERING UPWARD K LOOP (bi=   1, bj=   1)
(PID.TID 0000.0001) DEBUG_MSG: CALLING S/R GRAD_SIGMA
(PID.TID 0000.0001) DEBUG_MSG: CALLING S/R CALC_IVDC
(PID.TID 0000.0001) DEBUG_MSG: CALLING S/R GRAD_SIGMA
(PID.TID 0000.0001) DEBUG_MSG: CALLING S/R CALC_IVDC
(PID.TID 0000.0001) DEBUG_MSG: CALLING S/R GRAD_SIGMA
(PID.TID 0000.0001) DEBUG_MSG: CALLING S/R CALC_IVDC
(PID.TID 0000.0001) DEBUG_MSG: CALLING S/R GRAD_SIGMA
(PID.TID 0000.0001) DEBUG_MSG: CALLING S/R CALC_IVDC
(PID.TID 0000.0001) DEBUG_MSG: CALLING S/R GRAD_SIGMA
(PID.TID 0000.0001) DEBUG_MSG: CALLING S/R CALC_IVDC
(PID.TID 0000.0001) DEBUG_MSG: CALLING S/R GRAD_SIGMA
(PID.TID 0000.0001) DEBUG_MSG: CALLING S/R CALC_IVDC
(PID.TID 0000.0001) DEBUG_MSG: CALLING S/R GRAD_SIGMA
(PID.TID 0000.0001) DEBUG_MSG: CALLING S/R CALC_IVDC
(PID.TID 0000.0001) DEBUG_MSG: CALLING S/R GRAD_SIGMA
(PID.TID 0000.0001) DEBUG_MSG: CALLING S/R CALC_IVDC
(PID.TID 0000.0001) DEBUG_MSG: CALLING S/R GRAD_SIGMA
(PID.TID 0000.0001) DEBUG_MSG: CALLING S/R CALC_IVDC
(PID.TID 0000.0001) DEBUG_MSG: CALLING S/R GRAD_SIGMA
(PID.TID 0000.0001) DEBUG_MSG: CALLING S/R CALC_IVDC
(PID.TID 0000.0001) DEBUG_MSG: CALLING S/R GRAD_SIGMA
(PID.TID 0000.0001) DEBUG_MSG: CALLING S/R CALC_IVDC
(PID.TID 0000.0001) DEBUG_MSG: CALLING S/R GRAD_SIGMA
(PID.TID 0000.0001) DEBUG_MSG: CALLING S/R CALC_IVDC
(PID.TID 0000.0001) DEBUG_MSG: CALLING S/R GRAD_SIGMA
(PID.TID 0000.0001) DEBUG_MSG: CALLING S/R CALC_IVDC
(PID.TID 0000.0001) DEBUG_MSG: CALLING S/R GRAD_SIGMA
(PID.TID 0000.0001) DEBUG_MSG: CALLING S/R CALC_IVDC
(PID.TID 0000.0001) DEBUG_MSG: CALLING S/R GRAD_SIGMA
(PID.TID 0000.0001) DEBUG_MSG: CALLING S/R CALC_IVDC
(PID.TID 0000.0001) DEBUG_MSG: CALLING S/R GRAD_SIGMA
(PID.TID 0000.0001) DEBUG_MSG: CALLING S/R GMREDI_CALC_TENSOR
(PID.TID 0000.0001) DEBUG_MSG: LEAVING S/R DO_OCEANIC_PHYS
(PID.TID 0000.0001) DEBUG_MSG: CALLING S/R DYNAMICS
(PID.TID 0000.0001) DEBUG_MSG: ENTERED S/R DYNAMICS
DEBUG_STATS_RL:                EtaN (DYNAMICS)  min= -2.90417788836543E+00
DEBUG_STATS_RL:                EtaN (DYNAMICS)  max=  1.96481229902185E+00
DEBUG_STATS_RL:                EtaN (DYNAMICS) mean=  2.72917429435370E-02
DEBUG_STATS_RL:                EtaN (DYNAMICS) S.D.=  1.17592255763782E-01
DEBUG_STATS_RL:                Uvel (DYNAMICS)  min= -8.62413741140205E-01
DEBUG_STATS_RL:                Uvel (DYNAMICS)  max=  3.99626837052069E-01
DEBUG_STATS_RL:                Uvel (DYNAMICS) mean= -2.33272228411489E-04
DEBUG_STATS_RL:                Uvel (DYNAMICS) S.D.=  2.12557900898235E-02
DEBUG_STATS_RL:                Vvel (DYNAMICS)  min= -1.16209162424200E+00
DEBUG_STATS_RL:                Vvel (DYNAMICS)  max=  9.82023901802478E-01
DEBUG_STATS_RL:                Vvel (DYNAMICS) mean= -8.33592250133649E-04
DEBUG_STATS_RL:                Vvel (DYNAMICS) S.D.=  2.75228000582817E-02
DEBUG_STATS_RL:                Wvel (DYNAMICS)  min= -3.46857909189933E-04
DEBUG_STATS_RL:                Wvel (DYNAMICS)  max=  1.95160704494713E-04
DEBUG_STATS_RL:                Wvel (DYNAMICS) mean= -3.05136961213704E-07
DEBUG_STATS_RL:                Wvel (DYNAMICS) S.D.=  8.93461367103498E-06
DEBUG_STATS_RL:               Theta (DYNAMICS)  min=  1.60976322073583E+01
DEBUG_STATS_RL:               Theta (DYNAMICS)  max=  2.19452901797983E+01
DEBUG_STATS_RL:               Theta (DYNAMICS) mean=  1.99989741119910E+01
DEBUG_STATS_RL:               Theta (DYNAMICS) S.D.=  6.89892188451317E-02
DEBUG_STATS_RL:                Salt (DYNAMICS)  min=  2.76785694282489E+01
DEBUG_STATS_RL:                Salt (DYNAMICS)  max=  3.51501448541573E+01
DEBUG_STATS_RL:                Salt (DYNAMICS) mean=  3.49981872175792E+01
DEBUG_STATS_RL:                Salt (DYNAMICS) S.D.=  8.24540629638481E-02
DEBUG_STATS_RL:                  Gu (DYNAMICS)  min= -8.77021194074665E-01
DEBUG_STATS_RL:                  Gu (DYNAMICS)  max=  3.96185189951938E-01
DEBUG_STATS_RL:                  Gu (DYNAMICS) mean= -2.93679843033608E-04
DEBUG_STATS_RL:                  Gu (DYNAMICS) S.D.=  2.13428501442506E-02
DEBUG_STATS_RL:                  Gv (DYNAMICS)  min= -1.12779477605874E+00
DEBUG_STATS_RL:                  Gv (DYNAMICS)  max=  9.53437667600923E-01
DEBUG_STATS_RL:                  Gv (DYNAMICS) mean= -8.61616614525834E-04
DEBUG_STATS_RL:                  Gv (DYNAMICS) S.D.=  2.73634927109466E-02
DEBUG_STATS_RL:               GuNm1 (DYNAMICS)  min= -6.47256302134022E-05
DEBUG_STATS_RL:               GuNm1 (DYNAMICS)  max=  2.68185755155035E-05
DEBUG_STATS_RL:               GuNm1 (DYNAMICS) mean= -6.84698200560957E-08
DEBUG_STATS_RL:               GuNm1 (DYNAMICS) S.D.=  1.69282105136481E-06
DEBUG_STATS_RL:               GvNm1 (DYNAMICS)  min= -3.05379766366514E-05
DEBUG_STATS_RL:               GvNm1 (DYNAMICS)  max=  4.49293301683729E-05
DEBUG_STATS_RL:               GvNm1 (DYNAMICS) mean= -3.42867628868265E-08
DEBUG_STATS_RL:               GvNm1 (DYNAMICS) S.D.=  1.37125457429038E-06
DEBUG_STATS_RL:               GtNm1 (DYNAMICS)  min= -2.86759381083245E-06
DEBUG_STATS_RL:               GtNm1 (DYNAMICS)  max=  1.15379362147011E-05
DEBUG_STATS_RL:               GtNm1 (DYNAMICS) mean=  2.42270871081440E-09
DEBUG_STATS_RL:               GtNm1 (DYNAMICS) S.D.=  1.21003965014284E-07
DEBUG_STATS_RL:               GsNm1 (DYNAMICS)  min= -1.53735191993397E-05
DEBUG_STATS_RL:               GsNm1 (DYNAMICS)  max=  2.23350837690213E-06
DEBUG_STATS_RL:               GsNm1 (DYNAMICS) mean= -4.27897007756353E-09
DEBUG_STATS_RL:               GsNm1 (DYNAMICS) S.D.=  1.92870604213868E-07
(PID.TID 0000.0001) DEBUG_MSG: LEAVING S/R DYNAMICS
DEBUG_STATS_RL:    cg2d_b (SOLVE_FOR_PRESSURE)  min= -2.23926571375761E+05
DEBUG_STATS_RL:    cg2d_b (SOLVE_FOR_PRESSURE)  max=  2.27275540890701E+05
DEBUG_STATS_RL:    cg2d_b (SOLVE_FOR_PRESSURE) mean= -2.67716741129412E+03
DEBUG_STATS_RL:    cg2d_b (SOLVE_FOR_PRESSURE) S.D.=  1.13721667483449E+04
 cg2d: Sum(rhs),rhsMax =  -5.20649072555090E+01  4.35381847992358E+01
(PID.TID 0000.0001)  cg2d: iter=     1 ; resid.=  5.41413675317455E-02
(PID.TID 0000.0001)  cg2d: iter=     2 ; resid.=  8.42320156321906E-03
(PID.TID 0000.0001)  cg2d: iter=     3 ; resid.=  1.77764728346597E-03
(PID.TID 0000.0001)  cg2d: iter=     4 ; resid.=  5.85825014356350E-04
(PID.TID 0000.0001)  cg2d: iter=     5 ; resid.=  1.72602451145542E-04
(PID.TID 0000.0001)  cg2d: iter=     6 ; resid.=  3.84959115856165E-05
(PID.TID 0000.0001)  cg2d: iter=     7 ; resid.=  7.68615410140822E-06
(PID.TID 0000.0001)  cg2d: iter=     8 ; resid.=  2.23038842473984E-06
(PID.TID 0000.0001)  cg2d: iter=     9 ; resid.=  6.50798041834531E-07
(PID.TID 0000.0001)  cg2d: iter=    10 ; resid.=  1.88338951188360E-07
(PID.TID 0000.0001)  cg2d: iter=    11 ; resid.=  5.10187431758541E-08
DEBUG_STATS_RL:    cg2d_x (SOLVE_FOR_PRESSURE)  min= -2.40166020626095E+01
DEBUG_STATS_RL:    cg2d_x (SOLVE_FOR_PRESSURE)  max=  1.90040750652490E+01
DEBUG_STATS_RL:    cg2d_x (SOLVE_FOR_PRESSURE) mean=  2.70648117438410E-01
DEBUG_STATS_RL:    cg2d_x (SOLVE_FOR_PRESSURE) S.D.=  1.11828382695489E+00
(PID.TID 0000.0001)      cg2d_init_res =   4.26506583312916E-01
(PID.TID 0000.0001)      cg2d_iters(min,last) =      -1      11
(PID.TID 0000.0001)      cg2d_last_res =   5.10187431758541E-08
(PID.TID 0000.0001) DEBUG_MSG: CALLING S/R UPDATE_ETAH
(PID.TID 0000.0001) DEBUG_MSG: ENTERED S/R CALC_R_STAR
(PID.TID 0000.0001) DEBUG_MSG: LEAVING S/R CALC_R_STAR
(PID.TID 0000.0001) DEBUG_MSG: CALLING S/R DO_STAGGER_FIELDS_EXCH.
(PID.TID 0000.0001) DEBUG_MSG: CALLING S/R THERMODYNAMICS
(PID.TID 0000.0001) DEBUG_MSG: ENTERED S/R THERMODYNAMICS
(PID.TID 0000.0001) DEBUG_MSG: CALLING S/R TEMP_INTEGRATE
(PID.TID 0000.0001) DEBUG_MSG: CALLING S/R SALT_INTEGRATE
DEBUG_STATS_RL:          Uvel (THERMODYNAMICS)  min= -8.88328394015426E-01
DEBUG_STATS_RL:          Uvel (THERMODYNAMICS)  max=  3.95946384150162E-01
DEBUG_STATS_RL:          Uvel (THERMODYNAMICS) mean= -3.11455723271387E-04
DEBUG_STATS_RL:          Uvel (THERMODYNAMICS) S.D.=  2.14599005899639E-02
DEBUG_STATS_RL:          Vvel (THERMODYNAMICS)  min= -1.20287604484313E+00
DEBUG_STATS_RL:          Vvel (THERMODYNAMICS)  max=  1.05707618213550E+00
DEBUG_STATS_RL:          Vvel (THERMODYNAMICS) mean= -8.40101043353669E-04
DEBUG_STATS_RL:          Vvel (THERMODYNAMICS) S.D.=  2.76169883021595E-02
DEBUG_STATS_RL:          Wvel (THERMODYNAMICS)  min= -3.23703324304644E-04
DEBUG_STATS_RL:          Wvel (THERMODYNAMICS)  max=  1.99352350637233E-04
DEBUG_STATS_RL:          Wvel (THERMODYNAMICS) mean= -2.72309283008556E-07
DEBUG_STATS_RL:          Wvel (THERMODYNAMICS) S.D.=  8.82622558717523E-06
DEBUG_STATS_RL:         Theta (THERMODYNAMICS)  min=  1.61038249617257E+01
DEBUG_STATS_RL:         Theta (THERMODYNAMICS)  max=  2.19960391605421E+01
DEBUG_STATS_RL:         Theta (THERMODYNAMICS) mean=  1.99991255802827E+01
DEBUG_STATS_RL:         Theta (THERMODYNAMICS) S.D.=  6.97303234758730E-02
DEBUG_STATS_RL:          Salt (THERMODYNAMICS)  min=  2.75303280808790E+01
DEBUG_STATS_RL:          Salt (THERMODYNAMICS)  max=  3.51501459407332E+01
DEBUG_STATS_RL:          Salt (THERMODYNAMICS) mean=  3.49981461130508E+01
DEBUG_STATS_RL:          Salt (THERMODYNAMICS) S.D.=  8.41771047093128E-02
DEBUG_STATS_RL:         GtNm1 (THERMODYNAMICS)  min= -2.93202193330475E-06
DEBUG_STATS_RL:         GtNm1 (THERMODYNAMICS)  max=  1.22847847932679E-05
DEBUG_STATS_RL:         GtNm1 (THERMODYNAMICS) mean=  2.51495048552199E-09
DEBUG_STATS_RL:         GtNm1 (THERMODYNAMICS) S.D.=  1.28418879329478E-07
DEBUG_STATS_RL:         GsNm1 (THERMODYNAMICS)  min= -1.55274567613948E-05
DEBUG_STATS_RL:         GsNm1 (THERMODYNAMICS)  max=  2.21147007969258E-06
DEBUG_STATS_RL:         GsNm1 (THERMODYNAMICS) mean= -4.33868159592418E-09
DEBUG_STATS_RL:         GsNm1 (THERMODYNAMICS) S.D.=  1.94729448115563E-07
(PID.TID 0000.0001) DEBUG_MSG: LEAVING S/R THERMODYNAMICS
(PID.TID 0000.0001) // =======================================================
(PID.TID 0000.0001) // Begin MONITOR dynamic field statistics
(PID.TID 0000.0001) // =======================================================
(PID.TID 0000.0001) %MON time_tsnumber                =                    32
(PID.TID 0000.0001) %MON time_secondsf                =   2.8800000000000E+04
(PID.TID 0000.0001) %MON dynstat_eta_max              =   1.9372145827529E+00
(PID.TID 0000.0001) %MON dynstat_eta_min              =  -2.4481755438125E+00
(PID.TID 0000.0001) %MON dynstat_eta_mean             =   2.6340049740615E-02
(PID.TID 0000.0001) %MON dynstat_eta_sd               =   1.0997543201589E-01
(PID.TID 0000.0001) %MON dynstat_eta_del2             =   2.5598640584839E-03
(PID.TID 0000.0001) %MON dynstat_uvel_max             =   3.9594638415016E-01
(PID.TID 0000.0001) %MON dynstat_uvel_min             =  -8.8832839401543E-01
(PID.TID 0000.0001) %MON dynstat_uvel_mean            =   1.6331538097293E-04
(PID.TID 0000.0001) %MON dynstat_uvel_sd              =   6.9970887450182E-03
(PID.TID 0000.0001) %MON dynstat_uvel_del2            =   9.5530746086225E-05
(PID.TID 0000.0001) %MON dynstat_vvel_max             =   1.0570761821355E+00
(PID.TID 0000.0001) %MON dynstat_vvel_min             =  -1.2028760448431E+00
(PID.TID 0000.0001) %MON dynstat_vvel_mean            =  -6.0681649271178E-05
(PID.TID 0000.0001) %MON dynstat_vvel_sd              =   8.9643977214340E-03
(PID.TID 0000.0001) %MON dynstat_vvel_del2            =   1.5465187870719E-04
(PID.TID 0000.0001) %MON dynstat_wvel_max             =   1.9935235063723E-04
(PID.TID 0000.0001) %MON dynstat_wvel_min             =  -3.2370332430464E-04
(PID.TID 0000.0001) %MON dynstat_wvel_mean            =  -1.2063928349959E-07
(PID.TID 0000.0001) %MON dynstat_wvel_sd              =   8.2189563272838E-06
(PID.TID 0000.0001) %MON dynstat_wvel_del2            =   7.3453190434397E-08
(PID.TID 0000.0001) %MON dynstat_theta_max            =   2.1996039160542E+01
(PID.TID 0000.0001) %MON dynstat_theta_min            =   1.6103824961726E+01
(PID.TID 0000.0001) %MON dynstat_theta_mean           =   1.9997864352596E+01
(PID.TID 0000.0001) %MON dynstat_theta_sd             =   2.3427409538546E-02
(PID.TID 0000.0001) %MON dynstat_theta_del2           =   4.3525221217536E-04
(PID.TID 0000.0001) %MON dynstat_salt_max             =   3.5150145940733E+01
(PID.TID 0000.0001) %MON dynstat_salt_min             =   2.7530328080879E+01
(PID.TID 0000.0001) %MON dynstat_salt_mean            =   3.4999745232207E+01
(PID.TID 0000.0001) %MON dynstat_salt_sd              =   2.5990203833529E-02
(PID.TID 0000.0001) %MON dynstat_salt_del2            =   9.0892755619873E-04
(PID.TID 0000.0001) %MON dynstat_sst_max              =   2.1996039160542E+01
(PID.TID 0000.0001) %MON dynstat_sst_min              =   1.6103824961726E+01
(PID.TID 0000.0001) %MON dynstat_sst_mean             =   2.0079752168982E+01
(PID.TID 0000.0001) %MON dynstat_sst_sd               =   2.0645387533649E-01
(PID.TID 0000.0001) %MON dynstat_sst_del2             =   4.6863755985715E-03
(PID.TID 0000.0001) %MON dynstat_sss_max              =   3.5150145940733E+01
(PID.TID 0000.0001) %MON dynstat_sss_min              =   2.7530328080879E+01
(PID.TID 0000.0001) %MON dynstat_sss_mean             =   3.4978435373612E+01
(PID.TID 0000.0001) %MON dynstat_sss_sd               =   3.1361115886074E-01
(PID.TID 0000.0001) %MON dynstat_sss_del2             =   1.2314112761319E-02
(PID.TID 0000.0001) %MON forcing_qnet_max             =   2.8945095703125E+04
(PID.TID 0000.0001) %MON forcing_qnet_min             =  -5.3972842319974E+03
(PID.TID 0000.0001) %MON forcing_qnet_mean            =  -5.2811853190968E+01
(PID.TID 0000.0001) %MON forcing_qnet_sd              =   7.6480212752600E+02
(PID.TID 0000.0001) %MON forcing_qnet_del2            =   1.8620154150707E+01
(PID.TID 0000.0001) %MON forcing_qsw_max              =   0.0000000000000E+00
(PID.TID 0000.0001) %MON forcing_qsw_min              =  -9.7429368377276E+01
(PID.TID 0000.0001) %MON forcing_qsw_mean             =  -1.6263588497444E+01
(PID.TID 0000.0001) %MON forcing_qsw_sd               =   2.5036695743677E+01
(PID.TID 0000.0001) %MON forcing_qsw_del2             =   2.4625959368762E-01
(PID.TID 0000.0001) %MON forcing_empmr_max            =   8.0465711653233E-03
(PID.TID 0000.0001) %MON forcing_empmr_min            =  -1.1565632373095E-01
(PID.TID 0000.0001) %MON forcing_empmr_mean           =  -5.0948816178278E-04
(PID.TID 0000.0001) %MON forcing_empmr_sd             =   5.3170711748464E-03
(PID.TID 0000.0001) %MON forcing_empmr_del2           =   2.0752144550765E-04
(PID.TID 0000.0001) %MON forcing_fu_max               =   7.4028173484564E-01
(PID.TID 0000.0001) %MON forcing_fu_min               =  -5.8416056232086E-01
(PID.TID 0000.0001) %MON forcing_fu_mean              =  -2.3223464568667E-04
(PID.TID 0000.0001) %MON forcing_fu_sd                =   9.4220092411023E-02
(PID.TID 0000.0001) %MON forcing_fu_del2              =   7.7291935037442E-04
(PID.TID 0000.0001) %MON forcing_fv_max               =   4.9265973163020E-01
(PID.TID 0000.0001) %MON forcing_fv_min               =  -4.4279585264041E-01
(PID.TID 0000.0001) %MON forcing_fv_mean              =  -3.5069978490683E-03
(PID.TID 0000.0001) %MON forcing_fv_sd                =   8.0754718813871E-02
(PID.TID 0000.0001) %MON forcing_fv_del2              =   6.8551638295696E-04
(PID.TID 0000.0001) %MON trAdv_CFL_u_max              =   2.6198943268720E-03
(PID.TID 0000.0001) %MON trAdv_CFL_v_max              =   5.3083757197767E-03
(PID.TID 0000.0001) %MON trAdv_CFL_w_max              =   4.0841662196049E-03
(PID.TID 0000.0001) %MON advcfl_uvel_max              =   2.6145610400283E-03
(PID.TID 0000.0001) %MON advcfl_vvel_max              =   3.9254233077123E-03
(PID.TID 0000.0001) %MON advcfl_wvel_max              =   8.0456573030223E-03
(PID.TID 0000.0001) %MON advcfl_W_hf_max              =   4.4925677067247E-03
(PID.TID 0000.0001) %MON pe_b_mean                    =   1.7036384050169E-05
(PID.TID 0000.0001) %MON ke_max                       =   5.1128036284391E-01
(PID.TID 0000.0001) %MON ke_mean                      =   5.9790820453621E-05
(PID.TID 0000.0001) %MON ke_vol                       =   1.3398118689436E+18
(PID.TID 0000.0001) %MON vort_r_min                   =  -5.5019846140807E-06
(PID.TID 0000.0001) %MON vort_r_max                   =   3.4890603525220E-06
(PID.TID 0000.0001) %MON vort_a_mean                  =  -2.0549865324846E-05
(PID.TID 0000.0001) %MON vort_a_sd                    =   7.5259220050174E-05
(PID.TID 0000.0001) %MON vort_p_mean                  =  -2.4783348794230E-05
(PID.TID 0000.0001) %MON vort_p_sd                    =   1.2810535048775E-04
(PID.TID 0000.0001) %MON surfExpan_theta_mean         =  -9.0902727671545E-07
(PID.TID 0000.0001) %MON surfExpan_salt_mean          =   1.5384076844647E-06
(PID.TID 0000.0001) // =======================================================
(PID.TID 0000.0001) // End MONITOR dynamic field statistics
(PID.TID 0000.0001) // =======================================================
(PID.TID 0000.0001) DEBUG_MSG: LEAVING S/R FORWARD_STEP
(PID.TID 0000.0001) DEBUG_MSG: ENTERED S/R FORWARD_STEP
(PID.TID 0000.0001) DEBUG_MSG: CALLING S/R LOAD_FIELDS_DRIVER
(PID.TID 0000.0001) DEBUG_MSG: ENTERED S/R LOAD_FIELDS_DRIVER
(PID.TID 0000.0001) DEBUG_MSG: CALLING S/R EXTERNAL_FIELDS_LOAD
(PID.TID 0000.0001) DEBUG_MSG: LEAVING S/R LOAD_FIELDS_DRIVER
(PID.TID 0000.0001) DEBUG_MSG: CALLING S/R DO_ATMOSPHERIC_PHYS
(PID.TID 0000.0001) DEBUG_MSG: ENTERED S/R DO_ATMOSPHERIC_PHYS
(PID.TID 0000.0001) DEBUG_MSG: LEAVING S/R DO_ATMOSPHERIC_PHYS
(PID.TID 0000.0001) DEBUG_MSG: CALLING S/R DO_OCEANIC_PHYS
(PID.TID 0000.0001) DEBUG_MSG: ENTERED S/R DO_OCEANIC_PHYS
(PID.TID 0000.0001) DEBUG_MSG: CALLING S/R EXTERNAL_FORCING_SURF
(PID.TID 0000.0001) DEBUG_MSG: CALLING S/R FIND_RHO_2D (xNr)
(PID.TID 0000.0001) DEBUG_MSG:                  ENTERING UPWARD K LOOP (bi=   1, bj=   1)
(PID.TID 0000.0001) DEBUG_MSG: CALLING S/R GRAD_SIGMA
(PID.TID 0000.0001) DEBUG_MSG: CALLING S/R CALC_IVDC
(PID.TID 0000.0001) DEBUG_MSG: CALLING S/R GRAD_SIGMA
(PID.TID 0000.0001) DEBUG_MSG: CALLING S/R CALC_IVDC
(PID.TID 0000.0001) DEBUG_MSG: CALLING S/R GRAD_SIGMA
(PID.TID 0000.0001) DEBUG_MSG: CALLING S/R CALC_IVDC
(PID.TID 0000.0001) DEBUG_MSG: CALLING S/R GRAD_SIGMA
(PID.TID 0000.0001) DEBUG_MSG: CALLING S/R CALC_IVDC
(PID.TID 0000.0001) DEBUG_MSG: CALLING S/R GRAD_SIGMA
(PID.TID 0000.0001) DEBUG_MSG: CALLING S/R CALC_IVDC
(PID.TID 0000.0001) DEBUG_MSG: CALLING S/R GRAD_SIGMA
(PID.TID 0000.0001) DEBUG_MSG: CALLING S/R CALC_IVDC
(PID.TID 0000.0001) DEBUG_MSG: CALLING S/R GRAD_SIGMA
(PID.TID 0000.0001) DEBUG_MSG: CALLING S/R CALC_IVDC
(PID.TID 0000.0001) DEBUG_MSG: CALLING S/R GRAD_SIGMA
(PID.TID 0000.0001) DEBUG_MSG: CALLING S/R CALC_IVDC
(PID.TID 0000.0001) DEBUG_MSG: CALLING S/R GRAD_SIGMA
(PID.TID 0000.0001) DEBUG_MSG: CALLING S/R CALC_IVDC
(PID.TID 0000.0001) DEBUG_MSG: CALLING S/R GRAD_SIGMA
(PID.TID 0000.0001) DEBUG_MSG: CALLING S/R CALC_IVDC
(PID.TID 0000.0001) DEBUG_MSG: CALLING S/R GRAD_SIGMA
(PID.TID 0000.0001) DEBUG_MSG: CALLING S/R CALC_IVDC
(PID.TID 0000.0001) DEBUG_MSG: CALLING S/R GRAD_SIGMA
(PID.TID 0000.0001) DEBUG_MSG: CALLING S/R CALC_IVDC
(PID.TID 0000.0001) DEBUG_MSG: CALLING S/R GRAD_SIGMA
(PID.TID 0000.0001) DEBUG_MSG: CALLING S/R CALC_IVDC
(PID.TID 0000.0001) DEBUG_MSG: CALLING S/R GRAD_SIGMA
(PID.TID 0000.0001) DEBUG_MSG: CALLING S/R CALC_IVDC
(PID.TID 0000.0001) DEBUG_MSG: CALLING S/R GRAD_SIGMA
(PID.TID 0000.0001) DEBUG_MSG: CALLING S/R CALC_IVDC
(PID.TID 0000.0001) DEBUG_MSG: CALLING S/R GRAD_SIGMA
(PID.TID 0000.0001) DEBUG_MSG: CALLING S/R GMREDI_CALC_TENSOR
(PID.TID 0000.0001) DEBUG_MSG: LEAVING S/R DO_OCEANIC_PHYS
(PID.TID 0000.0001) DEBUG_MSG: CALLING S/R DYNAMICS
(PID.TID 0000.0001) DEBUG_MSG: ENTERED S/R DYNAMICS
DEBUG_STATS_RL:                EtaN (DYNAMICS)  min= -2.44817554381248E+00
DEBUG_STATS_RL:                EtaN (DYNAMICS)  max=  1.93721458275286E+00
DEBUG_STATS_RL:                EtaN (DYNAMICS) mean=  2.75890026240054E-02
DEBUG_STATS_RL:                EtaN (DYNAMICS) S.D.=  1.13994274032663E-01
DEBUG_STATS_RL:                Uvel (DYNAMICS)  min= -8.88328394015426E-01
DEBUG_STATS_RL:                Uvel (DYNAMICS)  max=  3.95946384150162E-01
DEBUG_STATS_RL:                Uvel (DYNAMICS) mean= -3.11455723271387E-04
DEBUG_STATS_RL:                Uvel (DYNAMICS) S.D.=  2.14599005899639E-02
DEBUG_STATS_RL:                Vvel (DYNAMICS)  min= -1.20287604484313E+00
DEBUG_STATS_RL:                Vvel (DYNAMICS)  max=  1.05707618213550E+00
DEBUG_STATS_RL:                Vvel (DYNAMICS) mean= -8.40101043353669E-04
DEBUG_STATS_RL:                Vvel (DYNAMICS) S.D.=  2.76169883021595E-02
DEBUG_STATS_RL:                Wvel (DYNAMICS)  min= -3.23703324304644E-04
DEBUG_STATS_RL:                Wvel (DYNAMICS)  max=  1.99352350637233E-04
DEBUG_STATS_RL:                Wvel (DYNAMICS) mean= -2.72309283008556E-07
DEBUG_STATS_RL:                Wvel (DYNAMICS) S.D.=  8.82622558717523E-06
DEBUG_STATS_RL:               Theta (DYNAMICS)  min=  1.61038249617257E+01
DEBUG_STATS_RL:               Theta (DYNAMICS)  max=  2.19960391605421E+01
DEBUG_STATS_RL:               Theta (DYNAMICS) mean=  1.99991255802827E+01
DEBUG_STATS_RL:               Theta (DYNAMICS) S.D.=  6.97303234758730E-02
DEBUG_STATS_RL:                Salt (DYNAMICS)  min=  2.75303280808790E+01
DEBUG_STATS_RL:                Salt (DYNAMICS)  max=  3.51501459407332E+01
DEBUG_STATS_RL:                Salt (DYNAMICS) mean=  3.49981461130508E+01
DEBUG_STATS_RL:                Salt (DYNAMICS) S.D.=  8.41771047093128E-02
DEBUG_STATS_RL:                  Gu (DYNAMICS)  min= -9.03083856085270E-01
DEBUG_STATS_RL:                  Gu (DYNAMICS)  max=  3.90040510725209E-01
DEBUG_STATS_RL:                  Gu (DYNAMICS) mean= -3.70205191622027E-04
DEBUG_STATS_RL:                  Gu (DYNAMICS) S.D.=  2.15587590731495E-02
DEBUG_STATS_RL:                  Gv (DYNAMICS)  min= -1.16269764523312E+00
DEBUG_STATS_RL:                  Gv (DYNAMICS)  max=  1.02834899783259E+00
DEBUG_STATS_RL:                  Gv (DYNAMICS) mean= -8.64367318616681E-04
DEBUG_STATS_RL:                  Gv (DYNAMICS) S.D.=  2.73929547415550E-02
DEBUG_STATS_RL:               GuNm1 (DYNAMICS)  min= -6.38039213484588E-05
DEBUG_STATS_RL:               GuNm1 (DYNAMICS)  max=  2.80219088139130E-05
DEBUG_STATS_RL:               GuNm1 (DYNAMICS) mean= -6.68923025905298E-08
DEBUG_STATS_RL:               GuNm1 (DYNAMICS) S.D.=  1.67707023446444E-06
DEBUG_STATS_RL:               GvNm1 (DYNAMICS)  min= -3.07473373627324E-05
DEBUG_STATS_RL:               GvNm1 (DYNAMICS)  max=  5.01570456258886E-05
DEBUG_STATS_RL:               GvNm1 (DYNAMICS) mean= -3.01045981726255E-08
DEBUG_STATS_RL:               GvNm1 (DYNAMICS) S.D.=  1.39351023929937E-06
DEBUG_STATS_RL:               GtNm1 (DYNAMICS)  min= -2.93202193330475E-06
DEBUG_STATS_RL:               GtNm1 (DYNAMICS)  max=  1.22847847932679E-05
DEBUG_STATS_RL:               GtNm1 (DYNAMICS) mean=  2.51495048552199E-09
DEBUG_STATS_RL:               GtNm1 (DYNAMICS) S.D.=  1.28418879329478E-07
DEBUG_STATS_RL:               GsNm1 (DYNAMICS)  min= -1.55274567613948E-05
DEBUG_STATS_RL:               GsNm1 (DYNAMICS)  max=  2.21147007969258E-06
DEBUG_STATS_RL:               GsNm1 (DYNAMICS) mean= -4.33868159592418E-09
DEBUG_STATS_RL:               GsNm1 (DYNAMICS) S.D.=  1.94729448115563E-07
(PID.TID 0000.0001) DEBUG_MSG: LEAVING S/R DYNAMICS
DEBUG_STATS_RL:    cg2d_b (SOLVE_FOR_PRESSURE)  min= -2.21478289074707E+05
DEBUG_STATS_RL:    cg2d_b (SOLVE_FOR_PRESSURE)  max=  1.81990643625560E+05
DEBUG_STATS_RL:    cg2d_b (SOLVE_FOR_PRESSURE) mean= -2.72003043973437E+03
DEBUG_STATS_RL:    cg2d_b (SOLVE_FOR_PRESSURE) S.D.=  1.10527649624962E+04
 cg2d: Sum(rhs),rhsMax =  -5.42831290319865E+01  4.24276305358808E+01
(PID.TID 0000.0001)  cg2d: iter=     1 ; resid.=  5.44636162470316E-02
(PID.TID 0000.0001)  cg2d: iter=     2 ; resid.=  8.19411489865749E-03
(PID.TID 0000.0001)  cg2d: iter=     3 ; resid.=  1.83347498069058E-03
(PID.TID 0000.0001)  cg2d: iter=     4 ; resid.=  6.24266583994005E-04
(PID.TID 0000.0001)  cg2d: iter=     5 ; resid.=  1.71926580275173E-04
(PID.TID 0000.0001)  cg2d: iter=     6 ; resid.=  3.87542013715626E-05
(PID.TID 0000.0001)  cg2d: iter=     7 ; resid.=  7.81217098708633E-06
(PID.TID 0000.0001)  cg2d: iter=     8 ; resid.=  2.33586941287702E-06
(PID.TID 0000.0001)  cg2d: iter=     9 ; resid.=  6.67698782722860E-07
(PID.TID 0000.0001)  cg2d: iter=    10 ; resid.=  1.93541258560245E-07
(PID.TID 0000.0001)  cg2d: iter=    11 ; resid.=  5.36289217176874E-08
DEBUG_STATS_RL:    cg2d_x (SOLVE_FOR_PRESSURE)  min= -1.92270550963444E+01
DEBUG_STATS_RL:    cg2d_x (SOLVE_FOR_PRESSURE)  max=  1.87914408300437E+01
DEBUG_STATS_RL:    cg2d_x (SOLVE_FOR_PRESSURE) mean=  2.73134162314356E-01
DEBUG_STATS_RL:    cg2d_x (SOLVE_FOR_PRESSURE) S.D.=  1.08637892559163E+00
(PID.TID 0000.0001)      cg2d_init_res =   4.32926670228619E-01
(PID.TID 0000.0001)      cg2d_iters(min,last) =      -1      11
(PID.TID 0000.0001)      cg2d_last_res =   5.36289217176874E-08
(PID.TID 0000.0001) DEBUG_MSG: CALLING S/R UPDATE_ETAH
(PID.TID 0000.0001) DEBUG_MSG: ENTERED S/R CALC_R_STAR
(PID.TID 0000.0001) DEBUG_MSG: LEAVING S/R CALC_R_STAR
(PID.TID 0000.0001) DEBUG_MSG: CALLING S/R DO_STAGGER_FIELDS_EXCH.
(PID.TID 0000.0001) DEBUG_MSG: CALLING S/R THERMODYNAMICS
(PID.TID 0000.0001) DEBUG_MSG: ENTERED S/R THERMODYNAMICS
(PID.TID 0000.0001) DEBUG_MSG: CALLING S/R TEMP_INTEGRATE
(PID.TID 0000.0001) DEBUG_MSG: CALLING S/R SALT_INTEGRATE
DEBUG_STATS_RL:          Uvel (THERMODYNAMICS)  min= -9.09670198995974E-01
DEBUG_STATS_RL:          Uvel (THERMODYNAMICS)  max=  3.89780935485155E-01
DEBUG_STATS_RL:          Uvel (THERMODYNAMICS) mean= -3.85809650737028E-04
DEBUG_STATS_RL:          Uvel (THERMODYNAMICS) S.D.=  2.16686170413587E-02
DEBUG_STATS_RL:          Vvel (THERMODYNAMICS)  min= -1.22405200678072E+00
DEBUG_STATS_RL:          Vvel (THERMODYNAMICS)  max=  1.11531536534253E+00
DEBUG_STATS_RL:          Vvel (THERMODYNAMICS) mean= -8.41743609876623E-04
DEBUG_STATS_RL:          Vvel (THERMODYNAMICS) S.D.=  2.76001328005799E-02
DEBUG_STATS_RL:          Wvel (THERMODYNAMICS)  min= -3.02809757569087E-04
DEBUG_STATS_RL:          Wvel (THERMODYNAMICS)  max=  2.02524342845142E-04
DEBUG_STATS_RL:          Wvel (THERMODYNAMICS) mean= -2.37863384268483E-07
DEBUG_STATS_RL:          Wvel (THERMODYNAMICS) S.D.=  8.70249287314427E-06
DEBUG_STATS_RL:         Theta (THERMODYNAMICS)  min=  1.61105347201464E+01
DEBUG_STATS_RL:         Theta (THERMODYNAMICS)  max=  2.20461406389643E+01
DEBUG_STATS_RL:         Theta (THERMODYNAMICS) mean=  1.99992742664567E+01
DEBUG_STATS_RL:         Theta (THERMODYNAMICS) S.D.=  7.03865669737939E-02
DEBUG_STATS_RL:          Salt (THERMODYNAMICS)  min=  2.73858984993937E+01
DEBUG_STATS_RL:          Salt (THERMODYNAMICS)  max=  3.51508435372162E+01
DEBUG_STATS_RL:          Salt (THERMODYNAMICS) mean=  3.49981061656525E+01
DEBUG_STATS_RL:          Salt (THERMODYNAMICS) S.D.=  8.58521351845148E-02
DEBUG_STATS_RL:         GtNm1 (THERMODYNAMICS)  min= -2.99352160645297E-06
DEBUG_STATS_RL:         GtNm1 (THERMODYNAMICS)  max=  1.28614724429694E-05
DEBUG_STATS_RL:         GtNm1 (THERMODYNAMICS) mean=  2.63187012389400E-09
DEBUG_STATS_RL:         GtNm1 (THERMODYNAMICS) S.D.=  1.33532166075646E-07
DEBUG_STATS_RL:         GsNm1 (THERMODYNAMICS)  min= -1.56674081059672E-05
DEBUG_STATS_RL:         GsNm1 (THERMODYNAMICS)  max=  2.18275391761192E-06
DEBUG_STATS_RL:         GsNm1 (THERMODYNAMICS) mean= -4.36658552345599E-09
DEBUG_STATS_RL:         GsNm1 (THERMODYNAMICS) S.D.=  1.96278963800235E-07
(PID.TID 0000.0001) DEBUG_MSG: LEAVING S/R THERMODYNAMICS
(PID.TID 0000.0001) // =======================================================
(PID.TID 0000.0001) // Begin MONITOR dynamic field statistics
(PID.TID 0000.0001) // =======================================================
(PID.TID 0000.0001) %MON time_tsnumber                =                    33
(PID.TID 0000.0001) %MON time_secondsf                =   2.9700000000000E+04
(PID.TID 0000.0001) %MON dynstat_eta_max              =   1.9155393293298E+00
(PID.TID 0000.0001) %MON dynstat_eta_min              =  -1.9599444557718E+00
(PID.TID 0000.0001) %MON dynstat_eta_mean             =   2.6761769464375E-02
(PID.TID 0000.0001) %MON dynstat_eta_sd               =   1.0674989478829E-01
(PID.TID 0000.0001) %MON dynstat_eta_del2             =   2.3774803882429E-03
(PID.TID 0000.0001) %MON dynstat_uvel_max             =   3.8978093548515E-01
(PID.TID 0000.0001) %MON dynstat_uvel_min             =  -9.0967019899597E-01
(PID.TID 0000.0001) %MON dynstat_uvel_mean            =   1.2670110393311E-04
(PID.TID 0000.0001) %MON dynstat_uvel_sd              =   7.0578382318577E-03
(PID.TID 0000.0001) %MON dynstat_uvel_del2            =   9.6488103737681E-05
(PID.TID 0000.0001) %MON dynstat_vvel_max             =   1.1153153653425E+00
(PID.TID 0000.0001) %MON dynstat_vvel_min             =  -1.2240520067807E+00
(PID.TID 0000.0001) %MON dynstat_vvel_mean            =  -4.9761668612043E-05
(PID.TID 0000.0001) %MON dynstat_vvel_sd              =   8.9354605180047E-03
(PID.TID 0000.0001) %MON dynstat_vvel_del2            =   1.5643239160081E-04
(PID.TID 0000.0001) %MON dynstat_wvel_max             =   2.0252434284514E-04
(PID.TID 0000.0001) %MON dynstat_wvel_min             =  -3.0280975756909E-04
(PID.TID 0000.0001) %MON dynstat_wvel_mean            =  -8.5004461757061E-08
(PID.TID 0000.0001) %MON dynstat_wvel_sd              =   8.0874363840662E-06
(PID.TID 0000.0001) %MON dynstat_wvel_del2            =   7.2717628452615E-08
(PID.TID 0000.0001) %MON dynstat_theta_max            =   2.2046140638964E+01
(PID.TID 0000.0001) %MON dynstat_theta_min            =   1.6110534720146E+01
(PID.TID 0000.0001) %MON dynstat_theta_mean           =   1.9997867621553E+01
(PID.TID 0000.0001) %MON dynstat_theta_sd             =   2.3637398929752E-02
(PID.TID 0000.0001) %MON dynstat_theta_del2           =   4.3793866840260E-04
(PID.TID 0000.0001) %MON dynstat_salt_max             =   3.5150843537216E+01
(PID.TID 0000.0001) %MON dynstat_salt_min             =   2.7385898499394E+01
(PID.TID 0000.0001) %MON dynstat_salt_mean            =   3.4999740877332E+01
(PID.TID 0000.0001) %MON dynstat_salt_sd              =   2.6505459807205E-02
(PID.TID 0000.0001) %MON dynstat_salt_del2            =   9.2664483307958E-04
(PID.TID 0000.0001) %MON dynstat_sst_max              =   2.2046140638964E+01
(PID.TID 0000.0001) %MON dynstat_sst_min              =   1.6110534720146E+01
(PID.TID 0000.0001) %MON dynstat_sst_mean             =   2.0081858016893E+01
(PID.TID 0000.0001) %MON dynstat_sst_sd               =   2.0893468310899E-01
(PID.TID 0000.0001) %MON dynstat_sst_del2             =   4.7327787836075E-03
(PID.TID 0000.0001) %MON dynstat_sss_max              =   3.5150843537216E+01
(PID.TID 0000.0001) %MON dynstat_sss_min              =   2.7385898499394E+01
(PID.TID 0000.0001) %MON dynstat_sss_mean             =   3.4977916639626E+01
(PID.TID 0000.0001) %MON dynstat_sss_sd               =   3.1984784453636E-01
(PID.TID 0000.0001) %MON dynstat_sss_del2             =   1.2553959065591E-02
(PID.TID 0000.0001) %MON forcing_qnet_max             =   4.4687198169664E+03
(PID.TID 0000.0001) %MON forcing_qnet_min             =  -5.3184594020830E+03
(PID.TID 0000.0001) %MON forcing_qnet_mean            =  -5.3822191833012E+01
(PID.TID 0000.0001) %MON forcing_qnet_sd              =   6.0363772200487E+02
(PID.TID 0000.0001) %MON forcing_qnet_del2            =   9.8499166121616E+00
(PID.TID 0000.0001) %MON forcing_qsw_max              =   0.0000000000000E+00
(PID.TID 0000.0001) %MON forcing_qsw_min              =  -1.0063944931110E+02
(PID.TID 0000.0001) %MON forcing_qsw_mean             =  -1.5707782450266E+01
(PID.TID 0000.0001) %MON forcing_qsw_sd               =   2.4984184214487E+01
(PID.TID 0000.0001) %MON forcing_qsw_del2             =   2.3392540320872E-01
(PID.TID 0000.0001) %MON forcing_empmr_max            =   7.9636173322797E-03
(PID.TID 0000.0001) %MON forcing_empmr_min            =  -1.1446481943130E-01
(PID.TID 0000.0001) %MON forcing_empmr_mean           =  -4.8497768232371E-04
(PID.TID 0000.0001) %MON forcing_empmr_sd             =   5.0573955186612E-03
(PID.TID 0000.0001) %MON forcing_empmr_del2           =   1.9898191670805E-04
(PID.TID 0000.0001) %MON forcing_fu_max               =   7.3188515596863E-01
(PID.TID 0000.0001) %MON forcing_fu_min               =  -5.8057068117962E-01
(PID.TID 0000.0001) %MON forcing_fu_mean              =  -2.5177232518541E-04
(PID.TID 0000.0001) %MON forcing_fu_sd                =   9.3612189740743E-02
(PID.TID 0000.0001) %MON forcing_fu_del2              =   7.6978896117696E-04
(PID.TID 0000.0001) %MON forcing_fv_max               =   4.9592079619210E-01
(PID.TID 0000.0001) %MON forcing_fv_min               =  -4.3947292276609E-01
(PID.TID 0000.0001) %MON forcing_fv_mean              =  -3.5899145814133E-03
(PID.TID 0000.0001) %MON forcing_fv_sd                =   8.0630302825553E-02
(PID.TID 0000.0001) %MON forcing_fv_del2              =   6.8258432433444E-04
(PID.TID 0000.0001) %MON trAdv_CFL_u_max              =   2.7685381388977E-03
(PID.TID 0000.0001) %MON trAdv_CFL_v_max              =   5.3468613032204E-03
(PID.TID 0000.0001) %MON trAdv_CFL_w_max              =   4.0074026584660E-03
(PID.TID 0000.0001) %MON advcfl_uvel_max              =   2.7720325428831E-03
(PID.TID 0000.0001) %MON advcfl_vvel_max              =   3.9945281958755E-03
(PID.TID 0000.0001) %MON advcfl_wvel_max              =   7.9627700473951E-03
(PID.TID 0000.0001) %MON advcfl_W_hf_max              =   4.5637223586310E-03
(PID.TID 0000.0001) %MON pe_b_mean                    =   1.6134950252964E-05
(PID.TID 0000.0001) %MON ke_max                       =   5.6357994179312E-01
(PID.TID 0000.0001) %MON ke_mean                      =   5.9937284478533E-05
(PID.TID 0000.0001) %MON ke_vol                       =   1.3398120301575E+18
(PID.TID 0000.0001) %MON vort_r_min                   =  -5.4058981631469E-06
(PID.TID 0000.0001) %MON vort_r_max                   =   3.6812887164990E-06
(PID.TID 0000.0001) %MON vort_a_mean                  =  -2.0549865324846E-05
(PID.TID 0000.0001) %MON vort_a_sd                    =   7.5259221894250E-05
(PID.TID 0000.0001) %MON vort_p_mean                  =  -2.4783346082207E-05
(PID.TID 0000.0001) %MON vort_p_sd                    =   1.2810535815754E-04
(PID.TID 0000.0001) %MON surfExpan_theta_mean         =  -9.5871254100523E-07
(PID.TID 0000.0001) %MON surfExpan_salt_mean          =   1.5417425681836E-06
(PID.TID 0000.0001) // =======================================================
(PID.TID 0000.0001) // End MONITOR dynamic field statistics
(PID.TID 0000.0001) // =======================================================
(PID.TID 0000.0001) DEBUG_MSG: LEAVING S/R FORWARD_STEP
(PID.TID 0000.0001) DEBUG_MSG: ENTERED S/R FORWARD_STEP
(PID.TID 0000.0001) DEBUG_MSG: CALLING S/R LOAD_FIELDS_DRIVER
(PID.TID 0000.0001) DEBUG_MSG: ENTERED S/R LOAD_FIELDS_DRIVER
(PID.TID 0000.0001) DEBUG_MSG: CALLING S/R EXTERNAL_FIELDS_LOAD
(PID.TID 0000.0001) DEBUG_MSG: LEAVING S/R LOAD_FIELDS_DRIVER
(PID.TID 0000.0001) DEBUG_MSG: CALLING S/R DO_ATMOSPHERIC_PHYS
(PID.TID 0000.0001) DEBUG_MSG: ENTERED S/R DO_ATMOSPHERIC_PHYS
(PID.TID 0000.0001) DEBUG_MSG: LEAVING S/R DO_ATMOSPHERIC_PHYS
(PID.TID 0000.0001) DEBUG_MSG: CALLING S/R DO_OCEANIC_PHYS
(PID.TID 0000.0001) DEBUG_MSG: ENTERED S/R DO_OCEANIC_PHYS
(PID.TID 0000.0001) DEBUG_MSG: CALLING S/R EXTERNAL_FORCING_SURF
(PID.TID 0000.0001) DEBUG_MSG: CALLING S/R FIND_RHO_2D (xNr)
(PID.TID 0000.0001) DEBUG_MSG:                  ENTERING UPWARD K LOOP (bi=   1, bj=   1)
(PID.TID 0000.0001) DEBUG_MSG: CALLING S/R GRAD_SIGMA
(PID.TID 0000.0001) DEBUG_MSG: CALLING S/R CALC_IVDC
(PID.TID 0000.0001) DEBUG_MSG: CALLING S/R GRAD_SIGMA
(PID.TID 0000.0001) DEBUG_MSG: CALLING S/R CALC_IVDC
(PID.TID 0000.0001) DEBUG_MSG: CALLING S/R GRAD_SIGMA
(PID.TID 0000.0001) DEBUG_MSG: CALLING S/R CALC_IVDC
(PID.TID 0000.0001) DEBUG_MSG: CALLING S/R GRAD_SIGMA
(PID.TID 0000.0001) DEBUG_MSG: CALLING S/R CALC_IVDC
(PID.TID 0000.0001) DEBUG_MSG: CALLING S/R GRAD_SIGMA
(PID.TID 0000.0001) DEBUG_MSG: CALLING S/R CALC_IVDC
(PID.TID 0000.0001) DEBUG_MSG: CALLING S/R GRAD_SIGMA
(PID.TID 0000.0001) DEBUG_MSG: CALLING S/R CALC_IVDC
(PID.TID 0000.0001) DEBUG_MSG: CALLING S/R GRAD_SIGMA
(PID.TID 0000.0001) DEBUG_MSG: CALLING S/R CALC_IVDC
(PID.TID 0000.0001) DEBUG_MSG: CALLING S/R GRAD_SIGMA
(PID.TID 0000.0001) DEBUG_MSG: CALLING S/R CALC_IVDC
(PID.TID 0000.0001) DEBUG_MSG: CALLING S/R GRAD_SIGMA
(PID.TID 0000.0001) DEBUG_MSG: CALLING S/R CALC_IVDC
(PID.TID 0000.0001) DEBUG_MSG: CALLING S/R GRAD_SIGMA
(PID.TID 0000.0001) DEBUG_MSG: CALLING S/R CALC_IVDC
(PID.TID 0000.0001) DEBUG_MSG: CALLING S/R GRAD_SIGMA
(PID.TID 0000.0001) DEBUG_MSG: CALLING S/R CALC_IVDC
(PID.TID 0000.0001) DEBUG_MSG: CALLING S/R GRAD_SIGMA
(PID.TID 0000.0001) DEBUG_MSG: CALLING S/R CALC_IVDC
(PID.TID 0000.0001) DEBUG_MSG: CALLING S/R GRAD_SIGMA
(PID.TID 0000.0001) DEBUG_MSG: CALLING S/R CALC_IVDC
(PID.TID 0000.0001) DEBUG_MSG: CALLING S/R GRAD_SIGMA
(PID.TID 0000.0001) DEBUG_MSG: CALLING S/R CALC_IVDC
(PID.TID 0000.0001) DEBUG_MSG: CALLING S/R GRAD_SIGMA
(PID.TID 0000.0001) DEBUG_MSG: CALLING S/R CALC_IVDC
(PID.TID 0000.0001) DEBUG_MSG: CALLING S/R GRAD_SIGMA
(PID.TID 0000.0001) DEBUG_MSG: CALLING S/R GMREDI_CALC_TENSOR
(PID.TID 0000.0001) DEBUG_MSG: LEAVING S/R DO_OCEANIC_PHYS
(PID.TID 0000.0001) DEBUG_MSG: CALLING S/R DYNAMICS
(PID.TID 0000.0001) DEBUG_MSG: ENTERED S/R DYNAMICS
DEBUG_STATS_RL:                EtaN (DYNAMICS)  min= -1.95994445577175E+00
DEBUG_STATS_RL:                EtaN (DYNAMICS)  max=  1.91553932932982E+00
DEBUG_STATS_RL:                EtaN (DYNAMICS) mean=  2.78424220426190E-02
DEBUG_STATS_RL:                EtaN (DYNAMICS) S.D.=  1.10741990492146E-01
DEBUG_STATS_RL:                Uvel (DYNAMICS)  min= -9.09670198995974E-01
DEBUG_STATS_RL:                Uvel (DYNAMICS)  max=  3.89780935485155E-01
DEBUG_STATS_RL:                Uvel (DYNAMICS) mean= -3.85809650737028E-04
DEBUG_STATS_RL:                Uvel (DYNAMICS) S.D.=  2.16686170413587E-02
DEBUG_STATS_RL:                Vvel (DYNAMICS)  min= -1.22405200678072E+00
DEBUG_STATS_RL:                Vvel (DYNAMICS)  max=  1.11531536534253E+00
DEBUG_STATS_RL:                Vvel (DYNAMICS) mean= -8.41743609876623E-04
DEBUG_STATS_RL:                Vvel (DYNAMICS) S.D.=  2.76001328005799E-02
DEBUG_STATS_RL:                Wvel (DYNAMICS)  min= -3.02809757569087E-04
DEBUG_STATS_RL:                Wvel (DYNAMICS)  max=  2.02524342845142E-04
DEBUG_STATS_RL:                Wvel (DYNAMICS) mean= -2.37863384268483E-07
DEBUG_STATS_RL:                Wvel (DYNAMICS) S.D.=  8.70249287314427E-06
DEBUG_STATS_RL:               Theta (DYNAMICS)  min=  1.61105347201464E+01
DEBUG_STATS_RL:               Theta (DYNAMICS)  max=  2.20461406389643E+01
DEBUG_STATS_RL:               Theta (DYNAMICS) mean=  1.99992742664567E+01
DEBUG_STATS_RL:               Theta (DYNAMICS) S.D.=  7.03865669737939E-02
DEBUG_STATS_RL:                Salt (DYNAMICS)  min=  2.73858984993937E+01
DEBUG_STATS_RL:                Salt (DYNAMICS)  max=  3.51508435372162E+01
DEBUG_STATS_RL:                Salt (DYNAMICS) mean=  3.49981061656525E+01
DEBUG_STATS_RL:                Salt (DYNAMICS) S.D.=  8.58521351845148E-02
DEBUG_STATS_RL:                  Gu (DYNAMICS)  min= -9.24753264200205E-01
DEBUG_STATS_RL:                  Gu (DYNAMICS)  max=  3.83589853682182E-01
DEBUG_STATS_RL:                  Gu (DYNAMICS) mean= -4.42508180056738E-04
DEBUG_STATS_RL:                  Gu (DYNAMICS) S.D.=  2.17731197805398E-02
DEBUG_STATS_RL:                  Gv (DYNAMICS)  min= -1.17893837045604E+00
DEBUG_STATS_RL:                  Gv (DYNAMICS)  max=  1.08676228431059E+00
DEBUG_STATS_RL:                  Gv (DYNAMICS) mean= -8.62271334777241E-04
DEBUG_STATS_RL:                  Gv (DYNAMICS) S.D.=  2.73191121923505E-02
DEBUG_STATS_RL:               GuNm1 (DYNAMICS)  min= -6.20107816850671E-05
DEBUG_STATS_RL:               GuNm1 (DYNAMICS)  max=  2.89795572019421E-05
DEBUG_STATS_RL:               GuNm1 (DYNAMICS) mean= -6.48628297558500E-08
DEBUG_STATS_RL:               GuNm1 (DYNAMICS) S.D.=  1.65570195584836E-06
DEBUG_STATS_RL:               GvNm1 (DYNAMICS)  min= -3.06002616714824E-05
DEBUG_STATS_RL:               GvNm1 (DYNAMICS)  max=  5.50368636066630E-05
DEBUG_STATS_RL:               GvNm1 (DYNAMICS) mean= -2.59356717563528E-08
DEBUG_STATS_RL:               GvNm1 (DYNAMICS) S.D.=  1.41817594307273E-06
DEBUG_STATS_RL:               GtNm1 (DYNAMICS)  min= -2.99352160645297E-06
DEBUG_STATS_RL:               GtNm1 (DYNAMICS)  max=  1.28614724429694E-05
DEBUG_STATS_RL:               GtNm1 (DYNAMICS) mean=  2.63187012389400E-09
DEBUG_STATS_RL:               GtNm1 (DYNAMICS) S.D.=  1.33532166075646E-07
DEBUG_STATS_RL:               GsNm1 (DYNAMICS)  min= -1.56674081059672E-05
DEBUG_STATS_RL:               GsNm1 (DYNAMICS)  max=  2.18275391761192E-06
DEBUG_STATS_RL:               GsNm1 (DYNAMICS) mean= -4.36658552345599E-09
DEBUG_STATS_RL:               GsNm1 (DYNAMICS) S.D.=  1.96278963800235E-07
(PID.TID 0000.0001) DEBUG_MSG: LEAVING S/R DYNAMICS
DEBUG_STATS_RL:    cg2d_b (SOLVE_FOR_PRESSURE)  min= -2.17194689555932E+05
DEBUG_STATS_RL:    cg2d_b (SOLVE_FOR_PRESSURE)  max=  1.50653510091875E+05
DEBUG_STATS_RL:    cg2d_b (SOLVE_FOR_PRESSURE) mean= -2.76253378349536E+03
DEBUG_STATS_RL:    cg2d_b (SOLVE_FOR_PRESSURE) S.D.=  1.07799395166966E+04
 cg2d: Sum(rhs),rhsMax =  -5.62186826391309E+01  4.16070400459257E+01
(PID.TID 0000.0001)  cg2d: iter=     1 ; resid.=  5.41249500685443E-02
(PID.TID 0000.0001)  cg2d: iter=     2 ; resid.=  7.84662813181338E-03
(PID.TID 0000.0001)  cg2d: iter=     3 ; resid.=  1.86099125578416E-03
(PID.TID 0000.0001)  cg2d: iter=     4 ; resid.=  6.41990441793246E-04
(PID.TID 0000.0001)  cg2d: iter=     5 ; resid.=  1.67309219402146E-04
(PID.TID 0000.0001)  cg2d: iter=     6 ; resid.=  3.85538852980711E-05
(PID.TID 0000.0001)  cg2d: iter=     7 ; resid.=  7.91845066064468E-06
(PID.TID 0000.0001)  cg2d: iter=     8 ; resid.=  2.37941783659822E-06
(PID.TID 0000.0001)  cg2d: iter=     9 ; resid.=  6.79550852727396E-07
(PID.TID 0000.0001)  cg2d: iter=    10 ; resid.=  1.96311027057658E-07
(PID.TID 0000.0001)  cg2d: iter=    11 ; resid.=  5.50274198523369E-08
DEBUG_STATS_RL:    cg2d_x (SOLVE_FOR_PRESSURE)  min= -1.42135663796600E+01
DEBUG_STATS_RL:    cg2d_x (SOLVE_FOR_PRESSURE)  max=  1.84246671160667E+01
DEBUG_STATS_RL:    cg2d_x (SOLVE_FOR_PRESSURE) mean=  2.75430082709549E-01
DEBUG_STATS_RL:    cg2d_x (SOLVE_FOR_PRESSURE) S.D.=  1.05912302446880E+00
(PID.TID 0000.0001)      cg2d_init_res =   4.35489944245932E-01
(PID.TID 0000.0001)      cg2d_iters(min,last) =      -1      11
(PID.TID 0000.0001)      cg2d_last_res =   5.50274198523369E-08
(PID.TID 0000.0001) DEBUG_MSG: CALLING S/R UPDATE_ETAH
(PID.TID 0000.0001) DEBUG_MSG: ENTERED S/R CALC_R_STAR
(PID.TID 0000.0001) DEBUG_MSG: LEAVING S/R CALC_R_STAR
(PID.TID 0000.0001) DEBUG_MSG: CALLING S/R DO_STAGGER_FIELDS_EXCH.
(PID.TID 0000.0001) DEBUG_MSG: CALLING S/R THERMODYNAMICS
(PID.TID 0000.0001) DEBUG_MSG: ENTERED S/R THERMODYNAMICS
(PID.TID 0000.0001) DEBUG_MSG: CALLING S/R TEMP_INTEGRATE
(PID.TID 0000.0001) DEBUG_MSG: CALLING S/R SALT_INTEGRATE
DEBUG_STATS_RL:          Uvel (THERMODYNAMICS)  min= -9.26164060766295E-01
DEBUG_STATS_RL:          Uvel (THERMODYNAMICS)  max=  3.83274708536508E-01
DEBUG_STATS_RL:          Uvel (THERMODYNAMICS) mean= -4.55301882161567E-04
DEBUG_STATS_RL:          Uvel (THERMODYNAMICS) S.D.=  2.18630882377173E-02
DEBUG_STATS_RL:          Vvel (THERMODYNAMICS)  min= -1.22572580358561E+00
DEBUG_STATS_RL:          Vvel (THERMODYNAMICS)  max=  1.15676339432223E+00
DEBUG_STATS_RL:          Vvel (THERMODYNAMICS) mean= -8.39046576337122E-04
DEBUG_STATS_RL:          Vvel (THERMODYNAMICS) S.D.=  2.74756994647099E-02
DEBUG_STATS_RL:          Wvel (THERMODYNAMICS)  min= -2.84638880905660E-04
DEBUG_STATS_RL:          Wvel (THERMODYNAMICS)  max=  2.06961449927491E-04
DEBUG_STATS_RL:          Wvel (THERMODYNAMICS) mean= -2.10632387161644E-07
DEBUG_STATS_RL:          Wvel (THERMODYNAMICS) S.D.=  8.60438004565832E-06
DEBUG_STATS_RL:         Theta (THERMODYNAMICS)  min=  1.61175841502630E+01
DEBUG_STATS_RL:         Theta (THERMODYNAMICS)  max=  2.20956001623763E+01
DEBUG_STATS_RL:         Theta (THERMODYNAMICS) mean=  1.99994193034010E+01
DEBUG_STATS_RL:         Theta (THERMODYNAMICS) S.D.=  7.10463502420245E-02
DEBUG_STATS_RL:          Salt (THERMODYNAMICS)  min=  2.72451699624625E+01
DEBUG_STATS_RL:          Salt (THERMODYNAMICS)  max=  3.51511401260730E+01
DEBUG_STATS_RL:          Salt (THERMODYNAMICS) mean=  3.49980671830700E+01
DEBUG_STATS_RL:          Salt (THERMODYNAMICS) S.D.=  8.74879435552335E-02
DEBUG_STATS_RL:         GtNm1 (THERMODYNAMICS)  min= -3.04956189500028E-06
DEBUG_STATS_RL:         GtNm1 (THERMODYNAMICS)  max=  1.32200236841449E-05
DEBUG_STATS_RL:         GtNm1 (THERMODYNAMICS) mean=  2.65737508543651E-09
DEBUG_STATS_RL:         GtNm1 (THERMODYNAMICS) S.D.=  1.36314596533350E-07
DEBUG_STATS_RL:         GsNm1 (THERMODYNAMICS)  min= -1.57935307025763E-05
DEBUG_STATS_RL:         GsNm1 (THERMODYNAMICS)  max=  2.14897483155302E-06
DEBUG_STATS_RL:         GsNm1 (THERMODYNAMICS) mean= -4.40778178533823E-09
DEBUG_STATS_RL:         GsNm1 (THERMODYNAMICS) S.D.=  1.97638482781029E-07
(PID.TID 0000.0001) DEBUG_MSG: LEAVING S/R THERMODYNAMICS
(PID.TID 0000.0001) // =======================================================
(PID.TID 0000.0001) // Begin MONITOR dynamic field statistics
(PID.TID 0000.0001) // =======================================================
(PID.TID 0000.0001) %MON time_tsnumber                =                    34
(PID.TID 0000.0001) %MON time_secondsf                =   3.0600000000000E+04
(PID.TID 0000.0001) %MON dynstat_eta_max              =   1.8781515907483E+00
(PID.TID 0000.0001) %MON dynstat_eta_min              =  -1.4488854625038E+00
(PID.TID 0000.0001) %MON dynstat_eta_mean             =   2.7179950331244E-02
(PID.TID 0000.0001) %MON dynstat_eta_sd               =   1.0399227449173E-01
(PID.TID 0000.0001) %MON dynstat_eta_del2             =   2.2123889194681E-03
(PID.TID 0000.0001) %MON dynstat_uvel_max             =   3.8327470853651E-01
(PID.TID 0000.0001) %MON dynstat_uvel_min             =  -9.2616406076630E-01
(PID.TID 0000.0001) %MON dynstat_uvel_mean            =   9.0524163987177E-05
(PID.TID 0000.0001) %MON dynstat_uvel_sd              =   7.1198115431822E-03
(PID.TID 0000.0001) %MON dynstat_uvel_del2            =   9.7334299714223E-05
(PID.TID 0000.0001) %MON dynstat_vvel_max             =   1.1567633943222E+00
(PID.TID 0000.0001) %MON dynstat_vvel_min             =  -1.2257258035856E+00
(PID.TID 0000.0001) %MON dynstat_vvel_mean            =  -3.3747361849306E-05
(PID.TID 0000.0001) %MON dynstat_vvel_sd              =   8.8738657481353E-03
(PID.TID 0000.0001) %MON dynstat_vvel_del2            =   1.5725388071783E-04
(PID.TID 0000.0001) %MON dynstat_wvel_max             =   2.0696144992749E-04
(PID.TID 0000.0001) %MON dynstat_wvel_min             =  -2.8463888090566E-04
(PID.TID 0000.0001) %MON dynstat_wvel_mean            =  -5.4239278306923E-08
(PID.TID 0000.0001) %MON dynstat_wvel_sd              =   7.9685720682763E-06
(PID.TID 0000.0001) %MON dynstat_wvel_del2            =   7.2252366485206E-08
(PID.TID 0000.0001) %MON dynstat_theta_max            =   2.2095600162376E+01
(PID.TID 0000.0001) %MON dynstat_theta_min            =   1.6117584150263E+01
(PID.TID 0000.0001) %MON dynstat_theta_mean           =   1.9997870556323E+01
(PID.TID 0000.0001) %MON dynstat_theta_sd             =   2.3848815988472E-02
(PID.TID 0000.0001) %MON dynstat_theta_del2           =   4.4058991521653E-04
(PID.TID 0000.0001) %MON dynstat_salt_max             =   3.5151140126073E+01
(PID.TID 0000.0001) %MON dynstat_salt_min             =   2.7245169962462E+01
(PID.TID 0000.0001) %MON dynstat_salt_mean            =   3.4999736576906E+01
(PID.TID 0000.0001) %MON dynstat_salt_sd              =   2.7008525859408E-02
(PID.TID 0000.0001) %MON dynstat_salt_del2            =   9.4391879493600E-04
(PID.TID 0000.0001) %MON dynstat_sst_max              =   2.2095600162376E+01
(PID.TID 0000.0001) %MON dynstat_sst_min              =   1.6117584150263E+01
(PID.TID 0000.0001) %MON dynstat_sst_mean             =   2.0083958356234E+01
(PID.TID 0000.0001) %MON dynstat_sst_sd               =   2.1140501841532E-01
(PID.TID 0000.0001) %MON dynstat_sst_del2             =   4.7789211286439E-03
(PID.TID 0000.0001) %MON dynstat_sss_max              =   3.5151140126073E+01
(PID.TID 0000.0001) %MON dynstat_sss_min              =   2.7245169962462E+01
(PID.TID 0000.0001) %MON dynstat_sss_mean             =   3.4977423515990E+01
(PID.TID 0000.0001) %MON dynstat_sss_sd               =   3.2593728004614E-01
(PID.TID 0000.0001) %MON dynstat_sss_del2             =   1.2787795693959E-02
(PID.TID 0000.0001) %MON forcing_qnet_max             =   6.5513158474598E+03
(PID.TID 0000.0001) %MON forcing_qnet_min             =  -5.2409791649069E+03
(PID.TID 0000.0001) %MON forcing_qnet_mean            =  -4.8255161979799E+01
(PID.TID 0000.0001) %MON forcing_qnet_sd              =   6.0570702306073E+02
(PID.TID 0000.0001) %MON forcing_qnet_del2            =   1.0217555411071E+01
(PID.TID 0000.0001) %MON forcing_qsw_max              =   0.0000000000000E+00
(PID.TID 0000.0001) %MON forcing_qsw_min              =  -1.0261026299025E+02
(PID.TID 0000.0001) %MON forcing_qsw_mean             =  -1.5526605825530E+01
(PID.TID 0000.0001) %MON forcing_qsw_sd               =   2.5070848396960E+01
(PID.TID 0000.0001) %MON forcing_qsw_del2             =   2.3034731400608E-01
(PID.TID 0000.0001) %MON forcing_empmr_max            =   7.8814504668117E-03
(PID.TID 0000.0001) %MON forcing_empmr_min            =  -1.1328590661287E-01
(PID.TID 0000.0001) %MON forcing_empmr_mean           =  -4.8090799689884E-04
(PID.TID 0000.0001) %MON forcing_empmr_sd             =   5.0044261660141E-03
(PID.TID 0000.0001) %MON forcing_empmr_del2           =   1.9688890251988E-04
(PID.TID 0000.0001) %MON forcing_fu_max               =   7.2105642622655E-01
(PID.TID 0000.0001) %MON forcing_fu_min               =  -5.7754568306895E-01
(PID.TID 0000.0001) %MON forcing_fu_mean              =  -2.9078601065437E-04
(PID.TID 0000.0001) %MON forcing_fu_sd                =   9.2945398503677E-02
(PID.TID 0000.0001) %MON forcing_fu_del2              =   7.6653168703298E-04
(PID.TID 0000.0001) %MON forcing_fv_max               =   4.9745225698568E-01
(PID.TID 0000.0001) %MON forcing_fv_min               =  -4.3580873759164E-01
(PID.TID 0000.0001) %MON forcing_fv_mean              =  -3.6771671582054E-03
(PID.TID 0000.0001) %MON forcing_fv_sd                =   8.0522477114874E-02
(PID.TID 0000.0001) %MON forcing_fv_del2              =   6.7968659004375E-04
(PID.TID 0000.0001) %MON trAdv_CFL_u_max              =   3.0568576624480E-03
(PID.TID 0000.0001) %MON trAdv_CFL_v_max              =   5.3184129765097E-03
(PID.TID 0000.0001) %MON trAdv_CFL_w_max              =   3.9282110607755E-03
(PID.TID 0000.0001) %MON advcfl_uvel_max              =   3.0501380480744E-03
(PID.TID 0000.0001) %MON advcfl_vvel_max              =   3.9999904054011E-03
(PID.TID 0000.0001) %MON advcfl_wvel_max              =   7.8807587208955E-03
(PID.TID 0000.0001) %MON advcfl_W_hf_max              =   4.5449299643552E-03
(PID.TID 0000.0001) %MON pe_b_mean                    =   1.5390809390189E-05
(PID.TID 0000.0001) %MON ke_max                       =   5.9913739999149E-01
(PID.TID 0000.0001) %MON ke_mean                      =   5.9827708443619E-05
(PID.TID 0000.0001) %MON ke_vol                       =   1.3398121836157E+18
(PID.TID 0000.0001) %MON vort_r_min                   =  -5.2645929527046E-06
(PID.TID 0000.0001) %MON vort_r_max                   =   3.8180950101675E-06
(PID.TID 0000.0001) %MON vort_a_mean                  =  -2.0549865324846E-05
(PID.TID 0000.0001) %MON vort_a_sd                    =   7.5259225394093E-05
(PID.TID 0000.0001) %MON vort_p_mean                  =  -2.4783343535841E-05
(PID.TID 0000.0001) %MON vort_p_sd                    =   1.2810537786071E-04
(PID.TID 0000.0001) %MON surfExpan_theta_mean         =  -9.7115346889838E-07
(PID.TID 0000.0001) %MON surfExpan_salt_mean          =   1.5515863759087E-06
(PID.TID 0000.0001) // =======================================================
(PID.TID 0000.0001) // End MONITOR dynamic field statistics
(PID.TID 0000.0001) // =======================================================
(PID.TID 0000.0001) DEBUG_MSG: LEAVING S/R FORWARD_STEP
(PID.TID 0000.0001) DEBUG_MSG: ENTERED S/R FORWARD_STEP
(PID.TID 0000.0001) DEBUG_MSG: CALLING S/R LOAD_FIELDS_DRIVER
(PID.TID 0000.0001) DEBUG_MSG: ENTERED S/R LOAD_FIELDS_DRIVER
(PID.TID 0000.0001) DEBUG_MSG: CALLING S/R EXTERNAL_FIELDS_LOAD
(PID.TID 0000.0001) DEBUG_MSG: LEAVING S/R LOAD_FIELDS_DRIVER
(PID.TID 0000.0001) DEBUG_MSG: CALLING S/R DO_ATMOSPHERIC_PHYS
(PID.TID 0000.0001) DEBUG_MSG: ENTERED S/R DO_ATMOSPHERIC_PHYS
(PID.TID 0000.0001) DEBUG_MSG: LEAVING S/R DO_ATMOSPHERIC_PHYS
(PID.TID 0000.0001) DEBUG_MSG: CALLING S/R DO_OCEANIC_PHYS
(PID.TID 0000.0001) DEBUG_MSG: ENTERED S/R DO_OCEANIC_PHYS
(PID.TID 0000.0001) DEBUG_MSG: CALLING S/R EXTERNAL_FORCING_SURF
(PID.TID 0000.0001) DEBUG_MSG: CALLING S/R FIND_RHO_2D (xNr)
(PID.TID 0000.0001) DEBUG_MSG:                  ENTERING UPWARD K LOOP (bi=   1, bj=   1)
(PID.TID 0000.0001) DEBUG_MSG: CALLING S/R GRAD_SIGMA
(PID.TID 0000.0001) DEBUG_MSG: CALLING S/R CALC_IVDC
(PID.TID 0000.0001) DEBUG_MSG: CALLING S/R GRAD_SIGMA
(PID.TID 0000.0001) DEBUG_MSG: CALLING S/R CALC_IVDC
(PID.TID 0000.0001) DEBUG_MSG: CALLING S/R GRAD_SIGMA
(PID.TID 0000.0001) DEBUG_MSG: CALLING S/R CALC_IVDC
(PID.TID 0000.0001) DEBUG_MSG: CALLING S/R GRAD_SIGMA
(PID.TID 0000.0001) DEBUG_MSG: CALLING S/R CALC_IVDC
(PID.TID 0000.0001) DEBUG_MSG: CALLING S/R GRAD_SIGMA
(PID.TID 0000.0001) DEBUG_MSG: CALLING S/R CALC_IVDC
(PID.TID 0000.0001) DEBUG_MSG: CALLING S/R GRAD_SIGMA
(PID.TID 0000.0001) DEBUG_MSG: CALLING S/R CALC_IVDC
(PID.TID 0000.0001) DEBUG_MSG: CALLING S/R GRAD_SIGMA
(PID.TID 0000.0001) DEBUG_MSG: CALLING S/R CALC_IVDC
(PID.TID 0000.0001) DEBUG_MSG: CALLING S/R GRAD_SIGMA
(PID.TID 0000.0001) DEBUG_MSG: CALLING S/R CALC_IVDC
(PID.TID 0000.0001) DEBUG_MSG: CALLING S/R GRAD_SIGMA
(PID.TID 0000.0001) DEBUG_MSG: CALLING S/R CALC_IVDC
(PID.TID 0000.0001) DEBUG_MSG: CALLING S/R GRAD_SIGMA
(PID.TID 0000.0001) DEBUG_MSG: CALLING S/R CALC_IVDC
(PID.TID 0000.0001) DEBUG_MSG: CALLING S/R GRAD_SIGMA
(PID.TID 0000.0001) DEBUG_MSG: CALLING S/R CALC_IVDC
(PID.TID 0000.0001) DEBUG_MSG: CALLING S/R GRAD_SIGMA
(PID.TID 0000.0001) DEBUG_MSG: CALLING S/R CALC_IVDC
(PID.TID 0000.0001) DEBUG_MSG: CALLING S/R GRAD_SIGMA
(PID.TID 0000.0001) DEBUG_MSG: CALLING S/R CALC_IVDC
(PID.TID 0000.0001) DEBUG_MSG: CALLING S/R GRAD_SIGMA
(PID.TID 0000.0001) DEBUG_MSG: CALLING S/R CALC_IVDC
(PID.TID 0000.0001) DEBUG_MSG: CALLING S/R GRAD_SIGMA
(PID.TID 0000.0001) DEBUG_MSG: CALLING S/R CALC_IVDC
(PID.TID 0000.0001) DEBUG_MSG: CALLING S/R GRAD_SIGMA
(PID.TID 0000.0001) DEBUG_MSG: CALLING S/R GMREDI_CALC_TENSOR
(PID.TID 0000.0001) DEBUG_MSG: LEAVING S/R DO_OCEANIC_PHYS
(PID.TID 0000.0001) DEBUG_MSG: CALLING S/R DYNAMICS
(PID.TID 0000.0001) DEBUG_MSG: ENTERED S/R DYNAMICS
DEBUG_STATS_RL:                EtaN (DYNAMICS)  min= -1.44888546250377E+00
DEBUG_STATS_RL:                EtaN (DYNAMICS)  max=  1.87815159074828E+00
DEBUG_STATS_RL:                EtaN (DYNAMICS) mean=  2.80764608157566E-02
DEBUG_STATS_RL:                EtaN (DYNAMICS) S.D.=  1.07963611147052E-01
DEBUG_STATS_RL:                Uvel (DYNAMICS)  min= -9.26164060766295E-01
DEBUG_STATS_RL:                Uvel (DYNAMICS)  max=  3.83274708536508E-01
DEBUG_STATS_RL:                Uvel (DYNAMICS) mean= -4.55301882161567E-04
DEBUG_STATS_RL:                Uvel (DYNAMICS) S.D.=  2.18630882377173E-02
DEBUG_STATS_RL:                Vvel (DYNAMICS)  min= -1.22572580358561E+00
DEBUG_STATS_RL:                Vvel (DYNAMICS)  max=  1.15676339432223E+00
DEBUG_STATS_RL:                Vvel (DYNAMICS) mean= -8.39046576337122E-04
DEBUG_STATS_RL:                Vvel (DYNAMICS) S.D.=  2.74756994647099E-02
DEBUG_STATS_RL:                Wvel (DYNAMICS)  min= -2.84638880905660E-04
DEBUG_STATS_RL:                Wvel (DYNAMICS)  max=  2.06961449927491E-04
DEBUG_STATS_RL:                Wvel (DYNAMICS) mean= -2.10632387161644E-07
DEBUG_STATS_RL:                Wvel (DYNAMICS) S.D.=  8.60438004565832E-06
DEBUG_STATS_RL:               Theta (DYNAMICS)  min=  1.61175841502630E+01
DEBUG_STATS_RL:               Theta (DYNAMICS)  max=  2.20956001623763E+01
DEBUG_STATS_RL:               Theta (DYNAMICS) mean=  1.99994193034010E+01
DEBUG_STATS_RL:               Theta (DYNAMICS) S.D.=  7.10463502420245E-02
DEBUG_STATS_RL:                Salt (DYNAMICS)  min=  2.72451699624625E+01
DEBUG_STATS_RL:                Salt (DYNAMICS)  max=  3.51511401260730E+01
DEBUG_STATS_RL:                Salt (DYNAMICS) mean=  3.49980671830700E+01
DEBUG_STATS_RL:                Salt (DYNAMICS) S.D.=  8.74879435552335E-02
DEBUG_STATS_RL:                  Gu (DYNAMICS)  min= -9.47842867237777E-01
DEBUG_STATS_RL:                  Gu (DYNAMICS)  max=  3.87284911706619E-01
DEBUG_STATS_RL:                  Gu (DYNAMICS) mean= -5.09457802732780E-04
DEBUG_STATS_RL:                  Gu (DYNAMICS) S.D.=  2.19659215557109E-02
DEBUG_STATS_RL:                  Gv (DYNAMICS)  min= -1.17667174803598E+00
DEBUG_STATS_RL:                  Gv (DYNAMICS)  max=  1.12869992826880E+00
DEBUG_STATS_RL:                  Gv (DYNAMICS) mean= -8.56152047889776E-04
DEBUG_STATS_RL:                  Gv (DYNAMICS) S.D.=  2.71461373118138E-02
DEBUG_STATS_RL:               GuNm1 (DYNAMICS)  min= -5.93931291181189E-05
DEBUG_STATS_RL:               GuNm1 (DYNAMICS)  max=  2.96627506824490E-05
DEBUG_STATS_RL:               GuNm1 (DYNAMICS) mean= -6.23198807662684E-08
DEBUG_STATS_RL:               GuNm1 (DYNAMICS) S.D.=  1.62837756830471E-06
DEBUG_STATS_RL:               GvNm1 (DYNAMICS)  min= -3.02453231432790E-05
DEBUG_STATS_RL:               GvNm1 (DYNAMICS)  max=  5.90344068281329E-05
DEBUG_STATS_RL:               GvNm1 (DYNAMICS) mean= -2.19943010665933E-08
DEBUG_STATS_RL:               GvNm1 (DYNAMICS) S.D.=  1.44346991754235E-06
DEBUG_STATS_RL:               GtNm1 (DYNAMICS)  min= -3.04956189500028E-06
DEBUG_STATS_RL:               GtNm1 (DYNAMICS)  max=  1.32200236841449E-05
DEBUG_STATS_RL:               GtNm1 (DYNAMICS) mean=  2.65737508543651E-09
DEBUG_STATS_RL:               GtNm1 (DYNAMICS) S.D.=  1.36314596533350E-07
DEBUG_STATS_RL:               GsNm1 (DYNAMICS)  min= -1.57935307025763E-05
DEBUG_STATS_RL:               GsNm1 (DYNAMICS)  max=  2.14897483155302E-06
DEBUG_STATS_RL:               GsNm1 (DYNAMICS) mean= -4.40778178533823E-09
DEBUG_STATS_RL:               GsNm1 (DYNAMICS) S.D.=  1.97638482781029E-07
(PID.TID 0000.0001) DEBUG_MSG: LEAVING S/R DYNAMICS
DEBUG_STATS_RL:    cg2d_b (SOLVE_FOR_PRESSURE)  min= -2.30042055331652E+05
DEBUG_STATS_RL:    cg2d_b (SOLVE_FOR_PRESSURE)  max=  1.19586115302317E+05
DEBUG_STATS_RL:    cg2d_b (SOLVE_FOR_PRESSURE) mean= -2.80528502993298E+03
DEBUG_STATS_RL:    cg2d_b (SOLVE_FOR_PRESSURE) S.D.=  1.05603235030354E+04
 cg2d: Sum(rhs),rhsMax =  -5.39004044909421E+01  4.40681539129725E+01
(PID.TID 0000.0001)  cg2d: iter=     1 ; resid.=  4.95176968135556E-02
(PID.TID 0000.0001)  cg2d: iter=     2 ; resid.=  6.92465359600977E-03
(PID.TID 0000.0001)  cg2d: iter=     3 ; resid.=  1.71623014214616E-03
(PID.TID 0000.0001)  cg2d: iter=     4 ; resid.=  5.91045054457669E-04
(PID.TID 0000.0001)  cg2d: iter=     5 ; resid.=  1.49176025361467E-04
(PID.TID 0000.0001)  cg2d: iter=     6 ; resid.=  3.51779636572155E-05
(PID.TID 0000.0001)  cg2d: iter=     7 ; resid.=  7.37891458946148E-06
(PID.TID 0000.0001)  cg2d: iter=     8 ; resid.=  2.17301625227336E-06
(PID.TID 0000.0001)  cg2d: iter=     9 ; resid.=  6.37481518629264E-07
(PID.TID 0000.0001)  cg2d: iter=    10 ; resid.=  1.81658141148160E-07
(PID.TID 0000.0001)  cg2d: iter=    11 ; resid.=  5.03162944909697E-08
DEBUG_STATS_RL:    cg2d_x (SOLVE_FOR_PRESSURE)  min= -1.05225314954331E+01
DEBUG_STATS_RL:    cg2d_x (SOLVE_FOR_PRESSURE)  max=  1.93226850132919E+01
DEBUG_STATS_RL:    cg2d_x (SOLVE_FOR_PRESSURE) mean=  2.77684415699509E-01
DEBUG_STATS_RL:    cg2d_x (SOLVE_FOR_PRESSURE) S.D.=  1.03721952741412E+00
(PID.TID 0000.0001)      cg2d_init_res =   4.04899068685255E-01
(PID.TID 0000.0001)      cg2d_iters(min,last) =      -1      11
(PID.TID 0000.0001)      cg2d_last_res =   5.03162944909697E-08
(PID.TID 0000.0001) DEBUG_MSG: CALLING S/R UPDATE_ETAH
(PID.TID 0000.0001) DEBUG_MSG: ENTERED S/R CALC_R_STAR
(PID.TID 0000.0001) DEBUG_MSG: LEAVING S/R CALC_R_STAR
(PID.TID 0000.0001) DEBUG_MSG: CALLING S/R DO_STAGGER_FIELDS_EXCH.
(PID.TID 0000.0001) DEBUG_MSG: CALLING S/R THERMODYNAMICS
(PID.TID 0000.0001) DEBUG_MSG: ENTERED S/R THERMODYNAMICS
(PID.TID 0000.0001) DEBUG_MSG: CALLING S/R TEMP_INTEGRATE
(PID.TID 0000.0001) DEBUG_MSG: CALLING S/R SALT_INTEGRATE
DEBUG_STATS_RL:          Uvel (THERMODYNAMICS)  min= -9.77216017090307E-01
DEBUG_STATS_RL:          Uvel (THERMODYNAMICS)  max=  3.89046560675646E-01
DEBUG_STATS_RL:          Uvel (THERMODYNAMICS) mean= -5.19054913381546E-04
DEBUG_STATS_RL:          Uvel (THERMODYNAMICS) S.D.=  2.20264902975429E-02
DEBUG_STATS_RL:          Vvel (THERMODYNAMICS)  min= -1.20836411689358E+00
DEBUG_STATS_RL:          Vvel (THERMODYNAMICS)  max=  1.18170716017057E+00
DEBUG_STATS_RL:          Vvel (THERMODYNAMICS) mean= -8.32814592711647E-04
DEBUG_STATS_RL:          Vvel (THERMODYNAMICS) S.D.=  2.72500973832719E-02
DEBUG_STATS_RL:          Wvel (THERMODYNAMICS)  min= -2.69331292767418E-04
DEBUG_STATS_RL:          Wvel (THERMODYNAMICS)  max=  2.12787214548669E-04
DEBUG_STATS_RL:          Wvel (THERMODYNAMICS) mean= -1.88644400162754E-07
DEBUG_STATS_RL:          Wvel (THERMODYNAMICS) S.D.=  8.52140035255912E-06
DEBUG_STATS_RL:         Theta (THERMODYNAMICS)  min=  1.61248096684764E+01
DEBUG_STATS_RL:         Theta (THERMODYNAMICS)  max=  2.21444089540934E+01
DEBUG_STATS_RL:         Theta (THERMODYNAMICS) mean=  1.99995455243517E+01
DEBUG_STATS_RL:         Theta (THERMODYNAMICS) S.D.=  7.18327124744264E-02
DEBUG_STATS_RL:          Salt (THERMODYNAMICS)  min=  2.71080364274664E+01
DEBUG_STATS_RL:          Salt (THERMODYNAMICS)  max=  3.51511308729301E+01
DEBUG_STATS_RL:          Salt (THERMODYNAMICS) mean=  3.49980255832362E+01
DEBUG_STATS_RL:          Salt (THERMODYNAMICS) S.D.=  8.90909164452141E-02
DEBUG_STATS_RL:         GtNm1 (THERMODYNAMICS)  min= -3.09821751975672E-06
DEBUG_STATS_RL:         GtNm1 (THERMODYNAMICS)  max=  1.33537704158635E-05
DEBUG_STATS_RL:         GtNm1 (THERMODYNAMICS) mean=  2.64465462495409E-09
DEBUG_STATS_RL:         GtNm1 (THERMODYNAMICS) S.D.=  1.37657259589251E-07
DEBUG_STATS_RL:         GsNm1 (THERMODYNAMICS)  min= -1.59059358132013E-05
DEBUG_STATS_RL:         GsNm1 (THERMODYNAMICS)  max=  2.11207344268653E-06
DEBUG_STATS_RL:         GsNm1 (THERMODYNAMICS) mean= -4.44327206226219E-09
DEBUG_STATS_RL:         GsNm1 (THERMODYNAMICS) S.D.=  1.98708791975214E-07
(PID.TID 0000.0001) DEBUG_MSG: LEAVING S/R THERMODYNAMICS
(PID.TID 0000.0001) // =======================================================
(PID.TID 0000.0001) // Begin MONITOR dynamic field statistics
(PID.TID 0000.0001) // =======================================================
(PID.TID 0000.0001) %MON time_tsnumber                =                    35
(PID.TID 0000.0001) %MON time_secondsf                =   3.1500000000000E+04
(PID.TID 0000.0001) %MON dynstat_eta_max              =   1.9696926607976E+00
(PID.TID 0000.0001) %MON dynstat_eta_min              =  -1.0726331813596E+00
(PID.TID 0000.0001) %MON dynstat_eta_mean             =   2.7600570256949E-02
(PID.TID 0000.0001) %MON dynstat_eta_sd               =   1.0177466217882E-01
(PID.TID 0000.0001) %MON dynstat_eta_del2             =   2.0738016021128E-03
(PID.TID 0000.0001) %MON dynstat_uvel_max             =   3.8904656067565E-01
(PID.TID 0000.0001) %MON dynstat_uvel_min             =  -9.7721601709031E-01
(PID.TID 0000.0001) %MON dynstat_uvel_mean            =   5.5373164109166E-05
(PID.TID 0000.0001) %MON dynstat_uvel_sd              =   7.1774878997218E-03
(PID.TID 0000.0001) %MON dynstat_uvel_del2            =   9.7988439052361E-05
(PID.TID 0000.0001) %MON dynstat_vvel_max             =   1.1817071601706E+00
(PID.TID 0000.0001) %MON dynstat_vvel_min             =  -1.2083641168936E+00
(PID.TID 0000.0001) %MON dynstat_vvel_mean            =  -1.2807979775386E-05
(PID.TID 0000.0001) %MON dynstat_vvel_sd              =   8.7835821491571E-03
(PID.TID 0000.0001) %MON dynstat_vvel_del2            =   1.5710622403262E-04
(PID.TID 0000.0001) %MON dynstat_wvel_max             =   2.1278721454867E-04
(PID.TID 0000.0001) %MON dynstat_wvel_min             =  -2.6933129276742E-04
(PID.TID 0000.0001) %MON dynstat_wvel_mean            =  -2.9234951496060E-08
(PID.TID 0000.0001) %MON dynstat_wvel_sd              =   7.8664242565404E-06
(PID.TID 0000.0001) %MON dynstat_wvel_del2            =   7.1912653901220E-08
(PID.TID 0000.0001) %MON dynstat_theta_max            =   2.2144408954093E+01
(PID.TID 0000.0001) %MON dynstat_theta_min            =   1.6124809668476E+01
(PID.TID 0000.0001) %MON dynstat_theta_mean           =   1.9997871346711E+01
(PID.TID 0000.0001) %MON dynstat_theta_sd             =   2.4101840060005E-02
(PID.TID 0000.0001) %MON dynstat_theta_del2           =   4.4227819334196E-04
(PID.TID 0000.0001) %MON dynstat_salt_max             =   3.5151130872930E+01
(PID.TID 0000.0001) %MON dynstat_salt_min             =   2.7108036427466E+01
(PID.TID 0000.0001) %MON dynstat_salt_mean            =   3.4999731892091E+01
(PID.TID 0000.0001) %MON dynstat_salt_sd              =   2.7501686675182E-02
(PID.TID 0000.0001) %MON dynstat_salt_del2            =   9.6073721195207E-04
(PID.TID 0000.0001) %MON dynstat_sst_max              =   2.2144408954093E+01
(PID.TID 0000.0001) %MON dynstat_sst_min              =   1.6124809668476E+01
(PID.TID 0000.0001) %MON dynstat_sst_mean             =   2.0085893844053E+01
(PID.TID 0000.0001) %MON dynstat_sst_sd               =   2.1427312760097E-01
(PID.TID 0000.0001) %MON dynstat_sst_del2             =   4.8171875831293E-03
(PID.TID 0000.0001) %MON dynstat_sss_max              =   3.5151130872930E+01
(PID.TID 0000.0001) %MON dynstat_sss_min              =   2.7108036427466E+01
(PID.TID 0000.0001) %MON dynstat_sss_mean             =   3.4976914747893E+01
(PID.TID 0000.0001) %MON dynstat_sss_sd               =   3.3189190095559E-01
(PID.TID 0000.0001) %MON dynstat_sss_del2             =   1.3015557171910E-02
(PID.TID 0000.0001) %MON forcing_qnet_max             =   1.1913862147768E+05
(PID.TID 0000.0001) %MON forcing_qnet_min             =  -5.1630808358267E+03
(PID.TID 0000.0001) %MON forcing_qnet_mean            =  -1.2046446967820E+01
(PID.TID 0000.0001) %MON forcing_qnet_sd              =   2.0599319486678E+03
(PID.TID 0000.0001) %MON forcing_qnet_del2            =   6.6089369276154E+01
(PID.TID 0000.0001) %MON forcing_qsw_max              =   0.0000000000000E+00
(PID.TID 0000.0001) %MON forcing_qsw_min              =  -1.0415797213982E+02
(PID.TID 0000.0001) %MON forcing_qsw_mean             =  -1.5311494646543E+01
(PID.TID 0000.0001) %MON forcing_qsw_sd               =   2.5124328354700E+01
(PID.TID 0000.0001) %MON forcing_qsw_del2             =   2.2634628172698E-01
(PID.TID 0000.0001) %MON forcing_empmr_max            =   7.8002670779824E-03
(PID.TID 0000.0001) %MON forcing_empmr_min            =  -1.1211873590946E-01
(PID.TID 0000.0001) %MON forcing_empmr_mean           =  -4.8371291456144E-04
(PID.TID 0000.0001) %MON forcing_empmr_sd             =   4.9671974552408E-03
(PID.TID 0000.0001) %MON forcing_empmr_del2           =   1.9520104855585E-04
(PID.TID 0000.0001) %MON forcing_fu_max               =   7.1695379947495E-01
(PID.TID 0000.0001) %MON forcing_fu_min               =  -5.7238444818904E-01
(PID.TID 0000.0001) %MON forcing_fu_mean              =  -3.3917664756156E-04
(PID.TID 0000.0001) %MON forcing_fu_sd                =   9.2348343645455E-02
(PID.TID 0000.0001) %MON forcing_fu_del2              =   7.6379017342409E-04
(PID.TID 0000.0001) %MON forcing_fv_max               =   4.9747528931608E-01
(PID.TID 0000.0001) %MON forcing_fv_min               =  -4.3168780258682E-01
(PID.TID 0000.0001) %MON forcing_fv_mean              =  -3.8108631691037E-03
(PID.TID 0000.0001) %MON forcing_fv_sd                =   8.0452068025831E-02
(PID.TID 0000.0001) %MON forcing_fv_del2              =   6.7722739692302E-04
(PID.TID 0000.0001) %MON trAdv_CFL_u_max              =   3.2777591698908E-03
(PID.TID 0000.0001) %MON trAdv_CFL_v_max              =   5.2249969675905E-03
(PID.TID 0000.0001) %MON trAdv_CFL_w_max              =   3.8460194696717E-03
(PID.TID 0000.0001) %MON advcfl_uvel_max              =   3.2587873669977E-03
(PID.TID 0000.0001) %MON advcfl_vvel_max              =   3.9433328886983E-03
(PID.TID 0000.0001) %MON advcfl_wvel_max              =   7.7995642371800E-03
(PID.TID 0000.0001) %MON advcfl_W_hf_max              =   4.4381524551886E-03
(PID.TID 0000.0001) %MON pe_b_mean                    =   1.4813616844025E-05
(PID.TID 0000.0001) %MON ke_max                       =   6.1559414075988E-01
(PID.TID 0000.0001) %MON ke_mean                      =   5.9464035815289E-05
(PID.TID 0000.0001) %MON ke_vol                       =   1.3398123357862E+18
(PID.TID 0000.0001) %MON vort_r_min                   =  -5.0791379939106E-06
(PID.TID 0000.0001) %MON vort_r_max                   =   3.9004261665542E-06
(PID.TID 0000.0001) %MON vort_a_mean                  =  -2.0549865324846E-05
(PID.TID 0000.0001) %MON vort_a_sd                    =   7.5259230546934E-05
(PID.TID 0000.0001) %MON vort_p_mean                  =  -2.4783341082519E-05
(PID.TID 0000.0001) %MON vort_p_sd                    =   1.2810540547245E-04
(PID.TID 0000.0001) %MON surfExpan_theta_mean         =  -9.6862788736646E-07
(PID.TID 0000.0001) %MON surfExpan_salt_mean          =   1.5601781907507E-06
(PID.TID 0000.0001) // =======================================================
(PID.TID 0000.0001) // End MONITOR dynamic field statistics
(PID.TID 0000.0001) // =======================================================
 Computing Diagnostic #     81  oceTAUX      Counter:       1   Parms: UU      U1      
           Vector  Mate for  oceTAUX      Diagnostic #     82  oceTAUY  exists 
(PID.TID 0000.0001)  MDS_WRITE_FIELD: it,rec,kS,kL,kH=      34    -1  32   1   1 file=oceTAUX.0000000034
 Computing Diagnostic #     82  oceTAUY      Counter:       1   Parms: VV      U1      
           Vector  Mate for  oceTAUY      Diagnostic #     81  oceTAUX  exists 
(PID.TID 0000.0001)  MDS_WRITE_FIELD: it,rec,kS,kL,kH=      34    -1  32   1   1 file=oceTAUY.0000000034
 Computing Diagnostic #     85  oceFWflx     Counter:       1   Parms: SM      U1      
(PID.TID 0000.0001)  MDS_WRITE_FIELD: it,rec,kS,kL,kH=      34    -1  32   1   1 file=oceFWflx.0000000034
 Computing Diagnostic #     86  oceSflux     Counter:       1   Parms: SM      U1      
(PID.TID 0000.0001)  MDS_WRITE_FIELD: it,rec,kS,kL,kH=      34    -1  32   1   1 file=oceSflux.0000000034
 Computing Diagnostic #     87  oceQnet      Counter:       1   Parms: SM      U1      
(PID.TID 0000.0001)  MDS_WRITE_FIELD: it,rec,kS,kL,kH=      34    -1  32   1   1 file=oceQnet.0000000034
 Computing Diagnostic #     88  oceQsw       Counter:       1   Parms: SM      U1      
(PID.TID 0000.0001)  MDS_WRITE_FIELD: it,rec,kS,kL,kH=      34    -1  32   1   1 file=oceQsw.0000000034
 Computing Diagnostic #     27  SALT         Counter:       1   Parms: SMR     MR      
(PID.TID 0000.0001)  MDS_WRITE_FIELD: it,rec,kS,kL,kH=      34    -1  32   1   1 file=SSS.0000000034
 Computing Diagnostic #     26  THETA        Counter:       1   Parms: SMR     MR      
(PID.TID 0000.0001)  MDS_WRITE_FIELD: it,rec,kS,kL,kH=      34    -1  32   1   1 file=SST.0000000034
 Computing Diagnostic #     45  UVELMASS     Counter:       1   Parms: UUr     MR      
           Vector  Mate for  UVELMASS     Diagnostic #     46  VVELMASS exists 
(PID.TID 0000.0001)  MDS_WRITE_FIELD: it,rec,kS,kL,kH=      34    -1  32   1   1 file=UVEL1.0000000034
 Computing Diagnostic #     46  VVELMASS     Counter:       1   Parms: VVr     MR      
           Vector  Mate for  VVELMASS     Diagnostic #     45  UVELMASS exists 
(PID.TID 0000.0001)  MDS_WRITE_FIELD: it,rec,kS,kL,kH=      34    -1  32   1   1 file=VVEL1.0000000034
 Computing Diagnostic #     83  atmPload     Counter:       1   Parms: SM      U1      
(PID.TID 0000.0001)  MDS_WRITE_FIELD: it,rec,kS,kL,kH=      34    -1  32   1   1 file=atmPload.0000000034
(PID.TID 0000.0001)  write diagnostics summary to file: diagnostics_status.0000000035.txt
(PID.TID 0000.0001) DEBUG_MSG: LEAVING S/R FORWARD_STEP
(PID.TID 0000.0001) DEBUG_MSG: ENTERED S/R FORWARD_STEP
(PID.TID 0000.0001) DEBUG_MSG: CALLING S/R LOAD_FIELDS_DRIVER
(PID.TID 0000.0001) DEBUG_MSG: ENTERED S/R LOAD_FIELDS_DRIVER
(PID.TID 0000.0001) DEBUG_MSG: CALLING S/R EXTERNAL_FIELDS_LOAD
(PID.TID 0000.0001) DEBUG_MSG: LEAVING S/R LOAD_FIELDS_DRIVER
(PID.TID 0000.0001) DEBUG_MSG: CALLING S/R DO_ATMOSPHERIC_PHYS
(PID.TID 0000.0001) DEBUG_MSG: ENTERED S/R DO_ATMOSPHERIC_PHYS
(PID.TID 0000.0001) DEBUG_MSG: LEAVING S/R DO_ATMOSPHERIC_PHYS
(PID.TID 0000.0001) DEBUG_MSG: CALLING S/R DO_OCEANIC_PHYS
(PID.TID 0000.0001) DEBUG_MSG: ENTERED S/R DO_OCEANIC_PHYS
(PID.TID 0000.0001) DEBUG_MSG: CALLING S/R EXTERNAL_FORCING_SURF
(PID.TID 0000.0001) DEBUG_MSG: CALLING S/R FIND_RHO_2D (xNr)
(PID.TID 0000.0001) DEBUG_MSG:                  ENTERING UPWARD K LOOP (bi=   1, bj=   1)
(PID.TID 0000.0001) DEBUG_MSG: CALLING S/R GRAD_SIGMA
(PID.TID 0000.0001) DEBUG_MSG: CALLING S/R CALC_IVDC
(PID.TID 0000.0001) DEBUG_MSG: CALLING S/R GRAD_SIGMA
(PID.TID 0000.0001) DEBUG_MSG: CALLING S/R CALC_IVDC
(PID.TID 0000.0001) DEBUG_MSG: CALLING S/R GRAD_SIGMA
(PID.TID 0000.0001) DEBUG_MSG: CALLING S/R CALC_IVDC
(PID.TID 0000.0001) DEBUG_MSG: CALLING S/R GRAD_SIGMA
(PID.TID 0000.0001) DEBUG_MSG: CALLING S/R CALC_IVDC
(PID.TID 0000.0001) DEBUG_MSG: CALLING S/R GRAD_SIGMA
(PID.TID 0000.0001) DEBUG_MSG: CALLING S/R CALC_IVDC
(PID.TID 0000.0001) DEBUG_MSG: CALLING S/R GRAD_SIGMA
(PID.TID 0000.0001) DEBUG_MSG: CALLING S/R CALC_IVDC
(PID.TID 0000.0001) DEBUG_MSG: CALLING S/R GRAD_SIGMA
(PID.TID 0000.0001) DEBUG_MSG: CALLING S/R CALC_IVDC
(PID.TID 0000.0001) DEBUG_MSG: CALLING S/R GRAD_SIGMA
(PID.TID 0000.0001) DEBUG_MSG: CALLING S/R CALC_IVDC
(PID.TID 0000.0001) DEBUG_MSG: CALLING S/R GRAD_SIGMA
(PID.TID 0000.0001) DEBUG_MSG: CALLING S/R CALC_IVDC
(PID.TID 0000.0001) DEBUG_MSG: CALLING S/R GRAD_SIGMA
(PID.TID 0000.0001) DEBUG_MSG: CALLING S/R CALC_IVDC
(PID.TID 0000.0001) DEBUG_MSG: CALLING S/R GRAD_SIGMA
(PID.TID 0000.0001) DEBUG_MSG: CALLING S/R CALC_IVDC
(PID.TID 0000.0001) DEBUG_MSG: CALLING S/R GRAD_SIGMA
(PID.TID 0000.0001) DEBUG_MSG: CALLING S/R CALC_IVDC
(PID.TID 0000.0001) DEBUG_MSG: CALLING S/R GRAD_SIGMA
(PID.TID 0000.0001) DEBUG_MSG: CALLING S/R CALC_IVDC
(PID.TID 0000.0001) DEBUG_MSG: CALLING S/R GRAD_SIGMA
(PID.TID 0000.0001) DEBUG_MSG: CALLING S/R CALC_IVDC
(PID.TID 0000.0001) DEBUG_MSG: CALLING S/R GRAD_SIGMA
(PID.TID 0000.0001) DEBUG_MSG: CALLING S/R CALC_IVDC
(PID.TID 0000.0001) DEBUG_MSG: CALLING S/R GRAD_SIGMA
(PID.TID 0000.0001) DEBUG_MSG: CALLING S/R GMREDI_CALC_TENSOR
(PID.TID 0000.0001) DEBUG_MSG: LEAVING S/R DO_OCEANIC_PHYS
(PID.TID 0000.0001) DEBUG_MSG: CALLING S/R DYNAMICS
(PID.TID 0000.0001) DEBUG_MSG: ENTERED S/R DYNAMICS
DEBUG_STATS_RL:                EtaN (DYNAMICS)  min= -1.07263318135961E+00
DEBUG_STATS_RL:                EtaN (DYNAMICS)  max=  1.96969266079756E+00
DEBUG_STATS_RL:                EtaN (DYNAMICS) mean=  2.83062603332241E-02
DEBUG_STATS_RL:                EtaN (DYNAMICS) S.D.=  1.05730838740429E-01
DEBUG_STATS_RL:                Uvel (DYNAMICS)  min= -9.77216017090307E-01
DEBUG_STATS_RL:                Uvel (DYNAMICS)  max=  3.89046560675646E-01
DEBUG_STATS_RL:                Uvel (DYNAMICS) mean= -5.19054913381546E-04
DEBUG_STATS_RL:                Uvel (DYNAMICS) S.D.=  2.20264902975429E-02
DEBUG_STATS_RL:                Vvel (DYNAMICS)  min= -1.20836411689358E+00
DEBUG_STATS_RL:                Vvel (DYNAMICS)  max=  1.18170716017057E+00
DEBUG_STATS_RL:                Vvel (DYNAMICS) mean= -8.32814592711647E-04
DEBUG_STATS_RL:                Vvel (DYNAMICS) S.D.=  2.72500973832719E-02
DEBUG_STATS_RL:                Wvel (DYNAMICS)  min= -2.69331292767418E-04
DEBUG_STATS_RL:                Wvel (DYNAMICS)  max=  2.12787214548669E-04
DEBUG_STATS_RL:                Wvel (DYNAMICS) mean= -1.88644400162754E-07
DEBUG_STATS_RL:                Wvel (DYNAMICS) S.D.=  8.52140035255912E-06
DEBUG_STATS_RL:               Theta (DYNAMICS)  min=  1.61248096684764E+01
DEBUG_STATS_RL:               Theta (DYNAMICS)  max=  2.21444089540934E+01
DEBUG_STATS_RL:               Theta (DYNAMICS) mean=  1.99995455243517E+01
DEBUG_STATS_RL:               Theta (DYNAMICS) S.D.=  7.18327124744264E-02
DEBUG_STATS_RL:                Salt (DYNAMICS)  min=  2.71080364274664E+01
DEBUG_STATS_RL:                Salt (DYNAMICS)  max=  3.51511308729301E+01
DEBUG_STATS_RL:                Salt (DYNAMICS) mean=  3.49980255832362E+01
DEBUG_STATS_RL:                Salt (DYNAMICS) S.D.=  8.90909164452141E-02
DEBUG_STATS_RL:                  Gu (DYNAMICS)  min= -1.00582745301963E+00
DEBUG_STATS_RL:                  Gu (DYNAMICS)  max=  3.88839757132927E-01
DEBUG_STATS_RL:                  Gu (DYNAMICS) mean= -5.70280650129110E-04
DEBUG_STATS_RL:                  Gu (DYNAMICS) S.D.=  2.21215803036234E-02
DEBUG_STATS_RL:                  Gv (DYNAMICS)  min= -1.15638604664888E+00
DEBUG_STATS_RL:                  Gv (DYNAMICS)  max=  1.15444281305053E+00
DEBUG_STATS_RL:                  Gv (DYNAMICS) mean= -8.46636246088748E-04
DEBUG_STATS_RL:                  Gv (DYNAMICS) S.D.=  2.68814774732448E-02
DEBUG_STATS_RL:               GuNm1 (DYNAMICS)  min= -5.61028103933591E-05
DEBUG_STATS_RL:               GuNm1 (DYNAMICS)  max=  2.99872705153276E-05
DEBUG_STATS_RL:               GuNm1 (DYNAMICS) mean= -5.93134366320750E-08
DEBUG_STATS_RL:               GuNm1 (DYNAMICS) S.D.=  1.59608164245206E-06
DEBUG_STATS_RL:               GvNm1 (DYNAMICS)  min= -2.97410087917599E-05
DEBUG_STATS_RL:               GvNm1 (DYNAMICS)  max=  6.21084384486801E-05
DEBUG_STATS_RL:               GvNm1 (DYNAMICS) mean= -1.82372716050808E-08
DEBUG_STATS_RL:               GvNm1 (DYNAMICS) S.D.=  1.46802573828528E-06
DEBUG_STATS_RL:               GtNm1 (DYNAMICS)  min= -3.09821751975672E-06
DEBUG_STATS_RL:               GtNm1 (DYNAMICS)  max=  1.33537704158635E-05
DEBUG_STATS_RL:               GtNm1 (DYNAMICS) mean=  2.64465462495409E-09
DEBUG_STATS_RL:               GtNm1 (DYNAMICS) S.D.=  1.37657259589251E-07
DEBUG_STATS_RL:               GsNm1 (DYNAMICS)  min= -1.59059358132013E-05
DEBUG_STATS_RL:               GsNm1 (DYNAMICS)  max=  2.11207344268653E-06
DEBUG_STATS_RL:               GsNm1 (DYNAMICS) mean= -4.44327206226219E-09
DEBUG_STATS_RL:               GsNm1 (DYNAMICS) S.D.=  1.98708791975214E-07
(PID.TID 0000.0001) DEBUG_MSG: LEAVING S/R DYNAMICS
DEBUG_STATS_RL:    cg2d_b (SOLVE_FOR_PRESSURE)  min= -2.46208467804172E+05
DEBUG_STATS_RL:    cg2d_b (SOLVE_FOR_PRESSURE)  max=  8.79818103405217E+04
DEBUG_STATS_RL:    cg2d_b (SOLVE_FOR_PRESSURE) mean= -2.84730518203528E+03
DEBUG_STATS_RL:    cg2d_b (SOLVE_FOR_PRESSURE) S.D.=  1.03979743699914E+04
 cg2d: Sum(rhs),rhsMax =  -5.11155811042445E+01  4.71650830898245E+01
(PID.TID 0000.0001)  cg2d: iter=     1 ; resid.=  4.46603197140148E-02
(PID.TID 0000.0001)  cg2d: iter=     2 ; resid.=  6.05799434416008E-03
(PID.TID 0000.0001)  cg2d: iter=     3 ; resid.=  1.52963791523621E-03
(PID.TID 0000.0001)  cg2d: iter=     4 ; resid.=  5.23500967041352E-04
(PID.TID 0000.0001)  cg2d: iter=     5 ; resid.=  1.31765734531043E-04
(PID.TID 0000.0001)  cg2d: iter=     6 ; resid.=  3.16176404176205E-05
(PID.TID 0000.0001)  cg2d: iter=     7 ; resid.=  6.74971324651818E-06
(PID.TID 0000.0001)  cg2d: iter=     8 ; resid.=  1.90496843251422E-06
(PID.TID 0000.0001)  cg2d: iter=     9 ; resid.=  5.82896514916395E-07
(PID.TID 0000.0001)  cg2d: iter=    10 ; resid.=  1.63458310856439E-07
(PID.TID 0000.0001)  cg2d: iter=    11 ; resid.=  4.37481746839423E-08
DEBUG_STATS_RL:    cg2d_x (SOLVE_FOR_PRESSURE)  min= -8.42317197618375E+00
DEBUG_STATS_RL:    cg2d_x (SOLVE_FOR_PRESSURE)  max=  2.06706069738445E+01
DEBUG_STATS_RL:    cg2d_x (SOLVE_FOR_PRESSURE) mean=  2.79925489429476E-01
DEBUG_STATS_RL:    cg2d_x (SOLVE_FOR_PRESSURE) S.D.=  1.02110723932321E+00
(PID.TID 0000.0001)      cg2d_init_res =   3.71806323640843E-01
(PID.TID 0000.0001)      cg2d_iters(min,last) =      -1      11
(PID.TID 0000.0001)      cg2d_last_res =   4.37481746839423E-08
(PID.TID 0000.0001) DEBUG_MSG: CALLING S/R UPDATE_ETAH
(PID.TID 0000.0001) DEBUG_MSG: ENTERED S/R CALC_R_STAR
(PID.TID 0000.0001) DEBUG_MSG: LEAVING S/R CALC_R_STAR
(PID.TID 0000.0001) DEBUG_MSG: CALLING S/R DO_STAGGER_FIELDS_EXCH.
(PID.TID 0000.0001) DEBUG_MSG: CALLING S/R THERMODYNAMICS
(PID.TID 0000.0001) DEBUG_MSG: ENTERED S/R THERMODYNAMICS
(PID.TID 0000.0001) DEBUG_MSG: CALLING S/R TEMP_INTEGRATE
(PID.TID 0000.0001) DEBUG_MSG: CALLING S/R SALT_INTEGRATE
DEBUG_STATS_RL:          Uvel (THERMODYNAMICS)  min= -1.01887656624915E+00
DEBUG_STATS_RL:          Uvel (THERMODYNAMICS)  max=  4.02862997041620E-01
DEBUG_STATS_RL:          Uvel (THERMODYNAMICS) mean= -5.76485861284823E-04
DEBUG_STATS_RL:          Uvel (THERMODYNAMICS) S.D.=  2.21464646443724E-02
DEBUG_STATS_RL:          Vvel (THERMODYNAMICS)  min= -1.17277029702308E+00
DEBUG_STATS_RL:          Vvel (THERMODYNAMICS)  max=  1.19067718658028E+00
DEBUG_STATS_RL:          Vvel (THERMODYNAMICS) mean= -8.23613855562121E-04
DEBUG_STATS_RL:          Vvel (THERMODYNAMICS) S.D.=  2.69326568037556E-02
DEBUG_STATS_RL:          Wvel (THERMODYNAMICS)  min= -2.56781490942146E-04
DEBUG_STATS_RL:          Wvel (THERMODYNAMICS)  max=  2.16051179780627E-04
DEBUG_STATS_RL:          Wvel (THERMODYNAMICS) mean= -1.71026625881786E-07
DEBUG_STATS_RL:          Wvel (THERMODYNAMICS) S.D.=  8.45059641979854E-06
DEBUG_STATS_RL:         Theta (THERMODYNAMICS)  min=  1.61320592061957E+01
DEBUG_STATS_RL:         Theta (THERMODYNAMICS)  max=  2.21925838752372E+01
DEBUG_STATS_RL:         Theta (THERMODYNAMICS) mean=  1.99996844863424E+01
DEBUG_STATS_RL:         Theta (THERMODYNAMICS) S.D.=  7.24924135643072E-02
DEBUG_STATS_RL:          Salt (THERMODYNAMICS)  min=  2.69743947725179E+01
DEBUG_STATS_RL:          Salt (THERMODYNAMICS)  max=  3.51511244013392E+01
DEBUG_STATS_RL:          Salt (THERMODYNAMICS) mean=  3.49979885784996E+01
DEBUG_STATS_RL:          Salt (THERMODYNAMICS) S.D.=  9.06501541381875E-02
DEBUG_STATS_RL:         GtNm1 (THERMODYNAMICS)  min= -3.13813924256474E-06
DEBUG_STATS_RL:         GtNm1 (THERMODYNAMICS)  max=  1.32847923623557E-05
DEBUG_STATS_RL:         GtNm1 (THERMODYNAMICS) mean=  2.60014723738795E-09
DEBUG_STATS_RL:         GtNm1 (THERMODYNAMICS) S.D.=  1.37626442331984E-07
DEBUG_STATS_RL:         GsNm1 (THERMODYNAMICS)  min= -1.60050139712132E-05
DEBUG_STATS_RL:         GsNm1 (THERMODYNAMICS)  max=  2.07407703479726E-06
DEBUG_STATS_RL:         GsNm1 (THERMODYNAMICS) mean= -4.47196185888870E-09
DEBUG_STATS_RL:         GsNm1 (THERMODYNAMICS) S.D.=  1.99487898297360E-07
(PID.TID 0000.0001) DEBUG_MSG: LEAVING S/R THERMODYNAMICS
(PID.TID 0000.0001) // =======================================================
(PID.TID 0000.0001) // Begin MONITOR dynamic field statistics
(PID.TID 0000.0001) // =======================================================
(PID.TID 0000.0001) %MON time_tsnumber                =                    36
(PID.TID 0000.0001) %MON time_secondsf                =   3.2400000000000E+04
(PID.TID 0000.0001) %MON dynstat_eta_max              =   2.1070955109654E+00
(PID.TID 0000.0001) %MON dynstat_eta_min              =  -8.5863119154968E-01
(PID.TID 0000.0001) %MON dynstat_eta_mean             =   2.8013997109455E-02
(PID.TID 0000.0001) %MON dynstat_eta_sd               =   1.0014211917832E-01
(PID.TID 0000.0001) %MON dynstat_eta_del2             =   1.9683225406457E-03
(PID.TID 0000.0001) %MON dynstat_uvel_max             =   4.0286299704162E-01
(PID.TID 0000.0001) %MON dynstat_uvel_min             =  -1.0188765662491E+00
(PID.TID 0000.0001) %MON dynstat_uvel_mean            =   2.1786311474168E-05
(PID.TID 0000.0001) %MON dynstat_uvel_sd              =   7.2263888931131E-03
(PID.TID 0000.0001) %MON dynstat_uvel_del2            =   9.8412381361592E-05
(PID.TID 0000.0001) %MON dynstat_vvel_max             =   1.1906771865803E+00
(PID.TID 0000.0001) %MON dynstat_vvel_min             =  -1.1727702970231E+00
(PID.TID 0000.0001) %MON dynstat_vvel_mean            =   1.2815811502579E-05
(PID.TID 0000.0001) %MON dynstat_vvel_sd              =   8.6688654478667E-03
(PID.TID 0000.0001) %MON dynstat_vvel_del2            =   1.5599890452326E-04
(PID.TID 0000.0001) %MON dynstat_wvel_max             =   2.1605117978063E-04
(PID.TID 0000.0001) %MON dynstat_wvel_min             =  -2.5678149094215E-04
(PID.TID 0000.0001) %MON dynstat_wvel_mean            =  -1.0758823291138E-08
(PID.TID 0000.0001) %MON dynstat_wvel_sd              =   7.7818763399785E-06
(PID.TID 0000.0001) %MON dynstat_wvel_del2            =   7.1680855810001E-08
(PID.TID 0000.0001) %MON dynstat_theta_max            =   2.2192583875237E+01
(PID.TID 0000.0001) %MON dynstat_theta_min            =   1.6132059206196E+01
(PID.TID 0000.0001) %MON dynstat_theta_mean           =   1.9997873692575E+01
(PID.TID 0000.0001) %MON dynstat_theta_sd             =   2.4313625864142E-02
(PID.TID 0000.0001) %MON dynstat_theta_del2           =   4.4510573479591E-04
(PID.TID 0000.0001) %MON dynstat_salt_max             =   3.5151124401339E+01
(PID.TID 0000.0001) %MON dynstat_salt_min             =   2.6974394772518E+01
(PID.TID 0000.0001) %MON dynstat_salt_mean            =   3.4999727694160E+01
(PID.TID 0000.0001) %MON dynstat_salt_sd              =   2.7981093798293E-02
(PID.TID 0000.0001) %MON dynstat_salt_del2            =   9.7714860611218E-04
(PID.TID 0000.0001) %MON dynstat_sst_max              =   2.2192583875237E+01
(PID.TID 0000.0001) %MON dynstat_sst_min              =   1.6132059206196E+01
(PID.TID 0000.0001) %MON dynstat_sst_mean             =   2.0087947454930E+01
(PID.TID 0000.0001) %MON dynstat_sst_sd               =   2.1668107837249E-01
(PID.TID 0000.0001) %MON dynstat_sst_del2             =   4.8647654294921E-03
(PID.TID 0000.0001) %MON dynstat_sss_max              =   3.5151124401339E+01
(PID.TID 0000.0001) %MON dynstat_sss_min              =   2.6974394772518E+01
(PID.TID 0000.0001) %MON dynstat_sss_mean             =   3.4976455519744E+01
(PID.TID 0000.0001) %MON dynstat_sss_sd               =   3.3769196349274E-01
(PID.TID 0000.0001) %MON dynstat_sss_del2             =   1.3237626114564E-02
(PID.TID 0000.0001) %MON forcing_qnet_max             =   4.3037798333030E+03
(PID.TID 0000.0001) %MON forcing_qnet_min             =  -5.0876134404700E+03
(PID.TID 0000.0001) %MON forcing_qnet_mean            =  -3.8445338620707E+01
(PID.TID 0000.0001) %MON forcing_qnet_sd              =   5.8862397558141E+02
(PID.TID 0000.0001) %MON forcing_qnet_del2            =   9.4294450692182E+00
(PID.TID 0000.0001) %MON forcing_qsw_max              =   0.0000000000000E+00
(PID.TID 0000.0001) %MON forcing_qsw_min              =  -1.0527598239854E+02
(PID.TID 0000.0001) %MON forcing_qsw_mean             =  -1.5062490705010E+01
(PID.TID 0000.0001) %MON forcing_qsw_sd               =   2.5143501597297E+01
(PID.TID 0000.0001) %MON forcing_qsw_del2             =   2.2198039708296E-01
(PID.TID 0000.0001) %MON forcing_empmr_max            =   7.7197728678584E-03
(PID.TID 0000.0001) %MON forcing_empmr_min            =  -1.1096331477165E-01
(PID.TID 0000.0001) %MON forcing_empmr_mean           =  -4.7544088038188E-04
(PID.TID 0000.0001) %MON forcing_empmr_sd             =   4.9031444171626E-03
(PID.TID 0000.0001) %MON forcing_empmr_del2           =   1.9284238766277E-04
(PID.TID 0000.0001) %MON forcing_fu_max               =   7.0753778028922E-01
(PID.TID 0000.0001) %MON forcing_fu_min               =  -5.6898844571177E-01
(PID.TID 0000.0001) %MON forcing_fu_mean              =  -4.2727572448965E-04
(PID.TID 0000.0001) %MON forcing_fu_sd                =   9.1822091290782E-02
(PID.TID 0000.0001) %MON forcing_fu_del2              =   7.6123981552813E-04
(PID.TID 0000.0001) %MON forcing_fv_max               =   4.9621591316711E-01
(PID.TID 0000.0001) %MON forcing_fv_min               =  -4.2665944136579E-01
(PID.TID 0000.0001) %MON forcing_fv_mean              =  -3.9355405749804E-03
(PID.TID 0000.0001) %MON forcing_fv_sd                =   8.0424411079746E-02
(PID.TID 0000.0001) %MON forcing_fv_del2              =   6.7505644785282E-04
(PID.TID 0000.0001) %MON trAdv_CFL_u_max              =   3.4301364719745E-03
(PID.TID 0000.0001) %MON trAdv_CFL_v_max              =   5.0695458179597E-03
(PID.TID 0000.0001) %MON trAdv_CFL_w_max              =   3.7604384042188E-03
(PID.TID 0000.0001) %MON advcfl_uvel_max              =   3.3977155762439E-03
(PID.TID 0000.0001) %MON advcfl_vvel_max              =   3.8271772708945E-03
(PID.TID 0000.0001) %MON advcfl_wvel_max              =   7.7191871145497E-03
(PID.TID 0000.0001) %MON advcfl_W_hf_max              =   4.2470775882129E-03
(PID.TID 0000.0001) %MON pe_b_mean                    =   1.4405110044112E-05
(PID.TID 0000.0001) %MON ke_max                       =   6.1220370706057E-01
(PID.TID 0000.0001) %MON ke_mean                      =   5.8857473200298E-05
(PID.TID 0000.0001) %MON ke_vol                       =   1.3398124888442E+18
(PID.TID 0000.0001) %MON vort_r_min                   =  -4.8512178856125E-06
(PID.TID 0000.0001) %MON vort_r_max                   =   3.9300332696524E-06
(PID.TID 0000.0001) %MON vort_a_mean                  =  -2.0549865324846E-05
(PID.TID 0000.0001) %MON vort_a_sd                    =   7.5259237286218E-05
(PID.TID 0000.0001) %MON vort_p_mean                  =  -2.4783338681944E-05
(PID.TID 0000.0001) %MON vort_p_sd                    =   1.2810543743907E-04
(PID.TID 0000.0001) %MON surfExpan_theta_mean         =  -9.5408812597082E-07
(PID.TID 0000.0001) %MON surfExpan_salt_mean          =   1.5669093163841E-06
(PID.TID 0000.0001) // =======================================================
(PID.TID 0000.0001) // End MONITOR dynamic field statistics
(PID.TID 0000.0001) // =======================================================
(PID.TID 0000.0001) DEBUG_MSG: LEAVING S/R FORWARD_STEP
(PID.TID 0000.0001) DEBUG_MSG: ENTERED S/R FORWARD_STEP
(PID.TID 0000.0001) DEBUG_MSG: CALLING S/R LOAD_FIELDS_DRIVER
(PID.TID 0000.0001) DEBUG_MSG: ENTERED S/R LOAD_FIELDS_DRIVER
(PID.TID 0000.0001) DEBUG_MSG: CALLING S/R EXTERNAL_FIELDS_LOAD
(PID.TID 0000.0001) DEBUG_MSG: LEAVING S/R LOAD_FIELDS_DRIVER
(PID.TID 0000.0001) DEBUG_MSG: CALLING S/R DO_ATMOSPHERIC_PHYS
(PID.TID 0000.0001) DEBUG_MSG: ENTERED S/R DO_ATMOSPHERIC_PHYS
(PID.TID 0000.0001) DEBUG_MSG: LEAVING S/R DO_ATMOSPHERIC_PHYS
(PID.TID 0000.0001) DEBUG_MSG: CALLING S/R DO_OCEANIC_PHYS
(PID.TID 0000.0001) DEBUG_MSG: ENTERED S/R DO_OCEANIC_PHYS
(PID.TID 0000.0001) DEBUG_MSG: CALLING S/R EXTERNAL_FORCING_SURF
(PID.TID 0000.0001) DEBUG_MSG: CALLING S/R FIND_RHO_2D (xNr)
(PID.TID 0000.0001) DEBUG_MSG:                  ENTERING UPWARD K LOOP (bi=   1, bj=   1)
(PID.TID 0000.0001) DEBUG_MSG: CALLING S/R GRAD_SIGMA
(PID.TID 0000.0001) DEBUG_MSG: CALLING S/R CALC_IVDC
(PID.TID 0000.0001) DEBUG_MSG: CALLING S/R GRAD_SIGMA
(PID.TID 0000.0001) DEBUG_MSG: CALLING S/R CALC_IVDC
(PID.TID 0000.0001) DEBUG_MSG: CALLING S/R GRAD_SIGMA
(PID.TID 0000.0001) DEBUG_MSG: CALLING S/R CALC_IVDC
(PID.TID 0000.0001) DEBUG_MSG: CALLING S/R GRAD_SIGMA
(PID.TID 0000.0001) DEBUG_MSG: CALLING S/R CALC_IVDC
(PID.TID 0000.0001) DEBUG_MSG: CALLING S/R GRAD_SIGMA
(PID.TID 0000.0001) DEBUG_MSG: CALLING S/R CALC_IVDC
(PID.TID 0000.0001) DEBUG_MSG: CALLING S/R GRAD_SIGMA
(PID.TID 0000.0001) DEBUG_MSG: CALLING S/R CALC_IVDC
(PID.TID 0000.0001) DEBUG_MSG: CALLING S/R GRAD_SIGMA
(PID.TID 0000.0001) DEBUG_MSG: CALLING S/R CALC_IVDC
(PID.TID 0000.0001) DEBUG_MSG: CALLING S/R GRAD_SIGMA
(PID.TID 0000.0001) DEBUG_MSG: CALLING S/R CALC_IVDC
(PID.TID 0000.0001) DEBUG_MSG: CALLING S/R GRAD_SIGMA
(PID.TID 0000.0001) DEBUG_MSG: CALLING S/R CALC_IVDC
(PID.TID 0000.0001) DEBUG_MSG: CALLING S/R GRAD_SIGMA
(PID.TID 0000.0001) DEBUG_MSG: CALLING S/R CALC_IVDC
(PID.TID 0000.0001) DEBUG_MSG: CALLING S/R GRAD_SIGMA
(PID.TID 0000.0001) DEBUG_MSG: CALLING S/R CALC_IVDC
(PID.TID 0000.0001) DEBUG_MSG: CALLING S/R GRAD_SIGMA
(PID.TID 0000.0001) DEBUG_MSG: CALLING S/R CALC_IVDC
(PID.TID 0000.0001) DEBUG_MSG: CALLING S/R GRAD_SIGMA
(PID.TID 0000.0001) DEBUG_MSG: CALLING S/R CALC_IVDC
(PID.TID 0000.0001) DEBUG_MSG: CALLING S/R GRAD_SIGMA
(PID.TID 0000.0001) DEBUG_MSG: CALLING S/R CALC_IVDC
(PID.TID 0000.0001) DEBUG_MSG: CALLING S/R GRAD_SIGMA
(PID.TID 0000.0001) DEBUG_MSG: CALLING S/R CALC_IVDC
(PID.TID 0000.0001) DEBUG_MSG: CALLING S/R GRAD_SIGMA
(PID.TID 0000.0001) DEBUG_MSG: CALLING S/R GMREDI_CALC_TENSOR
(PID.TID 0000.0001) DEBUG_MSG: LEAVING S/R DO_OCEANIC_PHYS
(PID.TID 0000.0001) DEBUG_MSG: CALLING S/R DYNAMICS
(PID.TID 0000.0001) DEBUG_MSG: ENTERED S/R DYNAMICS
DEBUG_STATS_RL:                EtaN (DYNAMICS)  min= -8.58631191549679E-01
DEBUG_STATS_RL:                EtaN (DYNAMICS)  max=  2.10709551096535E+00
DEBUG_STATS_RL:                EtaN (DYNAMICS) mean=  2.85347082601879E-02
DEBUG_STATS_RL:                EtaN (DYNAMICS) S.D.=  1.04088403645936E-01
DEBUG_STATS_RL:                Uvel (DYNAMICS)  min= -1.01887656624915E+00
DEBUG_STATS_RL:                Uvel (DYNAMICS)  max=  4.02862997041620E-01
DEBUG_STATS_RL:                Uvel (DYNAMICS) mean= -5.76485861284823E-04
DEBUG_STATS_RL:                Uvel (DYNAMICS) S.D.=  2.21464646443724E-02
DEBUG_STATS_RL:                Vvel (DYNAMICS)  min= -1.17277029702308E+00
DEBUG_STATS_RL:                Vvel (DYNAMICS)  max=  1.19067718658028E+00
DEBUG_STATS_RL:                Vvel (DYNAMICS) mean= -8.23613855562121E-04
DEBUG_STATS_RL:                Vvel (DYNAMICS) S.D.=  2.69326568037556E-02
DEBUG_STATS_RL:                Wvel (DYNAMICS)  min= -2.56781490942146E-04
DEBUG_STATS_RL:                Wvel (DYNAMICS)  max=  2.16051179780627E-04
DEBUG_STATS_RL:                Wvel (DYNAMICS) mean= -1.71026625881786E-07
DEBUG_STATS_RL:                Wvel (DYNAMICS) S.D.=  8.45059641979854E-06
DEBUG_STATS_RL:               Theta (DYNAMICS)  min=  1.61320592061957E+01
DEBUG_STATS_RL:               Theta (DYNAMICS)  max=  2.21925838752372E+01
DEBUG_STATS_RL:               Theta (DYNAMICS) mean=  1.99996844863424E+01
DEBUG_STATS_RL:               Theta (DYNAMICS) S.D.=  7.24924135643072E-02
DEBUG_STATS_RL:                Salt (DYNAMICS)  min=  2.69743947725179E+01
DEBUG_STATS_RL:                Salt (DYNAMICS)  max=  3.51511244013392E+01
DEBUG_STATS_RL:                Salt (DYNAMICS) mean=  3.49979885784996E+01
DEBUG_STATS_RL:                Salt (DYNAMICS) S.D.=  9.06501541381875E-02
DEBUG_STATS_RL:                  Gu (DYNAMICS)  min= -1.04286370350525E+00
DEBUG_STATS_RL:                  Gu (DYNAMICS)  max=  3.88248823559453E-01
DEBUG_STATS_RL:                  Gu (DYNAMICS) mean= -6.24380450492963E-04
DEBUG_STATS_RL:                  Gu (DYNAMICS) S.D.=  2.22264524709382E-02
DEBUG_STATS_RL:                  Gv (DYNAMICS)  min= -1.11888199256651E+00
DEBUG_STATS_RL:                  Gv (DYNAMICS)  max=  1.16450677549232E+00
DEBUG_STATS_RL:                  Gv (DYNAMICS) mean= -8.34538831474071E-04
DEBUG_STATS_RL:                  Gv (DYNAMICS) S.D.=  2.65344388373590E-02
DEBUG_STATS_RL:               GuNm1 (DYNAMICS)  min= -5.21114262077818E-05
DEBUG_STATS_RL:               GuNm1 (DYNAMICS)  max=  2.98417011593737E-05
DEBUG_STATS_RL:               GuNm1 (DYNAMICS) mean= -5.58549000723837E-08
DEBUG_STATS_RL:               GuNm1 (DYNAMICS) S.D.=  1.56018526863243E-06
DEBUG_STATS_RL:               GvNm1 (DYNAMICS)  min= -2.89017752465568E-05
DEBUG_STATS_RL:               GvNm1 (DYNAMICS)  max=  6.42332180595346E-05
DEBUG_STATS_RL:               GvNm1 (DYNAMICS) mean= -1.48208779979687E-08
DEBUG_STATS_RL:               GvNm1 (DYNAMICS) S.D.=  1.49037086247466E-06
DEBUG_STATS_RL:               GtNm1 (DYNAMICS)  min= -3.13813924256474E-06
DEBUG_STATS_RL:               GtNm1 (DYNAMICS)  max=  1.32847923623557E-05
DEBUG_STATS_RL:               GtNm1 (DYNAMICS) mean=  2.60014723738795E-09
DEBUG_STATS_RL:               GtNm1 (DYNAMICS) S.D.=  1.37626442331984E-07
DEBUG_STATS_RL:               GsNm1 (DYNAMICS)  min= -1.60050139712132E-05
DEBUG_STATS_RL:               GsNm1 (DYNAMICS)  max=  2.07407703479726E-06
DEBUG_STATS_RL:               GsNm1 (DYNAMICS) mean= -4.47196185888870E-09
DEBUG_STATS_RL:               GsNm1 (DYNAMICS) S.D.=  1.99487898297360E-07
(PID.TID 0000.0001) DEBUG_MSG: LEAVING S/R DYNAMICS
DEBUG_STATS_RL:    cg2d_b (SOLVE_FOR_PRESSURE)  min= -2.61841979500710E+05
DEBUG_STATS_RL:    cg2d_b (SOLVE_FOR_PRESSURE)  max=  8.07076653194900E+04
DEBUG_STATS_RL:    cg2d_b (SOLVE_FOR_PRESSURE) mean= -2.88903175971690E+03
DEBUG_STATS_RL:    cg2d_b (SOLVE_FOR_PRESSURE) S.D.=  1.02953135250481E+04
 cg2d: Sum(rhs),rhsMax =  -4.87680409470554E+01  5.01599267876434E+01
(PID.TID 0000.0001)  cg2d: iter=     1 ; resid.=  4.04602493073924E-02
(PID.TID 0000.0001)  cg2d: iter=     2 ; resid.=  5.36993073241225E-03
(PID.TID 0000.0001)  cg2d: iter=     3 ; resid.=  1.33991809382352E-03
(PID.TID 0000.0001)  cg2d: iter=     4 ; resid.=  4.57193410513428E-04
(PID.TID 0000.0001)  cg2d: iter=     5 ; resid.=  1.18259085247465E-04
(PID.TID 0000.0001)  cg2d: iter=     6 ; resid.=  2.85244093371906E-05
(PID.TID 0000.0001)  cg2d: iter=     7 ; resid.=  6.10578585067230E-06
(PID.TID 0000.0001)  cg2d: iter=     8 ; resid.=  1.62430946663738E-06
(PID.TID 0000.0001)  cg2d: iter=     9 ; resid.=  5.22068503502037E-07
(PID.TID 0000.0001)  cg2d: iter=    10 ; resid.=  1.45178882578161E-07
(PID.TID 0000.0001)  cg2d: iter=    11 ; resid.=  3.64453315777672E-08
DEBUG_STATS_RL:    cg2d_x (SOLVE_FOR_PRESSURE)  min= -7.64061360454034E+00
DEBUG_STATS_RL:    cg2d_x (SOLVE_FOR_PRESSURE)  max=  2.19737929050516E+01
DEBUG_STATS_RL:    cg2d_x (SOLVE_FOR_PRESSURE) mean=  2.82290540630114E-01
DEBUG_STATS_RL:    cg2d_x (SOLVE_FOR_PRESSURE) S.D.=  1.01106703903190E+00
(PID.TID 0000.0001)      cg2d_init_res =   3.43218618158835E-01
(PID.TID 0000.0001)      cg2d_iters(min,last) =      -1      11
(PID.TID 0000.0001)      cg2d_last_res =   3.64453315777672E-08
(PID.TID 0000.0001) DEBUG_MSG: CALLING S/R UPDATE_ETAH
(PID.TID 0000.0001) DEBUG_MSG: ENTERED S/R CALC_R_STAR
(PID.TID 0000.0001) DEBUG_MSG: LEAVING S/R CALC_R_STAR
(PID.TID 0000.0001) DEBUG_MSG: CALLING S/R DO_STAGGER_FIELDS_EXCH.
(PID.TID 0000.0001) DEBUG_MSG: CALLING S/R THERMODYNAMICS
(PID.TID 0000.0001) DEBUG_MSG: ENTERED S/R THERMODYNAMICS
(PID.TID 0000.0001) DEBUG_MSG: CALLING S/R TEMP_INTEGRATE
(PID.TID 0000.0001) DEBUG_MSG: CALLING S/R SALT_INTEGRATE
DEBUG_STATS_RL:          Uvel (THERMODYNAMICS)  min= -1.03995048588433E+00
DEBUG_STATS_RL:          Uvel (THERMODYNAMICS)  max=  4.15253721870816E-01
DEBUG_STATS_RL:          Uvel (THERMODYNAMICS) mean= -6.27258497535069E-04
DEBUG_STATS_RL:          Uvel (THERMODYNAMICS) S.D.=  2.22123953271729E-02
DEBUG_STATS_RL:          Vvel (THERMODYNAMICS)  min= -1.12005219902817E+00
DEBUG_STATS_RL:          Vvel (THERMODYNAMICS)  max=  1.18442160055796E+00
DEBUG_STATS_RL:          Vvel (THERMODYNAMICS) mean= -8.12148671416102E-04
DEBUG_STATS_RL:          Vvel (THERMODYNAMICS) S.D.=  2.65343719720121E-02
DEBUG_STATS_RL:          Wvel (THERMODYNAMICS)  min= -2.46716644315438E-04
DEBUG_STATS_RL:          Wvel (THERMODYNAMICS)  max=  2.17280238343110E-04
DEBUG_STATS_RL:          Wvel (THERMODYNAMICS) mean= -1.59991449213864E-07
DEBUG_STATS_RL:          Wvel (THERMODYNAMICS) S.D.=  8.39126697214913E-06
DEBUG_STATS_RL:         Theta (THERMODYNAMICS)  min=  1.61391876068534E+01
DEBUG_STATS_RL:         Theta (THERMODYNAMICS)  max=  2.22401270170564E+01
DEBUG_STATS_RL:         Theta (THERMODYNAMICS) mean=  1.99998190724655E+01
DEBUG_STATS_RL:         Theta (THERMODYNAMICS) S.D.=  7.31427278446170E-02
DEBUG_STATS_RL:          Salt (THERMODYNAMICS)  min=  2.68441445318243E+01
DEBUG_STATS_RL:          Salt (THERMODYNAMICS)  max=  3.51511190746472E+01
DEBUG_STATS_RL:          Salt (THERMODYNAMICS) mean=  3.49979519520077E+01
DEBUG_STATS_RL:          Salt (THERMODYNAMICS) S.D.=  9.21717032444544E-02
DEBUG_STATS_RL:         GtNm1 (THERMODYNAMICS)  min= -3.16879446720350E-06
DEBUG_STATS_RL:         GtNm1 (THERMODYNAMICS)  max=  1.30293989238284E-05
DEBUG_STATS_RL:         GtNm1 (THERMODYNAMICS) mean=  2.52795971252224E-09
DEBUG_STATS_RL:         GtNm1 (THERMODYNAMICS) S.D.=  1.36214431004540E-07
DEBUG_STATS_RL:         GsNm1 (THERMODYNAMICS)  min= -1.60915163513133E-05
DEBUG_STATS_RL:         GsNm1 (THERMODYNAMICS)  max=  2.03697154063155E-06
DEBUG_STATS_RL:         GsNm1 (THERMODYNAMICS) mean= -4.49305455978438E-09
DEBUG_STATS_RL:         GsNm1 (THERMODYNAMICS) S.D.=  1.99960807779410E-07
(PID.TID 0000.0001) DEBUG_MSG: LEAVING S/R THERMODYNAMICS
(PID.TID 0000.0001) // =======================================================
(PID.TID 0000.0001) // Begin MONITOR dynamic field statistics
(PID.TID 0000.0001) // =======================================================
(PID.TID 0000.0001) %MON time_tsnumber                =                    37
(PID.TID 0000.0001) %MON time_secondsf                =   3.3300000000000E+04
(PID.TID 0000.0001) %MON dynstat_eta_max              =   2.2399381135023E+00
(PID.TID 0000.0001) %MON dynstat_eta_min              =  -7.7885969584439E-01
(PID.TID 0000.0001) %MON dynstat_eta_mean             =   2.8424535549077E-02
(PID.TID 0000.0001) %MON dynstat_eta_sd               =   9.9121819940094E-02
(PID.TID 0000.0001) %MON dynstat_eta_del2             =   1.9006126736248E-03
(PID.TID 0000.0001) %MON dynstat_uvel_max             =   4.1525372187082E-01
(PID.TID 0000.0001) %MON dynstat_uvel_min             =  -1.0399504858843E+00
(PID.TID 0000.0001) %MON dynstat_uvel_mean            =  -9.7833114470536E-06
(PID.TID 0000.0001) %MON dynstat_uvel_sd              =   7.2622987029752E-03
(PID.TID 0000.0001) %MON dynstat_uvel_del2            =   9.8607942417037E-05
(PID.TID 0000.0001) %MON dynstat_vvel_max             =   1.1844216005580E+00
(PID.TID 0000.0001) %MON dynstat_vvel_min             =  -1.1200521990282E+00
(PID.TID 0000.0001) %MON dynstat_vvel_mean            =   4.2791360700435E-05
(PID.TID 0000.0001) %MON dynstat_vvel_sd              =   8.5338173984194E-03
(PID.TID 0000.0001) %MON dynstat_vvel_del2            =   1.5396084628501E-04
(PID.TID 0000.0001) %MON dynstat_wvel_max             =   2.1728023834311E-04
(PID.TID 0000.0001) %MON dynstat_wvel_min             =  -2.4671664431544E-04
(PID.TID 0000.0001) %MON dynstat_wvel_mean            =  -5.3764581350922E-11
(PID.TID 0000.0001) %MON dynstat_wvel_sd              =   7.7136464797514E-06
(PID.TID 0000.0001) %MON dynstat_wvel_del2            =   7.1574403669095E-08
(PID.TID 0000.0001) %MON dynstat_theta_max            =   2.2240127017056E+01
(PID.TID 0000.0001) %MON dynstat_theta_min            =   1.6139187606853E+01
(PID.TID 0000.0001) %MON dynstat_theta_mean           =   1.9997875716023E+01
(PID.TID 0000.0001) %MON dynstat_theta_sd             =   2.4522636718413E-02
(PID.TID 0000.0001) %MON dynstat_theta_del2           =   4.4797629620790E-04
(PID.TID 0000.0001) %MON dynstat_salt_max             =   3.5151119074647E+01
(PID.TID 0000.0001) %MON dynstat_salt_min             =   2.6844144531824E+01
(PID.TID 0000.0001) %MON dynstat_salt_mean            =   3.4999723519161E+01
(PID.TID 0000.0001) %MON dynstat_salt_sd              =   2.8448971093050E-02
(PID.TID 0000.0001) %MON dynstat_salt_del2            =   9.9314632610722E-04
(PID.TID 0000.0001) %MON dynstat_sst_max              =   2.2240127017056E+01
(PID.TID 0000.0001) %MON dynstat_sst_min              =   1.6139187606853E+01
(PID.TID 0000.0001) %MON dynstat_sst_mean             =   2.0089928766234E+01
(PID.TID 0000.0001) %MON dynstat_sst_sd               =   2.1907446794781E-01
(PID.TID 0000.0001) %MON dynstat_sst_del2             =   4.9123195448651E-03
(PID.TID 0000.0001) %MON dynstat_sss_max              =   3.5151119074647E+01
(PID.TID 0000.0001) %MON dynstat_sss_min              =   2.6844144531824E+01
(PID.TID 0000.0001) %MON dynstat_sss_mean             =   3.4975995133330E+01
(PID.TID 0000.0001) %MON dynstat_sss_sd               =   3.4335044410090E-01
(PID.TID 0000.0001) %MON dynstat_sss_del2             =   1.3454053397109E-02
(PID.TID 0000.0001) %MON forcing_qnet_max             =   8.0791943359375E+03
(PID.TID 0000.0001) %MON forcing_qnet_min             =  -5.0127519102134E+03
(PID.TID 0000.0001) %MON forcing_qnet_mean            =  -3.3028944430053E+01
(PID.TID 0000.0001) %MON forcing_qnet_sd              =   5.8996846072935E+02
(PID.TID 0000.0001) %MON forcing_qnet_del2            =   9.3900714582629E+00
(PID.TID 0000.0001) %MON forcing_qsw_max              =   0.0000000000000E+00
(PID.TID 0000.0001) %MON forcing_qsw_min              =  -1.0802701106520E+02
(PID.TID 0000.0001) %MON forcing_qsw_mean             =  -1.4656076240181E+01
(PID.TID 0000.0001) %MON forcing_qsw_sd               =   2.5427385342150E+01
(PID.TID 0000.0001) %MON forcing_qsw_del2             =   2.1232668456205E-01
(PID.TID 0000.0001) %MON forcing_empmr_max            =   7.6402621343732E-03
(PID.TID 0000.0001) %MON forcing_empmr_min            =  -1.0982047766447E-01
(PID.TID 0000.0001) %MON forcing_empmr_mean           =  -4.7211920556527E-04
(PID.TID 0000.0001) %MON forcing_empmr_sd             =   4.8530399459239E-03
(PID.TID 0000.0001) %MON forcing_empmr_del2           =   1.9085276621595E-04
(PID.TID 0000.0001) %MON forcing_fu_max               =   6.9641126923016E-01
(PID.TID 0000.0001) %MON forcing_fu_min               =  -5.6950851303509E-01
(PID.TID 0000.0001) %MON forcing_fu_mean              =  -5.5057247653906E-04
(PID.TID 0000.0001) %MON forcing_fu_sd                =   9.1324997723426E-02
(PID.TID 0000.0001) %MON forcing_fu_del2              =   7.5921483907599E-04
(PID.TID 0000.0001) %MON forcing_fv_max               =   4.9451563191742E-01
(PID.TID 0000.0001) %MON forcing_fv_min               =  -4.2104363105239E-01
(PID.TID 0000.0001) %MON forcing_fv_mean              =  -4.0800214760289E-03
(PID.TID 0000.0001) %MON forcing_fv_sd                =   8.0406324898000E-02
(PID.TID 0000.0001) %MON forcing_fv_del2              =   6.7315506764884E-04
(PID.TID 0000.0001) %MON trAdv_CFL_u_max              =   3.5141410423912E-03
(PID.TID 0000.0001) %MON trAdv_CFL_v_max              =   4.8559028440573E-03
(PID.TID 0000.0001) %MON trAdv_CFL_w_max              =   3.6712047324543E-03
(PID.TID 0000.0001) %MON advcfl_uvel_max              =   3.4679921802692E-03
(PID.TID 0000.0001) %MON advcfl_vvel_max              =   3.6551388871436E-03
(PID.TID 0000.0001) %MON advcfl_wvel_max              =   7.6396854027458E-03
(PID.TID 0000.0001) %MON advcfl_W_hf_max              =   3.9775611481194E-03
(PID.TID 0000.0001) %MON pe_b_mean                    =   1.4165132270920E-05
(PID.TID 0000.0001) %MON ke_max                       =   5.8972847503098E-01
(PID.TID 0000.0001) %MON ke_mean                      =   5.8019150832531E-05
(PID.TID 0000.0001) %MON ke_vol                       =   1.3398126392848E+18
(PID.TID 0000.0001) %MON vort_r_min                   =  -4.5831040751831E-06
(PID.TID 0000.0001) %MON vort_r_max                   =   3.9093856403319E-06
(PID.TID 0000.0001) %MON vort_a_mean                  =  -2.0549865324846E-05
(PID.TID 0000.0001) %MON vort_a_sd                    =   7.5259245488274E-05
(PID.TID 0000.0001) %MON vort_p_mean                  =  -2.4783336373210E-05
(PID.TID 0000.0001) %MON vort_p_sd                    =   1.2810547118279E-04
(PID.TID 0000.0001) %MON surfExpan_theta_mean         =  -9.2864270157649E-07
(PID.TID 0000.0001) %MON surfExpan_salt_mean          =   1.5718544162982E-06
(PID.TID 0000.0001) // =======================================================
(PID.TID 0000.0001) // End MONITOR dynamic field statistics
(PID.TID 0000.0001) // =======================================================
(PID.TID 0000.0001) DEBUG_MSG: LEAVING S/R FORWARD_STEP
(PID.TID 0000.0001) DEBUG_MSG: ENTERED S/R FORWARD_STEP
(PID.TID 0000.0001) DEBUG_MSG: CALLING S/R LOAD_FIELDS_DRIVER
(PID.TID 0000.0001) DEBUG_MSG: ENTERED S/R LOAD_FIELDS_DRIVER
(PID.TID 0000.0001) DEBUG_MSG: CALLING S/R EXTERNAL_FIELDS_LOAD
(PID.TID 0000.0001) DEBUG_MSG: LEAVING S/R LOAD_FIELDS_DRIVER
(PID.TID 0000.0001) DEBUG_MSG: CALLING S/R DO_ATMOSPHERIC_PHYS
(PID.TID 0000.0001) DEBUG_MSG: ENTERED S/R DO_ATMOSPHERIC_PHYS
(PID.TID 0000.0001) DEBUG_MSG: LEAVING S/R DO_ATMOSPHERIC_PHYS
(PID.TID 0000.0001) DEBUG_MSG: CALLING S/R DO_OCEANIC_PHYS
(PID.TID 0000.0001) DEBUG_MSG: ENTERED S/R DO_OCEANIC_PHYS
(PID.TID 0000.0001) DEBUG_MSG: CALLING S/R EXTERNAL_FORCING_SURF
(PID.TID 0000.0001) DEBUG_MSG: CALLING S/R FIND_RHO_2D (xNr)
(PID.TID 0000.0001) DEBUG_MSG:                  ENTERING UPWARD K LOOP (bi=   1, bj=   1)
(PID.TID 0000.0001) DEBUG_MSG: CALLING S/R GRAD_SIGMA
(PID.TID 0000.0001) DEBUG_MSG: CALLING S/R CALC_IVDC
(PID.TID 0000.0001) DEBUG_MSG: CALLING S/R GRAD_SIGMA
(PID.TID 0000.0001) DEBUG_MSG: CALLING S/R CALC_IVDC
(PID.TID 0000.0001) DEBUG_MSG: CALLING S/R GRAD_SIGMA
(PID.TID 0000.0001) DEBUG_MSG: CALLING S/R CALC_IVDC
(PID.TID 0000.0001) DEBUG_MSG: CALLING S/R GRAD_SIGMA
(PID.TID 0000.0001) DEBUG_MSG: CALLING S/R CALC_IVDC
(PID.TID 0000.0001) DEBUG_MSG: CALLING S/R GRAD_SIGMA
(PID.TID 0000.0001) DEBUG_MSG: CALLING S/R CALC_IVDC
(PID.TID 0000.0001) DEBUG_MSG: CALLING S/R GRAD_SIGMA
(PID.TID 0000.0001) DEBUG_MSG: CALLING S/R CALC_IVDC
(PID.TID 0000.0001) DEBUG_MSG: CALLING S/R GRAD_SIGMA
(PID.TID 0000.0001) DEBUG_MSG: CALLING S/R CALC_IVDC
(PID.TID 0000.0001) DEBUG_MSG: CALLING S/R GRAD_SIGMA
(PID.TID 0000.0001) DEBUG_MSG: CALLING S/R CALC_IVDC
(PID.TID 0000.0001) DEBUG_MSG: CALLING S/R GRAD_SIGMA
(PID.TID 0000.0001) DEBUG_MSG: CALLING S/R CALC_IVDC
(PID.TID 0000.0001) DEBUG_MSG: CALLING S/R GRAD_SIGMA
(PID.TID 0000.0001) DEBUG_MSG: CALLING S/R CALC_IVDC
(PID.TID 0000.0001) DEBUG_MSG: CALLING S/R GRAD_SIGMA
(PID.TID 0000.0001) DEBUG_MSG: CALLING S/R CALC_IVDC
(PID.TID 0000.0001) DEBUG_MSG: CALLING S/R GRAD_SIGMA
(PID.TID 0000.0001) DEBUG_MSG: CALLING S/R CALC_IVDC
(PID.TID 0000.0001) DEBUG_MSG: CALLING S/R GRAD_SIGMA
(PID.TID 0000.0001) DEBUG_MSG: CALLING S/R CALC_IVDC
(PID.TID 0000.0001) DEBUG_MSG: CALLING S/R GRAD_SIGMA
(PID.TID 0000.0001) DEBUG_MSG: CALLING S/R CALC_IVDC
(PID.TID 0000.0001) DEBUG_MSG: CALLING S/R GRAD_SIGMA
(PID.TID 0000.0001) DEBUG_MSG: CALLING S/R CALC_IVDC
(PID.TID 0000.0001) DEBUG_MSG: CALLING S/R GRAD_SIGMA
(PID.TID 0000.0001) DEBUG_MSG: CALLING S/R GMREDI_CALC_TENSOR
(PID.TID 0000.0001) DEBUG_MSG: LEAVING S/R DO_OCEANIC_PHYS
(PID.TID 0000.0001) DEBUG_MSG: CALLING S/R DYNAMICS
(PID.TID 0000.0001) DEBUG_MSG: ENTERED S/R DYNAMICS
DEBUG_STATS_RL:                EtaN (DYNAMICS)  min= -7.78859695844385E-01
DEBUG_STATS_RL:                EtaN (DYNAMICS)  max=  2.23993811350232E+00
DEBUG_STATS_RL:                EtaN (DYNAMICS) mean=  2.87757940483123E-02
DEBUG_STATS_RL:                EtaN (DYNAMICS) S.D.=  1.03064937757336E-01
DEBUG_STATS_RL:                Uvel (DYNAMICS)  min= -1.03995048588433E+00
DEBUG_STATS_RL:                Uvel (DYNAMICS)  max=  4.15253721870816E-01
DEBUG_STATS_RL:                Uvel (DYNAMICS) mean= -6.27258497535069E-04
DEBUG_STATS_RL:                Uvel (DYNAMICS) S.D.=  2.22123953271729E-02
DEBUG_STATS_RL:                Vvel (DYNAMICS)  min= -1.12005219902817E+00
DEBUG_STATS_RL:                Vvel (DYNAMICS)  max=  1.18442160055796E+00
DEBUG_STATS_RL:                Vvel (DYNAMICS) mean= -8.12148671416102E-04
DEBUG_STATS_RL:                Vvel (DYNAMICS) S.D.=  2.65343719720121E-02
DEBUG_STATS_RL:                Wvel (DYNAMICS)  min= -2.46716644315438E-04
DEBUG_STATS_RL:                Wvel (DYNAMICS)  max=  2.17280238343110E-04
DEBUG_STATS_RL:                Wvel (DYNAMICS) mean= -1.59991449213864E-07
DEBUG_STATS_RL:                Wvel (DYNAMICS) S.D.=  8.39126697214913E-06
DEBUG_STATS_RL:               Theta (DYNAMICS)  min=  1.61391876068534E+01
DEBUG_STATS_RL:               Theta (DYNAMICS)  max=  2.22401270170564E+01
DEBUG_STATS_RL:               Theta (DYNAMICS) mean=  1.99998190724655E+01
DEBUG_STATS_RL:               Theta (DYNAMICS) S.D.=  7.31427278446170E-02
DEBUG_STATS_RL:                Salt (DYNAMICS)  min=  2.68441445318243E+01
DEBUG_STATS_RL:                Salt (DYNAMICS)  max=  3.51511190746472E+01
DEBUG_STATS_RL:                Salt (DYNAMICS) mean=  3.49979519520077E+01
DEBUG_STATS_RL:                Salt (DYNAMICS) S.D.=  9.21717032444544E-02
DEBUG_STATS_RL:                  Gu (DYNAMICS)  min= -1.05933638767138E+00
DEBUG_STATS_RL:                  Gu (DYNAMICS)  max=  3.96749944298044E-01
DEBUG_STATS_RL:                  Gu (DYNAMICS) mean= -6.71194685312993E-04
DEBUG_STATS_RL:                  Gu (DYNAMICS) S.D.=  2.22716485555226E-02
DEBUG_STATS_RL:                  Gv (DYNAMICS)  min= -1.06523894815667E+00
DEBUG_STATS_RL:                  Gv (DYNAMICS)  max=  1.15961698878879E+00
DEBUG_STATS_RL:                  Gv (DYNAMICS) mean= -8.20547999136796E-04
DEBUG_STATS_RL:                  Gv (DYNAMICS) S.D.=  2.61154297034077E-02
DEBUG_STATS_RL:               GuNm1 (DYNAMICS)  min= -4.96509651700420E-05
DEBUG_STATS_RL:               GuNm1 (DYNAMICS)  max=  2.94343101826979E-05
DEBUG_STATS_RL:               GuNm1 (DYNAMICS) mean= -5.17923694369438E-08
DEBUG_STATS_RL:               GuNm1 (DYNAMICS) S.D.=  1.52144574481917E-06
DEBUG_STATS_RL:               GvNm1 (DYNAMICS)  min= -2.77451962903065E-05
DEBUG_STATS_RL:               GvNm1 (DYNAMICS)  max=  6.54002352988803E-05
DEBUG_STATS_RL:               GvNm1 (DYNAMICS) mean= -1.17918840808707E-08
DEBUG_STATS_RL:               GvNm1 (DYNAMICS) S.D.=  1.50992712961700E-06
DEBUG_STATS_RL:               GtNm1 (DYNAMICS)  min= -3.16879446720350E-06
DEBUG_STATS_RL:               GtNm1 (DYNAMICS)  max=  1.30293989238284E-05
DEBUG_STATS_RL:               GtNm1 (DYNAMICS) mean=  2.52795971252224E-09
DEBUG_STATS_RL:               GtNm1 (DYNAMICS) S.D.=  1.36214431004540E-07
DEBUG_STATS_RL:               GsNm1 (DYNAMICS)  min= -1.60915163513133E-05
DEBUG_STATS_RL:               GsNm1 (DYNAMICS)  max=  2.03697154063155E-06
DEBUG_STATS_RL:               GsNm1 (DYNAMICS) mean= -4.49305455978438E-09
DEBUG_STATS_RL:               GsNm1 (DYNAMICS) S.D.=  1.99960807779410E-07
(PID.TID 0000.0001) DEBUG_MSG: LEAVING S/R DYNAMICS
DEBUG_STATS_RL:    cg2d_b (SOLVE_FOR_PRESSURE)  min= -2.76759158149457E+05
DEBUG_STATS_RL:    cg2d_b (SOLVE_FOR_PRESSURE)  max=  8.73510299703425E+04
DEBUG_STATS_RL:    cg2d_b (SOLVE_FOR_PRESSURE) mean= -2.93034597904895E+03
DEBUG_STATS_RL:    cg2d_b (SOLVE_FOR_PRESSURE) S.D.=  1.02524511457661E+04
 cg2d: Sum(rhs),rhsMax =  -4.67992796119211E+01  5.30175456855990E+01
(PID.TID 0000.0001)  cg2d: iter=     1 ; resid.=  3.68829434394271E-02
(PID.TID 0000.0001)  cg2d: iter=     2 ; resid.=  4.85468479802092E-03
(PID.TID 0000.0001)  cg2d: iter=     3 ; resid.=  1.17111771402199E-03
(PID.TID 0000.0001)  cg2d: iter=     4 ; resid.=  3.97790734316957E-04
(PID.TID 0000.0001)  cg2d: iter=     5 ; resid.=  1.07969625592330E-04
(PID.TID 0000.0001)  cg2d: iter=     6 ; resid.=  2.60058886056417E-05
(PID.TID 0000.0001)  cg2d: iter=     7 ; resid.=  5.47686643139689E-06
(PID.TID 0000.0001)  cg2d: iter=     8 ; resid.=  1.35054020692157E-06
(PID.TID 0000.0001)  cg2d: iter=     9 ; resid.=  4.46608756524468E-07
(PID.TID 0000.0001)  cg2d: iter=    10 ; resid.=  1.28475123509648E-07
(PID.TID 0000.0001)  cg2d: iter=    11 ; resid.=  2.98556090043794E-08
DEBUG_STATS_RL:    cg2d_x (SOLVE_FOR_PRESSURE)  min= -7.71825279936095E+00
DEBUG_STATS_RL:    cg2d_x (SOLVE_FOR_PRESSURE)  max=  2.32169820305855E+01
DEBUG_STATS_RL:    cg2d_x (SOLVE_FOR_PRESSURE) mean=  2.84859548396082E-01
DEBUG_STATS_RL:    cg2d_x (SOLVE_FOR_PRESSURE) S.D.=  1.00720222142753E+00
(PID.TID 0000.0001)      cg2d_init_res =   3.18212255682056E-01
(PID.TID 0000.0001)      cg2d_iters(min,last) =      -1      11
(PID.TID 0000.0001)      cg2d_last_res =   2.98556090043794E-08
(PID.TID 0000.0001) DEBUG_MSG: CALLING S/R UPDATE_ETAH
(PID.TID 0000.0001) DEBUG_MSG: ENTERED S/R CALC_R_STAR
(PID.TID 0000.0001) DEBUG_MSG: LEAVING S/R CALC_R_STAR
(PID.TID 0000.0001) DEBUG_MSG: CALLING S/R DO_STAGGER_FIELDS_EXCH.
(PID.TID 0000.0001) DEBUG_MSG: CALLING S/R THERMODYNAMICS
(PID.TID 0000.0001) DEBUG_MSG: ENTERED S/R THERMODYNAMICS
(PID.TID 0000.0001) DEBUG_MSG: CALLING S/R TEMP_INTEGRATE
(PID.TID 0000.0001) DEBUG_MSG: CALLING S/R SALT_INTEGRATE
DEBUG_STATS_RL:          Uvel (THERMODYNAMICS)  min= -1.04111700519418E+00
DEBUG_STATS_RL:          Uvel (THERMODYNAMICS)  max=  4.26104182301950E-01
DEBUG_STATS_RL:          Uvel (THERMODYNAMICS) mean= -6.70999346644520E-04
DEBUG_STATS_RL:          Uvel (THERMODYNAMICS) S.D.=  2.22180823163559E-02
DEBUG_STATS_RL:          Vvel (THERMODYNAMICS)  min= -1.05158024453610E+00
DEBUG_STATS_RL:          Vvel (THERMODYNAMICS)  max=  1.16387844449742E+00
DEBUG_STATS_RL:          Vvel (THERMODYNAMICS) mean= -7.98990284507766E-04
DEBUG_STATS_RL:          Vvel (THERMODYNAMICS) S.D.=  2.60672658606575E-02
DEBUG_STATS_RL:          Wvel (THERMODYNAMICS)  min= -2.38768520571985E-04
DEBUG_STATS_RL:          Wvel (THERMODYNAMICS)  max=  2.16862700842125E-04
DEBUG_STATS_RL:          Wvel (THERMODYNAMICS) mean= -1.53332753045746E-07
DEBUG_STATS_RL:          Wvel (THERMODYNAMICS) S.D.=  8.33929115936925E-06
DEBUG_STATS_RL:         Theta (THERMODYNAMICS)  min=  1.61460681170556E+01
DEBUG_STATS_RL:         Theta (THERMODYNAMICS)  max=  2.22870470123667E+01
DEBUG_STATS_RL:         Theta (THERMODYNAMICS) mean=  1.99999508818856E+01
DEBUG_STATS_RL:         Theta (THERMODYNAMICS) S.D.=  7.37822198442046E-02
DEBUG_STATS_RL:          Salt (THERMODYNAMICS)  min=  2.67171886543122E+01
DEBUG_STATS_RL:          Salt (THERMODYNAMICS)  max=  3.51511141595203E+01
DEBUG_STATS_RL:          Salt (THERMODYNAMICS) mean=  3.49979161688628E+01
DEBUG_STATS_RL:          Salt (THERMODYNAMICS) S.D.=  9.36558241258135E-02
DEBUG_STATS_RL:         GtNm1 (THERMODYNAMICS)  min= -3.19049898855588E-06
DEBUG_STATS_RL:         GtNm1 (THERMODYNAMICS)  max=  1.26023986264639E-05
DEBUG_STATS_RL:         GtNm1 (THERMODYNAMICS) mean=  2.42648287829335E-09
DEBUG_STATS_RL:         GtNm1 (THERMODYNAMICS) S.D.=  1.33194208751998E-07
DEBUG_STATS_RL:         GsNm1 (THERMODYNAMICS)  min= -1.61661075650484E-05
DEBUG_STATS_RL:         GsNm1 (THERMODYNAMICS)  max=  2.00313866298586E-06
DEBUG_STATS_RL:         GsNm1 (THERMODYNAMICS) mean= -4.50793830220250E-09
DEBUG_STATS_RL:         GsNm1 (THERMODYNAMICS) S.D.=  2.00148413350786E-07
(PID.TID 0000.0001) DEBUG_MSG: LEAVING S/R THERMODYNAMICS
(PID.TID 0000.0001) // =======================================================
(PID.TID 0000.0001) // Begin MONITOR dynamic field statistics
(PID.TID 0000.0001) // =======================================================
(PID.TID 0000.0001) %MON time_tsnumber                =                    38
(PID.TID 0000.0001) %MON time_secondsf                =   3.4200000000000E+04
(PID.TID 0000.0001) %MON dynstat_eta_max              =   2.3666648337613E+00
(PID.TID 0000.0001) %MON dynstat_eta_min              =  -7.8677398473179E-01
(PID.TID 0000.0001) %MON dynstat_eta_mean             =   2.8831016887379E-02
(PID.TID 0000.0001) %MON dynstat_eta_sd               =   9.8718644664148E-02
(PID.TID 0000.0001) %MON dynstat_eta_del2             =   1.8713243374930E-03
(PID.TID 0000.0001) %MON dynstat_uvel_max             =   4.2610418230195E-01
(PID.TID 0000.0001) %MON dynstat_uvel_min             =  -1.0411170051942E+00
(PID.TID 0000.0001) %MON dynstat_uvel_mean            =  -3.8938576445628E-05
(PID.TID 0000.0001) %MON dynstat_uvel_sd              =   7.2821296812528E-03
(PID.TID 0000.0001) %MON dynstat_uvel_del2            =   9.8606654965702E-05
(PID.TID 0000.0001) %MON dynstat_vvel_max             =   1.1638784444974E+00
(PID.TID 0000.0001) %MON dynstat_vvel_min             =  -1.0515802445361E+00
(PID.TID 0000.0001) %MON dynstat_vvel_mean            =   7.6731434892295E-05
(PID.TID 0000.0001) %MON dynstat_vvel_sd              =   8.3822220574464E-03
(PID.TID 0000.0001) %MON dynstat_vvel_del2            =   1.5104067353545E-04
(PID.TID 0000.0001) %MON dynstat_wvel_max             =   2.1686270084213E-04
(PID.TID 0000.0001) %MON dynstat_wvel_min             =  -2.3876852057199E-04
(PID.TID 0000.0001) %MON dynstat_wvel_mean            =   4.1159699134514E-09
(PID.TID 0000.0001) %MON dynstat_wvel_sd              =   7.6580082413454E-06
(PID.TID 0000.0001) %MON dynstat_wvel_del2            =   7.1571979932441E-08
(PID.TID 0000.0001) %MON dynstat_theta_max            =   2.2287047012367E+01
(PID.TID 0000.0001) %MON dynstat_theta_min            =   1.6146068117056E+01
(PID.TID 0000.0001) %MON dynstat_theta_mean           =   1.9997877640779E+01
(PID.TID 0000.0001) %MON dynstat_theta_sd             =   2.4729520677310E-02
(PID.TID 0000.0001) %MON dynstat_theta_del2           =   4.5087700576004E-04
(PID.TID 0000.0001) %MON dynstat_salt_max             =   3.5151114159520E+01
(PID.TID 0000.0001) %MON dynstat_salt_min             =   2.6717188654312E+01
(PID.TID 0000.0001) %MON dynstat_salt_mean            =   3.4999719446284E+01
(PID.TID 0000.0001) %MON dynstat_salt_sd              =   2.8905565497862E-02
(PID.TID 0000.0001) %MON dynstat_salt_del2            =   1.0087388639894E-03
(PID.TID 0000.0001) %MON dynstat_sst_max              =   2.2287047012367E+01
(PID.TID 0000.0001) %MON dynstat_sst_min              =   1.6146068117056E+01
(PID.TID 0000.0001) %MON dynstat_sst_mean             =   2.0091863430394E+01
(PID.TID 0000.0001) %MON dynstat_sst_sd               =   2.2142106040654E-01
(PID.TID 0000.0001) %MON dynstat_sst_del2             =   4.9588507101097E-03
(PID.TID 0000.0001) %MON dynstat_sss_max              =   3.5151114159520E+01
(PID.TID 0000.0001) %MON dynstat_sss_min              =   2.6717188654312E+01
(PID.TID 0000.0001) %MON dynstat_sss_mean             =   3.4975540094217E+01
(PID.TID 0000.0001) %MON dynstat_sss_sd               =   3.4886892083979E-01
(PID.TID 0000.0001) %MON dynstat_sss_del2             =   1.3664915709201E-02
(PID.TID 0000.0001) %MON forcing_qnet_max             =   4.1403941703881E+03
(PID.TID 0000.0001) %MON forcing_qnet_min             =  -4.9392505186343E+03
(PID.TID 0000.0001) %MON forcing_qnet_mean            =  -3.1403098662333E+01
(PID.TID 0000.0001) %MON forcing_qnet_sd              =   5.7419223259826E+02
(PID.TID 0000.0001) %MON forcing_qnet_del2            =   9.1710628878049E+00
(PID.TID 0000.0001) %MON forcing_qsw_max              =   0.0000000000000E+00
(PID.TID 0000.0001) %MON forcing_qsw_min              =  -1.0827783636863E+02
(PID.TID 0000.0001) %MON forcing_qsw_mean             =  -1.4511497922756E+01
(PID.TID 0000.0001) %MON forcing_qsw_sd               =   2.5507530354218E+01
(PID.TID 0000.0001) %MON forcing_qsw_del2             =   2.0925489821835E-01
(PID.TID 0000.0001) %MON forcing_empmr_max            =   7.5614410452545E-03
(PID.TID 0000.0001) %MON forcing_empmr_min            =  -1.0868855565786E-01
(PID.TID 0000.0001) %MON forcing_empmr_mean           =  -4.6745353904707E-04
(PID.TID 0000.0001) %MON forcing_empmr_sd             =   4.8035947965033E-03
(PID.TID 0000.0001) %MON forcing_empmr_del2           =   1.8888599963788E-04
(PID.TID 0000.0001) %MON forcing_fu_max               =   6.8750258995728E-01
(PID.TID 0000.0001) %MON forcing_fu_min               =  -5.6760990737068E-01
(PID.TID 0000.0001) %MON forcing_fu_mean              =  -6.4597717864724E-04
(PID.TID 0000.0001) %MON forcing_fu_sd                =   9.0843922300660E-02
(PID.TID 0000.0001) %MON forcing_fu_del2              =   7.5731651935385E-04
(PID.TID 0000.0001) %MON forcing_fv_max               =   4.9093638726065E-01
(PID.TID 0000.0001) %MON forcing_fv_min               =  -4.1671255435129E-01
(PID.TID 0000.0001) %MON forcing_fv_mean              =  -4.2397663887180E-03
(PID.TID 0000.0001) %MON forcing_fv_sd                =   8.0303660830422E-02
(PID.TID 0000.0001) %MON forcing_fv_del2              =   6.7084570500816E-04
(PID.TID 0000.0001) %MON trAdv_CFL_u_max              =   3.5311019022501E-03
(PID.TID 0000.0001) %MON trAdv_CFL_v_max              =   4.5887463975451E-03
(PID.TID 0000.0001) %MON trAdv_CFL_w_max              =   3.5783307932352E-03
(PID.TID 0000.0001) %MON advcfl_uvel_max              =   3.4718822499404E-03
(PID.TID 0000.0001) %MON advcfl_vvel_max              =   3.4878753192210E-03
(PID.TID 0000.0001) %MON advcfl_wvel_max              =   7.5609430022862E-03
(PID.TID 0000.0001) %MON advcfl_W_hf_max              =   3.6358964529079E-03
(PID.TID 0000.0001) %MON pe_b_mean                    =   1.4089874727472E-05
(PID.TID 0000.0001) %MON ke_max                       =   5.5023512088776E-01
(PID.TID 0000.0001) %MON ke_mean                      =   5.6964339670006E-05
(PID.TID 0000.0001) %MON ke_vol                       =   1.3398127886743E+18
(PID.TID 0000.0001) %MON vort_r_min                   =  -4.2776166915122E-06
(PID.TID 0000.0001) %MON vort_r_max                   =   4.0627728076951E-06
(PID.TID 0000.0001) %MON vort_a_mean                  =  -2.0549865324846E-05
(PID.TID 0000.0001) %MON vort_a_sd                    =   7.5259254984642E-05
(PID.TID 0000.0001) %MON vort_p_mean                  =  -2.4783334115237E-05
(PID.TID 0000.0001) %MON vort_p_sd                    =   1.2810550313122E-04
(PID.TID 0000.0001) %MON surfExpan_theta_mean         =  -8.9375233480508E-07
(PID.TID 0000.0001) %MON surfExpan_salt_mean          =   1.5751444004082E-06
(PID.TID 0000.0001) // =======================================================
(PID.TID 0000.0001) // End MONITOR dynamic field statistics
(PID.TID 0000.0001) // =======================================================
(PID.TID 0000.0001) DEBUG_MSG: LEAVING S/R FORWARD_STEP
(PID.TID 0000.0001) DEBUG_MSG: ENTERED S/R FORWARD_STEP
(PID.TID 0000.0001) DEBUG_MSG: CALLING S/R LOAD_FIELDS_DRIVER
(PID.TID 0000.0001) DEBUG_MSG: ENTERED S/R LOAD_FIELDS_DRIVER
(PID.TID 0000.0001) DEBUG_MSG: CALLING S/R EXTERNAL_FIELDS_LOAD
(PID.TID 0000.0001) DEBUG_MSG: LEAVING S/R LOAD_FIELDS_DRIVER
(PID.TID 0000.0001) DEBUG_MSG: CALLING S/R DO_ATMOSPHERIC_PHYS
(PID.TID 0000.0001) DEBUG_MSG: ENTERED S/R DO_ATMOSPHERIC_PHYS
(PID.TID 0000.0001) DEBUG_MSG: LEAVING S/R DO_ATMOSPHERIC_PHYS
(PID.TID 0000.0001) DEBUG_MSG: CALLING S/R DO_OCEANIC_PHYS
(PID.TID 0000.0001) DEBUG_MSG: ENTERED S/R DO_OCEANIC_PHYS
(PID.TID 0000.0001) DEBUG_MSG: CALLING S/R EXTERNAL_FORCING_SURF
(PID.TID 0000.0001) DEBUG_MSG: CALLING S/R FIND_RHO_2D (xNr)
(PID.TID 0000.0001) DEBUG_MSG:                  ENTERING UPWARD K LOOP (bi=   1, bj=   1)
(PID.TID 0000.0001) DEBUG_MSG: CALLING S/R GRAD_SIGMA
(PID.TID 0000.0001) DEBUG_MSG: CALLING S/R CALC_IVDC
(PID.TID 0000.0001) DEBUG_MSG: CALLING S/R GRAD_SIGMA
(PID.TID 0000.0001) DEBUG_MSG: CALLING S/R CALC_IVDC
(PID.TID 0000.0001) DEBUG_MSG: CALLING S/R GRAD_SIGMA
(PID.TID 0000.0001) DEBUG_MSG: CALLING S/R CALC_IVDC
(PID.TID 0000.0001) DEBUG_MSG: CALLING S/R GRAD_SIGMA
(PID.TID 0000.0001) DEBUG_MSG: CALLING S/R CALC_IVDC
(PID.TID 0000.0001) DEBUG_MSG: CALLING S/R GRAD_SIGMA
(PID.TID 0000.0001) DEBUG_MSG: CALLING S/R CALC_IVDC
(PID.TID 0000.0001) DEBUG_MSG: CALLING S/R GRAD_SIGMA
(PID.TID 0000.0001) DEBUG_MSG: CALLING S/R CALC_IVDC
(PID.TID 0000.0001) DEBUG_MSG: CALLING S/R GRAD_SIGMA
(PID.TID 0000.0001) DEBUG_MSG: CALLING S/R CALC_IVDC
(PID.TID 0000.0001) DEBUG_MSG: CALLING S/R GRAD_SIGMA
(PID.TID 0000.0001) DEBUG_MSG: CALLING S/R CALC_IVDC
(PID.TID 0000.0001) DEBUG_MSG: CALLING S/R GRAD_SIGMA
(PID.TID 0000.0001) DEBUG_MSG: CALLING S/R CALC_IVDC
(PID.TID 0000.0001) DEBUG_MSG: CALLING S/R GRAD_SIGMA
(PID.TID 0000.0001) DEBUG_MSG: CALLING S/R CALC_IVDC
(PID.TID 0000.0001) DEBUG_MSG: CALLING S/R GRAD_SIGMA
(PID.TID 0000.0001) DEBUG_MSG: CALLING S/R CALC_IVDC
(PID.TID 0000.0001) DEBUG_MSG: CALLING S/R GRAD_SIGMA
(PID.TID 0000.0001) DEBUG_MSG: CALLING S/R CALC_IVDC
(PID.TID 0000.0001) DEBUG_MSG: CALLING S/R GRAD_SIGMA
(PID.TID 0000.0001) DEBUG_MSG: CALLING S/R CALC_IVDC
(PID.TID 0000.0001) DEBUG_MSG: CALLING S/R GRAD_SIGMA
(PID.TID 0000.0001) DEBUG_MSG: CALLING S/R CALC_IVDC
(PID.TID 0000.0001) DEBUG_MSG: CALLING S/R GRAD_SIGMA
(PID.TID 0000.0001) DEBUG_MSG: CALLING S/R CALC_IVDC
(PID.TID 0000.0001) DEBUG_MSG: CALLING S/R GRAD_SIGMA
(PID.TID 0000.0001) DEBUG_MSG: CALLING S/R GMREDI_CALC_TENSOR
(PID.TID 0000.0001) DEBUG_MSG: LEAVING S/R DO_OCEANIC_PHYS
(PID.TID 0000.0001) DEBUG_MSG: CALLING S/R DYNAMICS
(PID.TID 0000.0001) DEBUG_MSG: ENTERED S/R DYNAMICS
DEBUG_STATS_RL:                EtaN (DYNAMICS)  min= -7.86773984731789E-01
DEBUG_STATS_RL:                EtaN (DYNAMICS)  max=  2.36666483376131E+00
DEBUG_STATS_RL:                EtaN (DYNAMICS) mean=  2.90376704920156E-02
DEBUG_STATS_RL:                EtaN (DYNAMICS) S.D.=  1.02670970621253E-01
DEBUG_STATS_RL:                Uvel (DYNAMICS)  min= -1.04111700519418E+00
DEBUG_STATS_RL:                Uvel (DYNAMICS)  max=  4.26104182301950E-01
DEBUG_STATS_RL:                Uvel (DYNAMICS) mean= -6.70999346644520E-04
DEBUG_STATS_RL:                Uvel (DYNAMICS) S.D.=  2.22180823163559E-02
DEBUG_STATS_RL:                Vvel (DYNAMICS)  min= -1.05158024453610E+00
DEBUG_STATS_RL:                Vvel (DYNAMICS)  max=  1.16387844449742E+00
DEBUG_STATS_RL:                Vvel (DYNAMICS) mean= -7.98990284507766E-04
DEBUG_STATS_RL:                Vvel (DYNAMICS) S.D.=  2.60672658606575E-02
DEBUG_STATS_RL:                Wvel (DYNAMICS)  min= -2.38768520571985E-04
DEBUG_STATS_RL:                Wvel (DYNAMICS)  max=  2.16862700842125E-04
DEBUG_STATS_RL:                Wvel (DYNAMICS) mean= -1.53332753045746E-07
DEBUG_STATS_RL:                Wvel (DYNAMICS) S.D.=  8.33929115936925E-06
DEBUG_STATS_RL:               Theta (DYNAMICS)  min=  1.61460681170556E+01
DEBUG_STATS_RL:               Theta (DYNAMICS)  max=  2.22870470123667E+01
DEBUG_STATS_RL:               Theta (DYNAMICS) mean=  1.99999508818856E+01
DEBUG_STATS_RL:               Theta (DYNAMICS) S.D.=  7.37822198442046E-02
DEBUG_STATS_RL:                Salt (DYNAMICS)  min=  2.67171886543122E+01
DEBUG_STATS_RL:                Salt (DYNAMICS)  max=  3.51511141595203E+01
DEBUG_STATS_RL:                Salt (DYNAMICS) mean=  3.49979161688628E+01
DEBUG_STATS_RL:                Salt (DYNAMICS) S.D.=  9.36558241258135E-02
DEBUG_STATS_RL:                  Gu (DYNAMICS)  min= -1.05598213548831E+00
DEBUG_STATS_RL:                  Gu (DYNAMICS)  max=  4.06688695526775E-01
DEBUG_STATS_RL:                  Gu (DYNAMICS) mean= -7.10613849209260E-04
DEBUG_STATS_RL:                  Gu (DYNAMICS) S.D.=  2.22509365669245E-02
DEBUG_STATS_RL:                  Gv (DYNAMICS)  min= -9.96800512437117E-01
DEBUG_STATS_RL:                  Gv (DYNAMICS)  max=  1.14068389821695E+00
DEBUG_STATS_RL:                  Gv (DYNAMICS) mean= -8.05213485572802E-04
DEBUG_STATS_RL:                  Gv (DYNAMICS) S.D.=  2.56366407001301E-02
DEBUG_STATS_RL:               GuNm1 (DYNAMICS)  min= -4.67271086584202E-05
DEBUG_STATS_RL:               GuNm1 (DYNAMICS)  max=  2.86839189246321E-05
DEBUG_STATS_RL:               GuNm1 (DYNAMICS) mean= -4.72529957840928E-08
DEBUG_STATS_RL:               GuNm1 (DYNAMICS) S.D.=  1.48093821629151E-06
DEBUG_STATS_RL:               GvNm1 (DYNAMICS)  min= -2.62956325100997E-05
DEBUG_STATS_RL:               GvNm1 (DYNAMICS)  max=  6.56175703335692E-05
DEBUG_STATS_RL:               GvNm1 (DYNAMICS) mean= -9.15243789275705E-09
DEBUG_STATS_RL:               GvNm1 (DYNAMICS) S.D.=  1.52529790094083E-06
DEBUG_STATS_RL:               GtNm1 (DYNAMICS)  min= -3.19049898855588E-06
DEBUG_STATS_RL:               GtNm1 (DYNAMICS)  max=  1.26023986264639E-05
DEBUG_STATS_RL:               GtNm1 (DYNAMICS) mean=  2.42648287829335E-09
DEBUG_STATS_RL:               GtNm1 (DYNAMICS) S.D.=  1.33194208751998E-07
DEBUG_STATS_RL:               GsNm1 (DYNAMICS)  min= -1.61661075650484E-05
DEBUG_STATS_RL:               GsNm1 (DYNAMICS)  max=  2.00313866298586E-06
DEBUG_STATS_RL:               GsNm1 (DYNAMICS) mean= -4.50793830220250E-09
DEBUG_STATS_RL:               GsNm1 (DYNAMICS) S.D.=  2.00148413350786E-07
(PID.TID 0000.0001) DEBUG_MSG: LEAVING S/R DYNAMICS
DEBUG_STATS_RL:    cg2d_b (SOLVE_FOR_PRESSURE)  min= -2.90779935278004E+05
DEBUG_STATS_RL:    cg2d_b (SOLVE_FOR_PRESSURE)  max=  9.30173962351928E+04
DEBUG_STATS_RL:    cg2d_b (SOLVE_FOR_PRESSURE) mean= -2.97155628881792E+03
DEBUG_STATS_RL:    cg2d_b (SOLVE_FOR_PRESSURE) S.D.=  1.02666353616308E+04
 cg2d: Sum(rhs),rhsMax =  -4.51691372171810E+01  5.57034448512517E+01
(PID.TID 0000.0001)  cg2d: iter=     1 ; resid.=  3.38941546468891E-02
(PID.TID 0000.0001)  cg2d: iter=     2 ; resid.=  4.49289975623534E-03
(PID.TID 0000.0001)  cg2d: iter=     3 ; resid.=  1.05248514553020E-03
(PID.TID 0000.0001)  cg2d: iter=     4 ; resid.=  3.55202881722314E-04
(PID.TID 0000.0001)  cg2d: iter=     5 ; resid.=  1.00217115265371E-04
(PID.TID 0000.0001)  cg2d: iter=     6 ; resid.=  2.39118351047752E-05
(PID.TID 0000.0001)  cg2d: iter=     7 ; resid.=  4.89778641781715E-06
(PID.TID 0000.0001)  cg2d: iter=     8 ; resid.=  1.13200492608724E-06
(PID.TID 0000.0001)  cg2d: iter=     9 ; resid.=  3.67097241442024E-07
(PID.TID 0000.0001)  cg2d: iter=    10 ; resid.=  1.14879711800916E-07
(PID.TID 0000.0001)  cg2d: iter=    11 ; resid.=  2.50483862753682E-08
DEBUG_STATS_RL:    cg2d_x (SOLVE_FOR_PRESSURE)  min= -8.21166718727475E+00
DEBUG_STATS_RL:    cg2d_x (SOLVE_FOR_PRESSURE)  max=  2.43851941263210E+01
DEBUG_STATS_RL:    cg2d_x (SOLVE_FOR_PRESSURE) mean=  2.87734683053932E-01
DEBUG_STATS_RL:    cg2d_x (SOLVE_FOR_PRESSURE) S.D.=  1.00935845562927E+00
(PID.TID 0000.0001)      cg2d_init_res =   2.96022277185709E-01
(PID.TID 0000.0001)      cg2d_iters(min,last) =      -1      11
(PID.TID 0000.0001)      cg2d_last_res =   2.50483862753682E-08
(PID.TID 0000.0001) DEBUG_MSG: CALLING S/R UPDATE_ETAH
(PID.TID 0000.0001) DEBUG_MSG: ENTERED S/R CALC_R_STAR
(PID.TID 0000.0001) DEBUG_MSG: LEAVING S/R CALC_R_STAR
(PID.TID 0000.0001) DEBUG_MSG: CALLING S/R DO_STAGGER_FIELDS_EXCH.
(PID.TID 0000.0001) DEBUG_MSG: CALLING S/R THERMODYNAMICS
(PID.TID 0000.0001) DEBUG_MSG: ENTERED S/R THERMODYNAMICS
(PID.TID 0000.0001) DEBUG_MSG: CALLING S/R TEMP_INTEGRATE
(PID.TID 0000.0001) DEBUG_MSG: CALLING S/R SALT_INTEGRATE
DEBUG_STATS_RL:          Uvel (THERMODYNAMICS)  min= -1.02336241067936E+00
DEBUG_STATS_RL:          Uvel (THERMODYNAMICS)  max=  4.35314249185983E-01
DEBUG_STATS_RL:          Uvel (THERMODYNAMICS) mean= -7.07747023735733E-04
DEBUG_STATS_RL:          Uvel (THERMODYNAMICS) S.D.=  2.21596902563476E-02
DEBUG_STATS_RL:          Vvel (THERMODYNAMICS)  min= -9.68966937809855E-01
DEBUG_STATS_RL:          Vvel (THERMODYNAMICS)  max=  1.13014991494507E+00
DEBUG_STATS_RL:          Vvel (THERMODYNAMICS) mean= -7.84554371171562E-04
DEBUG_STATS_RL:          Vvel (THERMODYNAMICS) S.D.=  2.55452196507140E-02
DEBUG_STATS_RL:          Wvel (THERMODYNAMICS)  min= -2.32533339388521E-04
DEBUG_STATS_RL:          Wvel (THERMODYNAMICS)  max=  2.15209037635058E-04
DEBUG_STATS_RL:          Wvel (THERMODYNAMICS) mean= -1.55511587185434E-07
DEBUG_STATS_RL:          Wvel (THERMODYNAMICS) S.D.=  8.28728207942024E-06
DEBUG_STATS_RL:         Theta (THERMODYNAMICS)  min=  1.61525813507770E+01
DEBUG_STATS_RL:         Theta (THERMODYNAMICS)  max=  2.23333499182813E+01
DEBUG_STATS_RL:         Theta (THERMODYNAMICS) mean=  2.00000763857283E+01
DEBUG_STATS_RL:         Theta (THERMODYNAMICS) S.D.=  7.44183004224667E-02
DEBUG_STATS_RL:          Salt (THERMODYNAMICS)  min=  2.65934334235683E+01
DEBUG_STATS_RL:          Salt (THERMODYNAMICS)  max=  3.51511096274331E+01
DEBUG_STATS_RL:          Salt (THERMODYNAMICS) mean=  3.49978797640835E+01
DEBUG_STATS_RL:          Salt (THERMODYNAMICS) S.D.=  9.51041277258608E-02
DEBUG_STATS_RL:         GtNm1 (THERMODYNAMICS)  min= -3.20413137276821E-06
DEBUG_STATS_RL:         GtNm1 (THERMODYNAMICS)  max=  1.20186879760444E-05
DEBUG_STATS_RL:         GtNm1 (THERMODYNAMICS) mean=  2.29814607929802E-09
DEBUG_STATS_RL:         GtNm1 (THERMODYNAMICS) S.D.=  1.28773454263445E-07
DEBUG_STATS_RL:         GsNm1 (THERMODYNAMICS)  min= -1.62301815233725E-05
DEBUG_STATS_RL:         GsNm1 (THERMODYNAMICS)  max=  1.97318660684623E-06
DEBUG_STATS_RL:         GsNm1 (THERMODYNAMICS) mean= -4.51622644555094E-09
DEBUG_STATS_RL:         GsNm1 (THERMODYNAMICS) S.D.=  2.00032263804799E-07
(PID.TID 0000.0001) DEBUG_MSG: LEAVING S/R THERMODYNAMICS
(PID.TID 0000.0001) // =======================================================
(PID.TID 0000.0001) // Begin MONITOR dynamic field statistics
(PID.TID 0000.0001) // =======================================================
(PID.TID 0000.0001) %MON time_tsnumber                =                    39
(PID.TID 0000.0001) %MON time_secondsf                =   3.5100000000000E+04
(PID.TID 0000.0001) %MON dynstat_eta_max              =   2.4857486356251E+00
(PID.TID 0000.0001) %MON dynstat_eta_min              =  -8.3707106810122E-01
(PID.TID 0000.0001) %MON dynstat_eta_mean             =   2.9236475882794E-02
(PID.TID 0000.0001) %MON dynstat_eta_sd               =   9.8908134129473E-02
(PID.TID 0000.0001) %MON dynstat_eta_del2             =   1.8774768284584E-03
(PID.TID 0000.0001) %MON dynstat_uvel_max             =   4.3531424918598E-01
(PID.TID 0000.0001) %MON dynstat_uvel_min             =  -1.0233624106794E+00
(PID.TID 0000.0001) %MON dynstat_uvel_mean            =  -6.5388613204024E-05
(PID.TID 0000.0001) %MON dynstat_uvel_sd              =   7.2833929865959E-03
(PID.TID 0000.0001) %MON dynstat_uvel_del2            =   9.8457153455791E-05
(PID.TID 0000.0001) %MON dynstat_vvel_max             =   1.1301499149451E+00
(PID.TID 0000.0001) %MON dynstat_vvel_min             =  -9.6896693780985E-01
(PID.TID 0000.0001) %MON dynstat_vvel_mean            =   1.1422453005350E-04
(PID.TID 0000.0001) %MON dynstat_vvel_sd              =   8.2179628905335E-03
(PID.TID 0000.0001) %MON dynstat_vvel_del2            =   1.4730963546386E-04
(PID.TID 0000.0001) %MON dynstat_wvel_max             =   2.1520903763506E-04
(PID.TID 0000.0001) %MON dynstat_wvel_min             =  -2.3253333938852E-04
(PID.TID 0000.0001) %MON dynstat_wvel_mean            =  -1.8255479434713E-09
(PID.TID 0000.0001) %MON dynstat_wvel_sd              =   7.6076871068438E-06
(PID.TID 0000.0001) %MON dynstat_wvel_del2            =   7.1656828818979E-08
(PID.TID 0000.0001) %MON dynstat_theta_max            =   2.2333349918281E+01
(PID.TID 0000.0001) %MON dynstat_theta_min            =   1.6152581350777E+01
(PID.TID 0000.0001) %MON dynstat_theta_mean           =   1.9997879344644E+01
(PID.TID 0000.0001) %MON dynstat_theta_sd             =   2.4935319514385E-02
(PID.TID 0000.0001) %MON dynstat_theta_del2           =   4.5375378752810E-04
(PID.TID 0000.0001) %MON dynstat_salt_max             =   3.5151109627433E+01
(PID.TID 0000.0001) %MON dynstat_salt_min             =   2.6593433423568E+01
(PID.TID 0000.0001) %MON dynstat_salt_mean            =   3.4999715405561E+01
(PID.TID 0000.0001) %MON dynstat_salt_sd              =   2.9351338460808E-02
(PID.TID 0000.0001) %MON dynstat_salt_del2            =   1.0239403171184E-03
(PID.TID 0000.0001) %MON dynstat_sst_max              =   2.2333349918281E+01
(PID.TID 0000.0001) %MON dynstat_sst_min              =   1.6152581350777E+01
(PID.TID 0000.0001) %MON dynstat_sst_mean             =   2.0093753235929E+01
(PID.TID 0000.0001) %MON dynstat_sst_sd               =   2.2375947764659E-01
(PID.TID 0000.0001) %MON dynstat_sst_del2             =   5.0069294589119E-03
(PID.TID 0000.0001) %MON dynstat_sss_max              =   3.5151109627433E+01
(PID.TID 0000.0001) %MON dynstat_sss_min              =   2.6593433423568E+01
(PID.TID 0000.0001) %MON dynstat_sss_mean             =   3.4975089140617E+01
(PID.TID 0000.0001) %MON dynstat_sss_sd               =   3.5425406158311E-01
(PID.TID 0000.0001) %MON dynstat_sss_del2             =   1.3870558345713E-02
(PID.TID 0000.0001) %MON forcing_qnet_max             =   4.0795856471097E+03
(PID.TID 0000.0001) %MON forcing_qnet_min             =  -4.8667071616772E+03
(PID.TID 0000.0001) %MON forcing_qnet_mean            =  -2.7703705003242E+01
(PID.TID 0000.0001) %MON forcing_qnet_sd              =   5.6711874644736E+02
(PID.TID 0000.0001) %MON forcing_qnet_del2            =   8.5540167253668E+00
(PID.TID 0000.0001) %MON forcing_qsw_max              =   0.0000000000000E+00
(PID.TID 0000.0001) %MON forcing_qsw_min              =  -1.0808166402856E+02
(PID.TID 0000.0001) %MON forcing_qsw_mean             =  -1.4341067716633E+01
(PID.TID 0000.0001) %MON forcing_qsw_sd               =   2.5532029546780E+01
(PID.TID 0000.0001) %MON forcing_qsw_del2             =   2.0596006644169E-01
(PID.TID 0000.0001) %MON forcing_empmr_max            =   7.4835051782429E-03
(PID.TID 0000.0001) %MON forcing_empmr_min            =  -1.0756921023130E-01
(PID.TID 0000.0001) %MON forcing_empmr_mean           =  -4.6627784472713E-04
(PID.TID 0000.0001) %MON forcing_empmr_sd             =   4.7545713904017E-03
(PID.TID 0000.0001) %MON forcing_empmr_del2           =   1.8693761679080E-04
(PID.TID 0000.0001) %MON forcing_fu_max               =   6.7650434286579E-01
(PID.TID 0000.0001) %MON forcing_fu_min               =  -5.6556425546229E-01
(PID.TID 0000.0001) %MON forcing_fu_mean              =  -7.4855635542596E-04
(PID.TID 0000.0001) %MON forcing_fu_sd                =   9.0428543282450E-02
(PID.TID 0000.0001) %MON forcing_fu_del2              =   7.5528006860608E-04
(PID.TID 0000.0001) %MON forcing_fv_max               =   4.8693916841395E-01
(PID.TID 0000.0001) %MON forcing_fv_min               =  -4.1312084412239E-01
(PID.TID 0000.0001) %MON forcing_fv_mean              =  -4.4008490522270E-03
(PID.TID 0000.0001) %MON forcing_fv_sd                =   8.0217419253364E-02
(PID.TID 0000.0001) %MON forcing_fv_del2              =   6.6894855180448E-04
(PID.TID 0000.0001) %MON trAdv_CFL_u_max              =   3.4834190174625E-03
(PID.TID 0000.0001) %MON trAdv_CFL_v_max              =   4.2735055115985E-03
(PID.TID 0000.0001) %MON trAdv_CFL_w_max              =   3.4820807376153E-03
(PID.TID 0000.0001) %MON advcfl_uvel_max              =   3.4126748205705E-03
(PID.TID 0000.0001) %MON advcfl_vvel_max              =   3.3867986936202E-03
(PID.TID 0000.0001) %MON advcfl_wvel_max              =   7.4830754943516E-03
(PID.TID 0000.0001) %MON advcfl_W_hf_max              =   3.4820807376153E-03
(PID.TID 0000.0001) %MON pe_b_mean                    =   1.4171125390520E-05
(PID.TID 0000.0001) %MON ke_max                       =   4.9682733676502E-01
(PID.TID 0000.0001) %MON ke_mean                      =   5.5712216998066E-05
(PID.TID 0000.0001) %MON ke_vol                       =   1.3398129365874E+18
(PID.TID 0000.0001) %MON vort_r_min                   =  -3.9380732456548E-06
(PID.TID 0000.0001) %MON vort_r_max                   =   4.2915485785682E-06
(PID.TID 0000.0001) %MON vort_a_mean                  =  -2.0549865324846E-05
(PID.TID 0000.0001) %MON vort_a_sd                    =   7.5259265570023E-05
(PID.TID 0000.0001) %MON vort_p_mean                  =  -2.4783331900177E-05
(PID.TID 0000.0001) %MON vort_p_sd                    =   1.2810553048576E-04
(PID.TID 0000.0001) %MON surfExpan_theta_mean         =  -8.5086039716772E-07
(PID.TID 0000.0001) %MON surfExpan_salt_mean          =   1.5769395815640E-06
(PID.TID 0000.0001) // =======================================================
(PID.TID 0000.0001) // End MONITOR dynamic field statistics
(PID.TID 0000.0001) // =======================================================
 Computing Diagnostic #     81  oceTAUX      Counter:       1   Parms: UU      U1      
           Vector  Mate for  oceTAUX      Diagnostic #     82  oceTAUY  exists 
(PID.TID 0000.0001)  MDS_WRITE_FIELD: it,rec,kS,kL,kH=      38    -1  32   1   1 file=oceTAUX.0000000038
 Computing Diagnostic #     82  oceTAUY      Counter:       1   Parms: VV      U1      
           Vector  Mate for  oceTAUY      Diagnostic #     81  oceTAUX  exists 
(PID.TID 0000.0001)  MDS_WRITE_FIELD: it,rec,kS,kL,kH=      38    -1  32   1   1 file=oceTAUY.0000000038
 Computing Diagnostic #     85  oceFWflx     Counter:       1   Parms: SM      U1      
(PID.TID 0000.0001)  MDS_WRITE_FIELD: it,rec,kS,kL,kH=      38    -1  32   1   1 file=oceFWflx.0000000038
 Computing Diagnostic #     86  oceSflux     Counter:       1   Parms: SM      U1      
(PID.TID 0000.0001)  MDS_WRITE_FIELD: it,rec,kS,kL,kH=      38    -1  32   1   1 file=oceSflux.0000000038
 Computing Diagnostic #     87  oceQnet      Counter:       1   Parms: SM      U1      
(PID.TID 0000.0001)  MDS_WRITE_FIELD: it,rec,kS,kL,kH=      38    -1  32   1   1 file=oceQnet.0000000038
 Computing Diagnostic #     88  oceQsw       Counter:       1   Parms: SM      U1      
(PID.TID 0000.0001)  MDS_WRITE_FIELD: it,rec,kS,kL,kH=      38    -1  32   1   1 file=oceQsw.0000000038
 Computing Diagnostic #     27  SALT         Counter:       1   Parms: SMR     MR      
(PID.TID 0000.0001)  MDS_WRITE_FIELD: it,rec,kS,kL,kH=      38    -1  32   1   1 file=SSS.0000000038
 Computing Diagnostic #     26  THETA        Counter:       1   Parms: SMR     MR      
(PID.TID 0000.0001)  MDS_WRITE_FIELD: it,rec,kS,kL,kH=      38    -1  32   1   1 file=SST.0000000038
 Computing Diagnostic #     45  UVELMASS     Counter:       1   Parms: UUr     MR      
           Vector  Mate for  UVELMASS     Diagnostic #     46  VVELMASS exists 
(PID.TID 0000.0001)  MDS_WRITE_FIELD: it,rec,kS,kL,kH=      38    -1  32   1   1 file=UVEL1.0000000038
 Computing Diagnostic #     46  VVELMASS     Counter:       1   Parms: VVr     MR      
           Vector  Mate for  VVELMASS     Diagnostic #     45  UVELMASS exists 
(PID.TID 0000.0001)  MDS_WRITE_FIELD: it,rec,kS,kL,kH=      38    -1  32   1   1 file=VVEL1.0000000038
 Computing Diagnostic #     83  atmPload     Counter:       1   Parms: SM      U1      
(PID.TID 0000.0001)  MDS_WRITE_FIELD: it,rec,kS,kL,kH=      38    -1  32   1   1 file=atmPload.0000000038
(PID.TID 0000.0001)  write diagnostics summary to file: diagnostics_status.0000000039.txt
(PID.TID 0000.0001) DEBUG_MSG: LEAVING S/R FORWARD_STEP
(PID.TID 0000.0001) DEBUG_MSG: ENTERED S/R FORWARD_STEP
(PID.TID 0000.0001) DEBUG_MSG: CALLING S/R LOAD_FIELDS_DRIVER
(PID.TID 0000.0001) DEBUG_MSG: ENTERED S/R LOAD_FIELDS_DRIVER
(PID.TID 0000.0001) DEBUG_MSG: CALLING S/R EXTERNAL_FIELDS_LOAD
(PID.TID 0000.0001) DEBUG_MSG: LEAVING S/R LOAD_FIELDS_DRIVER
(PID.TID 0000.0001) DEBUG_MSG: CALLING S/R DO_ATMOSPHERIC_PHYS
(PID.TID 0000.0001) DEBUG_MSG: ENTERED S/R DO_ATMOSPHERIC_PHYS
(PID.TID 0000.0001) DEBUG_MSG: LEAVING S/R DO_ATMOSPHERIC_PHYS
(PID.TID 0000.0001) DEBUG_MSG: CALLING S/R DO_OCEANIC_PHYS
(PID.TID 0000.0001) DEBUG_MSG: ENTERED S/R DO_OCEANIC_PHYS
(PID.TID 0000.0001) DEBUG_MSG: CALLING S/R EXTERNAL_FORCING_SURF
(PID.TID 0000.0001) DEBUG_MSG: CALLING S/R FIND_RHO_2D (xNr)
(PID.TID 0000.0001) DEBUG_MSG:                  ENTERING UPWARD K LOOP (bi=   1, bj=   1)
(PID.TID 0000.0001) DEBUG_MSG: CALLING S/R GRAD_SIGMA
(PID.TID 0000.0001) DEBUG_MSG: CALLING S/R CALC_IVDC
(PID.TID 0000.0001) DEBUG_MSG: CALLING S/R GRAD_SIGMA
(PID.TID 0000.0001) DEBUG_MSG: CALLING S/R CALC_IVDC
(PID.TID 0000.0001) DEBUG_MSG: CALLING S/R GRAD_SIGMA
(PID.TID 0000.0001) DEBUG_MSG: CALLING S/R CALC_IVDC
(PID.TID 0000.0001) DEBUG_MSG: CALLING S/R GRAD_SIGMA
(PID.TID 0000.0001) DEBUG_MSG: CALLING S/R CALC_IVDC
(PID.TID 0000.0001) DEBUG_MSG: CALLING S/R GRAD_SIGMA
(PID.TID 0000.0001) DEBUG_MSG: CALLING S/R CALC_IVDC
(PID.TID 0000.0001) DEBUG_MSG: CALLING S/R GRAD_SIGMA
(PID.TID 0000.0001) DEBUG_MSG: CALLING S/R CALC_IVDC
(PID.TID 0000.0001) DEBUG_MSG: CALLING S/R GRAD_SIGMA
(PID.TID 0000.0001) DEBUG_MSG: CALLING S/R CALC_IVDC
(PID.TID 0000.0001) DEBUG_MSG: CALLING S/R GRAD_SIGMA
(PID.TID 0000.0001) DEBUG_MSG: CALLING S/R CALC_IVDC
(PID.TID 0000.0001) DEBUG_MSG: CALLING S/R GRAD_SIGMA
(PID.TID 0000.0001) DEBUG_MSG: CALLING S/R CALC_IVDC
(PID.TID 0000.0001) DEBUG_MSG: CALLING S/R GRAD_SIGMA
(PID.TID 0000.0001) DEBUG_MSG: CALLING S/R CALC_IVDC
(PID.TID 0000.0001) DEBUG_MSG: CALLING S/R GRAD_SIGMA
(PID.TID 0000.0001) DEBUG_MSG: CALLING S/R CALC_IVDC
(PID.TID 0000.0001) DEBUG_MSG: CALLING S/R GRAD_SIGMA
(PID.TID 0000.0001) DEBUG_MSG: CALLING S/R CALC_IVDC
(PID.TID 0000.0001) DEBUG_MSG: CALLING S/R GRAD_SIGMA
(PID.TID 0000.0001) DEBUG_MSG: CALLING S/R CALC_IVDC
(PID.TID 0000.0001) DEBUG_MSG: CALLING S/R GRAD_SIGMA
(PID.TID 0000.0001) DEBUG_MSG: CALLING S/R CALC_IVDC
(PID.TID 0000.0001) DEBUG_MSG: CALLING S/R GRAD_SIGMA
(PID.TID 0000.0001) DEBUG_MSG: CALLING S/R CALC_IVDC
(PID.TID 0000.0001) DEBUG_MSG: CALLING S/R GRAD_SIGMA
(PID.TID 0000.0001) DEBUG_MSG: CALLING S/R GMREDI_CALC_TENSOR
(PID.TID 0000.0001) DEBUG_MSG: LEAVING S/R DO_OCEANIC_PHYS
(PID.TID 0000.0001) DEBUG_MSG: CALLING S/R DYNAMICS
(PID.TID 0000.0001) DEBUG_MSG: ENTERED S/R DYNAMICS
DEBUG_STATS_RL:                EtaN (DYNAMICS)  min= -8.37071068101221E-01
DEBUG_STATS_RL:                EtaN (DYNAMICS)  max=  2.48574863562512E+00
DEBUG_STATS_RL:                EtaN (DYNAMICS) mean=  2.93307525285926E-02
DEBUG_STATS_RL:                EtaN (DYNAMICS) S.D.=  1.02890770220201E-01
DEBUG_STATS_RL:                Uvel (DYNAMICS)  min= -1.02336241067936E+00
DEBUG_STATS_RL:                Uvel (DYNAMICS)  max=  4.35314249185983E-01
DEBUG_STATS_RL:                Uvel (DYNAMICS) mean= -7.07747023735733E-04
DEBUG_STATS_RL:                Uvel (DYNAMICS) S.D.=  2.21596902563476E-02
DEBUG_STATS_RL:                Vvel (DYNAMICS)  min= -9.68966937809855E-01
DEBUG_STATS_RL:                Vvel (DYNAMICS)  max=  1.13014991494507E+00
DEBUG_STATS_RL:                Vvel (DYNAMICS) mean= -7.84554371171562E-04
DEBUG_STATS_RL:                Vvel (DYNAMICS) S.D.=  2.55452196507140E-02
DEBUG_STATS_RL:                Wvel (DYNAMICS)  min= -2.32533339388521E-04
DEBUG_STATS_RL:                Wvel (DYNAMICS)  max=  2.15209037635058E-04
DEBUG_STATS_RL:                Wvel (DYNAMICS) mean= -1.55511587185434E-07
DEBUG_STATS_RL:                Wvel (DYNAMICS) S.D.=  8.28728207942024E-06
DEBUG_STATS_RL:               Theta (DYNAMICS)  min=  1.61525813507770E+01
DEBUG_STATS_RL:               Theta (DYNAMICS)  max=  2.23333499182813E+01
DEBUG_STATS_RL:               Theta (DYNAMICS) mean=  2.00000763857283E+01
DEBUG_STATS_RL:               Theta (DYNAMICS) S.D.=  7.44183004224667E-02
DEBUG_STATS_RL:                Salt (DYNAMICS)  min=  2.65934334235683E+01
DEBUG_STATS_RL:                Salt (DYNAMICS)  max=  3.51511096274331E+01
DEBUG_STATS_RL:                Salt (DYNAMICS) mean=  3.49978797640835E+01
DEBUG_STATS_RL:                Salt (DYNAMICS) S.D.=  9.51041277258608E-02
DEBUG_STATS_RL:                  Gu (DYNAMICS)  min= -1.03384137469021E+00
DEBUG_STATS_RL:                  Gu (DYNAMICS)  max=  4.15033228480504E-01
DEBUG_STATS_RL:                  Gu (DYNAMICS) mean= -7.42724350490018E-04
DEBUG_STATS_RL:                  Gu (DYNAMICS) S.D.=  2.21612463554556E-02
DEBUG_STATS_RL:                  Gv (DYNAMICS)  min= -9.15098107008345E-01
DEBUG_STATS_RL:                  Gv (DYNAMICS)  max=  1.10877633784512E+00
DEBUG_STATS_RL:                  Gv (DYNAMICS) mean= -7.88978996174430E-04
DEBUG_STATS_RL:                  Gv (DYNAMICS) S.D.=  2.51114735198618E-02
DEBUG_STATS_RL:               GuNm1 (DYNAMICS)  min= -4.32397221678843E-05
DEBUG_STATS_RL:               GuNm1 (DYNAMICS)  max=  2.75495860877209E-05
DEBUG_STATS_RL:               GuNm1 (DYNAMICS) mean= -4.23182302071188E-08
DEBUG_STATS_RL:               GuNm1 (DYNAMICS) S.D.=  1.43911071352480E-06
DEBUG_STATS_RL:               GvNm1 (DYNAMICS)  min= -2.72147745858528E-05
DEBUG_STATS_RL:               GvNm1 (DYNAMICS)  max=  6.49102592746355E-05
DEBUG_STATS_RL:               GvNm1 (DYNAMICS) mean= -6.92203653696620E-09
DEBUG_STATS_RL:               GvNm1 (DYNAMICS) S.D.=  1.53639380320699E-06
DEBUG_STATS_RL:               GtNm1 (DYNAMICS)  min= -3.20413137276821E-06
DEBUG_STATS_RL:               GtNm1 (DYNAMICS)  max=  1.20186879760444E-05
DEBUG_STATS_RL:               GtNm1 (DYNAMICS) mean=  2.29814607929802E-09
DEBUG_STATS_RL:               GtNm1 (DYNAMICS) S.D.=  1.28773454263445E-07
DEBUG_STATS_RL:               GsNm1 (DYNAMICS)  min= -1.62301815233725E-05
DEBUG_STATS_RL:               GsNm1 (DYNAMICS)  max=  1.97318660684623E-06
DEBUG_STATS_RL:               GsNm1 (DYNAMICS) mean= -4.51622644555094E-09
DEBUG_STATS_RL:               GsNm1 (DYNAMICS) S.D.=  2.00032263804799E-07
(PID.TID 0000.0001) DEBUG_MSG: LEAVING S/R DYNAMICS
DEBUG_STATS_RL:    cg2d_b (SOLVE_FOR_PRESSURE)  min= -3.03730510626154E+05
DEBUG_STATS_RL:    cg2d_b (SOLVE_FOR_PRESSURE)  max=  9.76160699564720E+04
DEBUG_STATS_RL:    cg2d_b (SOLVE_FOR_PRESSURE) mean= -3.01229338051169E+03
DEBUG_STATS_RL:    cg2d_b (SOLVE_FOR_PRESSURE) S.D.=  1.03322421680559E+04
 cg2d: Sum(rhs),rhsMax =  -4.38360200113371E+01  5.81843301262550E+01
(PID.TID 0000.0001)  cg2d: iter=     1 ; resid.=  3.14262957123741E-02
(PID.TID 0000.0001)  cg2d: iter=     2 ; resid.=  4.25849893995006E-03
(PID.TID 0000.0001)  cg2d: iter=     3 ; resid.=  1.00565484151893E-03
(PID.TID 0000.0001)  cg2d: iter=     4 ; resid.=  3.40962815142705E-04
(PID.TID 0000.0001)  cg2d: iter=     5 ; resid.=  9.52437747682933E-05
(PID.TID 0000.0001)  cg2d: iter=     6 ; resid.=  2.21201327360792E-05
(PID.TID 0000.0001)  cg2d: iter=     7 ; resid.=  4.47113261946327E-06
(PID.TID 0000.0001)  cg2d: iter=     8 ; resid.=  1.04900064825281E-06
(PID.TID 0000.0001)  cg2d: iter=     9 ; resid.=  3.25863906081377E-07
(PID.TID 0000.0001)  cg2d: iter=    10 ; resid.=  1.05592958857486E-07
(PID.TID 0000.0001)  cg2d: iter=    11 ; resid.=  2.34791970892967E-08
DEBUG_STATS_RL:    cg2d_x (SOLVE_FOR_PRESSURE)  min= -8.61093805457953E+00
DEBUG_STATS_RL:    cg2d_x (SOLVE_FOR_PRESSURE)  max=  2.54639705258573E+01
DEBUG_STATS_RL:    cg2d_x (SOLVE_FOR_PRESSURE) mean=  2.90931457223335E-01
DEBUG_STATS_RL:    cg2d_x (SOLVE_FOR_PRESSURE) S.D.=  1.01706635588914E+00
(PID.TID 0000.0001)      cg2d_init_res =   2.75809240387498E-01
(PID.TID 0000.0001)      cg2d_iters(min,last) =      -1      11
(PID.TID 0000.0001)      cg2d_last_res =   2.34791970892967E-08
(PID.TID 0000.0001) DEBUG_MSG: CALLING S/R UPDATE_ETAH
(PID.TID 0000.0001) DEBUG_MSG: ENTERED S/R CALC_R_STAR
(PID.TID 0000.0001) DEBUG_MSG: LEAVING S/R CALC_R_STAR
(PID.TID 0000.0001) DEBUG_MSG: CALLING S/R DO_STAGGER_FIELDS_EXCH.
(PID.TID 0000.0001) DEBUG_MSG: CALLING S/R THERMODYNAMICS
(PID.TID 0000.0001) DEBUG_MSG: ENTERED S/R THERMODYNAMICS
(PID.TID 0000.0001) DEBUG_MSG: CALLING S/R TEMP_INTEGRATE
(PID.TID 0000.0001) DEBUG_MSG: CALLING S/R SALT_INTEGRATE
DEBUG_STATS_RL:          Uvel (THERMODYNAMICS)  min= -9.87935586813127E-01
DEBUG_STATS_RL:          Uvel (THERMODYNAMICS)  max=  4.42799607265901E-01
DEBUG_STATS_RL:          Uvel (THERMODYNAMICS) mean= -7.37700062756890E-04
DEBUG_STATS_RL:          Uvel (THERMODYNAMICS) S.D.=  2.20363322821864E-02
DEBUG_STATS_RL:          Vvel (THERMODYNAMICS)  min= -8.73987073070290E-01
DEBUG_STATS_RL:          Vvel (THERMODYNAMICS)  max=  1.08447440522304E+00
DEBUG_STATS_RL:          Vvel (THERMODYNAMICS) mean= -7.69170640608552E-04
DEBUG_STATS_RL:          Vvel (THERMODYNAMICS) S.D.=  2.49834176251128E-02
DEBUG_STATS_RL:          Wvel (THERMODYNAMICS)  min= -2.27613106521041E-04
DEBUG_STATS_RL:          Wvel (THERMODYNAMICS)  max=  2.12625844792685E-04
DEBUG_STATS_RL:          Wvel (THERMODYNAMICS) mean= -1.60301157771048E-07
DEBUG_STATS_RL:          Wvel (THERMODYNAMICS) S.D.=  8.23231464009255E-06
DEBUG_STATS_RL:         Theta (THERMODYNAMICS)  min=  1.61586267047268E+01
DEBUG_STATS_RL:         Theta (THERMODYNAMICS)  max=  2.23790539744501E+01
DEBUG_STATS_RL:         Theta (THERMODYNAMICS) mean=  2.00001977597326E+01
DEBUG_STATS_RL:         Theta (THERMODYNAMICS) S.D.=  7.50496758706020E-02
DEBUG_STATS_RL:          Salt (THERMODYNAMICS)  min=  2.64727862838829E+01
DEBUG_STATS_RL:          Salt (THERMODYNAMICS)  max=  3.51511059130372E+01
DEBUG_STATS_RL:          Salt (THERMODYNAMICS) mean=  3.49978437716347E+01
DEBUG_STATS_RL:          Salt (THERMODYNAMICS) S.D.=  9.65174839770146E-02
DEBUG_STATS_RL:         GtNm1 (THERMODYNAMICS)  min= -3.58793782170498E-06
DEBUG_STATS_RL:         GtNm1 (THERMODYNAMICS)  max=  1.12954334840941E-05
DEBUG_STATS_RL:         GtNm1 (THERMODYNAMICS) mean=  2.15710876861826E-09
DEBUG_STATS_RL:         GtNm1 (THERMODYNAMICS) S.D.=  1.22981635170964E-07
DEBUG_STATS_RL:         GsNm1 (THERMODYNAMICS)  min= -1.62848150892730E-05
DEBUG_STATS_RL:         GsNm1 (THERMODYNAMICS)  max=  1.94814824943827E-06
DEBUG_STATS_RL:         GsNm1 (THERMODYNAMICS) mean= -4.51549089430716E-09
DEBUG_STATS_RL:         GsNm1 (THERMODYNAMICS) S.D.=  1.99605072235429E-07
(PID.TID 0000.0001) DEBUG_MSG: LEAVING S/R THERMODYNAMICS
(PID.TID 0000.0001) // =======================================================
(PID.TID 0000.0001) // Begin MONITOR dynamic field statistics
(PID.TID 0000.0001) // =======================================================
(PID.TID 0000.0001) %MON time_tsnumber                =                    40
(PID.TID 0000.0001) %MON time_secondsf                =   3.6000000000000E+04
(PID.TID 0000.0001) %MON dynstat_eta_max              =   2.5957156488353E+00
(PID.TID 0000.0001) %MON dynstat_eta_min              =  -8.7777146233012E-01
(PID.TID 0000.0001) %MON dynstat_eta_mean             =   2.9637278991698E-02
(PID.TID 0000.0001) %MON dynstat_eta_sd               =   9.9634294002669E-02
(PID.TID 0000.0001) %MON dynstat_eta_del2             =   1.9133418941357E-03
(PID.TID 0000.0001) %MON dynstat_uvel_max             =   4.4279960726590E-01
(PID.TID 0000.0001) %MON dynstat_uvel_min             =  -9.8793558681313E-01
(PID.TID 0000.0001) %MON dynstat_uvel_mean            =  -8.8935470826283E-05
(PID.TID 0000.0001) %MON dynstat_uvel_sd              =   7.2644916055148E-03
(PID.TID 0000.0001) %MON dynstat_uvel_del2            =   9.8219059837769E-05
(PID.TID 0000.0001) %MON dynstat_vvel_max             =   1.0844744052230E+00
(PID.TID 0000.0001) %MON dynstat_vvel_min             =  -8.7398707307029E-01
(PID.TID 0000.0001) %MON dynstat_vvel_mean            =   1.5482132702728E-04
(PID.TID 0000.0001) %MON dynstat_vvel_sd              =   8.0450034279785E-03
(PID.TID 0000.0001) %MON dynstat_vvel_del2            =   1.4286287668282E-04
(PID.TID 0000.0001) %MON dynstat_wvel_max             =   2.1262584479268E-04
(PID.TID 0000.0001) %MON dynstat_wvel_min             =  -2.2761310652104E-04
(PID.TID 0000.0001) %MON dynstat_wvel_mean            =  -1.2761943806824E-08
(PID.TID 0000.0001) %MON dynstat_wvel_sd              =   7.5586731959334E-06
(PID.TID 0000.0001) %MON dynstat_wvel_del2            =   7.1798334071945E-08
(PID.TID 0000.0001) %MON dynstat_theta_max            =   2.2379053974450E+01
(PID.TID 0000.0001) %MON dynstat_theta_min            =   1.6158626704727E+01
(PID.TID 0000.0001) %MON dynstat_theta_mean           =   1.9997880834950E+01
(PID.TID 0000.0001) %MON dynstat_theta_sd             =   2.5138644677977E-02
(PID.TID 0000.0001) %MON dynstat_theta_del2           =   4.5679533323270E-04
(PID.TID 0000.0001) %MON dynstat_salt_max             =   3.5151105913037E+01
(PID.TID 0000.0001) %MON dynstat_salt_min             =   2.6472786283883E+01
(PID.TID 0000.0001) %MON dynstat_salt_mean            =   3.4999711438227E+01
(PID.TID 0000.0001) %MON dynstat_salt_sd              =   2.9786518143884E-02
(PID.TID 0000.0001) %MON dynstat_salt_del2            =   1.0387627260497E-03
(PID.TID 0000.0001) %MON dynstat_sst_max              =   2.2379053974450E+01
(PID.TID 0000.0001) %MON dynstat_sst_min              =   1.6158626704727E+01
(PID.TID 0000.0001) %MON dynstat_sst_mean             =   2.0095590721287E+01
(PID.TID 0000.0001) %MON dynstat_sst_sd               =   2.2605919363793E-01
(PID.TID 0000.0001) %MON dynstat_sst_del2             =   5.0569182898279E-03
(PID.TID 0000.0001) %MON dynstat_sss_max              =   3.5151105913037E+01
(PID.TID 0000.0001) %MON dynstat_sss_min              =   2.6472786283883E+01
(PID.TID 0000.0001) %MON dynstat_sss_mean             =   3.4974642376487E+01
(PID.TID 0000.0001) %MON dynstat_sss_sd               =   3.5950742417950E-01
(PID.TID 0000.0001) %MON dynstat_sss_del2             =   1.4071028910124E-02
(PID.TID 0000.0001) %MON forcing_qnet_max             =   4.0183304224380E+03
(PID.TID 0000.0001) %MON forcing_qnet_min             =  -4.7964721424206E+03
(PID.TID 0000.0001) %MON forcing_qnet_mean            =  -2.4118241431779E+01
(PID.TID 0000.0001) %MON forcing_qnet_sd              =   5.6123684863462E+02
(PID.TID 0000.0001) %MON forcing_qnet_del2            =   8.3874058099317E+00
(PID.TID 0000.0001) %MON forcing_qsw_max              =   0.0000000000000E+00
(PID.TID 0000.0001) %MON forcing_qsw_min              =  -1.0743943693914E+02
(PID.TID 0000.0001) %MON forcing_qsw_mean             =  -1.4145138718179E+01
(PID.TID 0000.0001) %MON forcing_qsw_sd               =   2.5500450418412E+01
(PID.TID 0000.0001) %MON forcing_qsw_del2             =   2.0248273032125E-01
(PID.TID 0000.0001) %MON forcing_empmr_max            =   7.4063567444682E-03
(PID.TID 0000.0001) %MON forcing_empmr_min            =  -1.0646077990532E-01
(PID.TID 0000.0001) %MON forcing_empmr_mean           =  -4.6092357523917E-04
(PID.TID 0000.0001) %MON forcing_empmr_sd             =   4.7063656741942E-03
(PID.TID 0000.0001) %MON forcing_empmr_del2           =   1.8501276246005E-04
(PID.TID 0000.0001) %MON forcing_fu_max               =   6.6958329979552E-01
(PID.TID 0000.0001) %MON forcing_fu_min               =  -5.6582175910149E-01
(PID.TID 0000.0001) %MON forcing_fu_mean              =  -8.6270207905807E-04
(PID.TID 0000.0001) %MON forcing_fu_sd                =   9.0190568746040E-02
(PID.TID 0000.0001) %MON forcing_fu_del2              =   7.5522011320829E-04
(PID.TID 0000.0001) %MON forcing_fv_max               =   4.8284195123690E-01
(PID.TID 0000.0001) %MON forcing_fv_min               =  -4.0955919360435E-01
(PID.TID 0000.0001) %MON forcing_fv_mean              =  -4.5574077520685E-03
(PID.TID 0000.0001) %MON forcing_fv_sd                =   8.0109514276373E-02
(PID.TID 0000.0001) %MON forcing_fv_del2              =   6.6667980008587E-04
(PID.TID 0000.0001) %MON trAdv_CFL_u_max              =   3.3744726486452E-03
(PID.TID 0000.0001) %MON trAdv_CFL_v_max              =   3.9162578152662E-03
(PID.TID 0000.0001) %MON trAdv_CFL_w_max              =   3.3829576566950E-03
(PID.TID 0000.0001) %MON advcfl_uvel_max              =   3.2945346304292E-03
(PID.TID 0000.0001) %MON advcfl_vvel_max              =   3.2499197233072E-03
(PID.TID 0000.0001) %MON advcfl_wvel_max              =   7.4059672977613E-03
(PID.TID 0000.0001) %MON advcfl_W_hf_max              =   3.3829576566950E-03
(PID.TID 0000.0001) %MON pe_b_mean                    =   1.4394623136039E-05
(PID.TID 0000.0001) %MON ke_max                       =   4.3331055224358E-01
(PID.TID 0000.0001) %MON ke_mean                      =   5.4287525705945E-05
(PID.TID 0000.0001) %MON ke_vol                       =   1.3398130841286E+18
(PID.TID 0000.0001) %MON vort_r_min                   =  -3.5682358137261E-06
(PID.TID 0000.0001) %MON vort_r_max                   =   4.4203030346697E-06
(PID.TID 0000.0001) %MON vort_a_mean                  =  -2.0549865324846E-05
(PID.TID 0000.0001) %MON vort_a_sd                    =   7.5259277024636E-05
(PID.TID 0000.0001) %MON vort_p_mean                  =  -2.4783329686199E-05
(PID.TID 0000.0001) %MON vort_p_sd                    =   1.2810555067974E-04
(PID.TID 0000.0001) %MON surfExpan_theta_mean         =  -8.0168054722117E-07
(PID.TID 0000.0001) %MON surfExpan_salt_mean          =   1.5774531444334E-06
(PID.TID 0000.0001) // =======================================================
(PID.TID 0000.0001) // End MONITOR dynamic field statistics
(PID.TID 0000.0001) // =======================================================
(PID.TID 0000.0001) DEBUG_MSG: LEAVING S/R FORWARD_STEP
(PID.TID 0000.0001) DEBUG_MSG: ENTERED S/R FORWARD_STEP
(PID.TID 0000.0001) DEBUG_MSG: CALLING S/R LOAD_FIELDS_DRIVER
(PID.TID 0000.0001) DEBUG_MSG: ENTERED S/R LOAD_FIELDS_DRIVER
(PID.TID 0000.0001) DEBUG_MSG: CALLING S/R EXTERNAL_FIELDS_LOAD
(PID.TID 0000.0001) DEBUG_MSG: LEAVING S/R LOAD_FIELDS_DRIVER
(PID.TID 0000.0001) DEBUG_MSG: CALLING S/R DO_ATMOSPHERIC_PHYS
(PID.TID 0000.0001) DEBUG_MSG: ENTERED S/R DO_ATMOSPHERIC_PHYS
(PID.TID 0000.0001) DEBUG_MSG: LEAVING S/R DO_ATMOSPHERIC_PHYS
(PID.TID 0000.0001) DEBUG_MSG: CALLING S/R DO_OCEANIC_PHYS
(PID.TID 0000.0001) DEBUG_MSG: ENTERED S/R DO_OCEANIC_PHYS
(PID.TID 0000.0001) DEBUG_MSG: CALLING S/R EXTERNAL_FORCING_SURF
(PID.TID 0000.0001) DEBUG_MSG: CALLING S/R FIND_RHO_2D (xNr)
(PID.TID 0000.0001) DEBUG_MSG:                  ENTERING UPWARD K LOOP (bi=   1, bj=   1)
(PID.TID 0000.0001) DEBUG_MSG: CALLING S/R GRAD_SIGMA
(PID.TID 0000.0001) DEBUG_MSG: CALLING S/R CALC_IVDC
(PID.TID 0000.0001) DEBUG_MSG: CALLING S/R GRAD_SIGMA
(PID.TID 0000.0001) DEBUG_MSG: CALLING S/R CALC_IVDC
(PID.TID 0000.0001) DEBUG_MSG: CALLING S/R GRAD_SIGMA
(PID.TID 0000.0001) DEBUG_MSG: CALLING S/R CALC_IVDC
(PID.TID 0000.0001) DEBUG_MSG: CALLING S/R GRAD_SIGMA
(PID.TID 0000.0001) DEBUG_MSG: CALLING S/R CALC_IVDC
(PID.TID 0000.0001) DEBUG_MSG: CALLING S/R GRAD_SIGMA
(PID.TID 0000.0001) DEBUG_MSG: CALLING S/R CALC_IVDC
(PID.TID 0000.0001) DEBUG_MSG: CALLING S/R GRAD_SIGMA
(PID.TID 0000.0001) DEBUG_MSG: CALLING S/R CALC_IVDC
(PID.TID 0000.0001) DEBUG_MSG: CALLING S/R GRAD_SIGMA
(PID.TID 0000.0001) DEBUG_MSG: CALLING S/R CALC_IVDC
(PID.TID 0000.0001) DEBUG_MSG: CALLING S/R GRAD_SIGMA
(PID.TID 0000.0001) DEBUG_MSG: CALLING S/R CALC_IVDC
(PID.TID 0000.0001) DEBUG_MSG: CALLING S/R GRAD_SIGMA
(PID.TID 0000.0001) DEBUG_MSG: CALLING S/R CALC_IVDC
(PID.TID 0000.0001) DEBUG_MSG: CALLING S/R GRAD_SIGMA
(PID.TID 0000.0001) DEBUG_MSG: CALLING S/R CALC_IVDC
(PID.TID 0000.0001) DEBUG_MSG: CALLING S/R GRAD_SIGMA
(PID.TID 0000.0001) DEBUG_MSG: CALLING S/R CALC_IVDC
(PID.TID 0000.0001) DEBUG_MSG: CALLING S/R GRAD_SIGMA
(PID.TID 0000.0001) DEBUG_MSG: CALLING S/R CALC_IVDC
(PID.TID 0000.0001) DEBUG_MSG: CALLING S/R GRAD_SIGMA
(PID.TID 0000.0001) DEBUG_MSG: CALLING S/R CALC_IVDC
(PID.TID 0000.0001) DEBUG_MSG: CALLING S/R GRAD_SIGMA
(PID.TID 0000.0001) DEBUG_MSG: CALLING S/R CALC_IVDC
(PID.TID 0000.0001) DEBUG_MSG: CALLING S/R GRAD_SIGMA
(PID.TID 0000.0001) DEBUG_MSG: CALLING S/R CALC_IVDC
(PID.TID 0000.0001) DEBUG_MSG: CALLING S/R GRAD_SIGMA
(PID.TID 0000.0001) DEBUG_MSG: CALLING S/R GMREDI_CALC_TENSOR
(PID.TID 0000.0001) DEBUG_MSG: LEAVING S/R DO_OCEANIC_PHYS
(PID.TID 0000.0001) DEBUG_MSG: CALLING S/R DYNAMICS
(PID.TID 0000.0001) DEBUG_MSG: ENTERED S/R DYNAMICS
DEBUG_STATS_RL:                EtaN (DYNAMICS)  min= -8.77771462330116E-01
DEBUG_STATS_RL:                EtaN (DYNAMICS)  max=  2.59571564883533E+00
DEBUG_STATS_RL:                EtaN (DYNAMICS) mean=  2.96566215009049E-02
DEBUG_STATS_RL:                EtaN (DYNAMICS) S.D.=  1.03676488865900E-01
DEBUG_STATS_RL:                Uvel (DYNAMICS)  min= -9.87935586813127E-01
DEBUG_STATS_RL:                Uvel (DYNAMICS)  max=  4.42799607265901E-01
DEBUG_STATS_RL:                Uvel (DYNAMICS) mean= -7.37700062756890E-04
DEBUG_STATS_RL:                Uvel (DYNAMICS) S.D.=  2.20363322821864E-02
DEBUG_STATS_RL:                Vvel (DYNAMICS)  min= -8.73987073070290E-01
DEBUG_STATS_RL:                Vvel (DYNAMICS)  max=  1.08447440522304E+00
DEBUG_STATS_RL:                Vvel (DYNAMICS) mean= -7.69170640608552E-04
DEBUG_STATS_RL:                Vvel (DYNAMICS) S.D.=  2.49834176251128E-02
DEBUG_STATS_RL:                Wvel (DYNAMICS)  min= -2.27613106521041E-04
DEBUG_STATS_RL:                Wvel (DYNAMICS)  max=  2.12625844792685E-04
DEBUG_STATS_RL:                Wvel (DYNAMICS) mean= -1.60301157771048E-07
DEBUG_STATS_RL:                Wvel (DYNAMICS) S.D.=  8.23231464009255E-06
DEBUG_STATS_RL:               Theta (DYNAMICS)  min=  1.61586267047268E+01
DEBUG_STATS_RL:               Theta (DYNAMICS)  max=  2.23790539744501E+01
DEBUG_STATS_RL:               Theta (DYNAMICS) mean=  2.00001977597326E+01
DEBUG_STATS_RL:               Theta (DYNAMICS) S.D.=  7.50496758706020E-02
DEBUG_STATS_RL:                Salt (DYNAMICS)  min=  2.64727862838829E+01
DEBUG_STATS_RL:                Salt (DYNAMICS)  max=  3.51511059130372E+01
DEBUG_STATS_RL:                Salt (DYNAMICS) mean=  3.49978437716347E+01
DEBUG_STATS_RL:                Salt (DYNAMICS) S.D.=  9.65174839770146E-02
DEBUG_STATS_RL:                  Gu (DYNAMICS)  min= -9.94209910948071E-01
DEBUG_STATS_RL:                  Gu (DYNAMICS)  max=  4.21708486035145E-01
DEBUG_STATS_RL:                  Gu (DYNAMICS) mean= -7.67562694309895E-04
DEBUG_STATS_RL:                  Gu (DYNAMICS) S.D.=  2.20027427160905E-02
DEBUG_STATS_RL:                  Gv (DYNAMICS)  min= -8.21875888640129E-01
DEBUG_STATS_RL:                  Gv (DYNAMICS)  max=  1.06510877796487E+00
DEBUG_STATS_RL:                  Gv (DYNAMICS) mean= -7.72226223922352E-04
DEBUG_STATS_RL:                  Gv (DYNAMICS) S.D.=  2.45538353952815E-02
DEBUG_STATS_RL:               GuNm1 (DYNAMICS)  min= -3.97390412585543E-05
DEBUG_STATS_RL:               GuNm1 (DYNAMICS)  max=  2.65835604572172E-05
DEBUG_STATS_RL:               GuNm1 (DYNAMICS) mean= -3.69066662975741E-08
DEBUG_STATS_RL:               GuNm1 (DYNAMICS) S.D.=  1.39850905682292E-06
DEBUG_STATS_RL:               GvNm1 (DYNAMICS)  min= -2.92143320643193E-05
DEBUG_STATS_RL:               GvNm1 (DYNAMICS)  max=  6.35036145319541E-05
DEBUG_STATS_RL:               GvNm1 (DYNAMICS) mean= -5.14359482938993E-09
DEBUG_STATS_RL:               GvNm1 (DYNAMICS) S.D.=  1.54287760902844E-06
DEBUG_STATS_RL:               GtNm1 (DYNAMICS)  min= -3.58793782170498E-06
DEBUG_STATS_RL:               GtNm1 (DYNAMICS)  max=  1.12954334840941E-05
DEBUG_STATS_RL:               GtNm1 (DYNAMICS) mean=  2.15710876861826E-09
DEBUG_STATS_RL:               GtNm1 (DYNAMICS) S.D.=  1.22981635170964E-07
DEBUG_STATS_RL:               GsNm1 (DYNAMICS)  min= -1.62848150892730E-05
DEBUG_STATS_RL:               GsNm1 (DYNAMICS)  max=  1.94814824943827E-06
DEBUG_STATS_RL:               GsNm1 (DYNAMICS) mean= -4.51549089430716E-09
DEBUG_STATS_RL:               GsNm1 (DYNAMICS) S.D.=  1.99605072235429E-07
(PID.TID 0000.0001) DEBUG_MSG: LEAVING S/R DYNAMICS
DEBUG_STATS_RL:    cg2d_b (SOLVE_FOR_PRESSURE)  min= -3.15446088972537E+05
DEBUG_STATS_RL:    cg2d_b (SOLVE_FOR_PRESSURE)  max=  1.01070680528631E+05
DEBUG_STATS_RL:    cg2d_b (SOLVE_FOR_PRESSURE) mean= -3.05278946018752E+03
DEBUG_STATS_RL:    cg2d_b (SOLVE_FOR_PRESSURE) S.D.=  1.04397778062154E+04
 cg2d: Sum(rhs),rhsMax =  -4.27753897915772E+01  6.04286324083034E+01
(PID.TID 0000.0001)  cg2d: iter=     1 ; resid.=  2.93920912775856E-02
(PID.TID 0000.0001)  cg2d: iter=     2 ; resid.=  4.11937575906860E-03
(PID.TID 0000.0001)  cg2d: iter=     3 ; resid.=  1.02032546793091E-03
(PID.TID 0000.0001)  cg2d: iter=     4 ; resid.=  3.50099230739222E-04
(PID.TID 0000.0001)  cg2d: iter=     5 ; resid.=  9.19760575445834E-05
(PID.TID 0000.0001)  cg2d: iter=     6 ; resid.=  2.05404201977700E-05
(PID.TID 0000.0001)  cg2d: iter=     7 ; resid.=  4.19681392153632E-06
(PID.TID 0000.0001)  cg2d: iter=     8 ; resid.=  1.03507382822394E-06
(PID.TID 0000.0001)  cg2d: iter=     9 ; resid.=  2.95041187992057E-07
(PID.TID 0000.0001)  cg2d: iter=    10 ; resid.=  9.39535669993612E-08
DEBUG_STATS_RL:    cg2d_x (SOLVE_FOR_PRESSURE)  min= -8.90961009608528E+00
DEBUG_STATS_RL:    cg2d_x (SOLVE_FOR_PRESSURE)  max=  2.64396009135914E+01
DEBUG_STATS_RL:    cg2d_x (SOLVE_FOR_PRESSURE) mean=  2.94498085084999E-01
DEBUG_STATS_RL:    cg2d_x (SOLVE_FOR_PRESSURE) S.D.=  1.02941553316991E+00
(PID.TID 0000.0001)      cg2d_init_res =   2.56812869316693E-01
(PID.TID 0000.0001)      cg2d_iters(min,last) =      -1      10
(PID.TID 0000.0001)      cg2d_last_res =   9.39535669993612E-08
(PID.TID 0000.0001) DEBUG_MSG: CALLING S/R UPDATE_ETAH
(PID.TID 0000.0001) DEBUG_MSG: ENTERED S/R CALC_R_STAR
(PID.TID 0000.0001) DEBUG_MSG: LEAVING S/R CALC_R_STAR
(PID.TID 0000.0001) DEBUG_MSG: CALLING S/R DO_STAGGER_FIELDS_EXCH.
(PID.TID 0000.0001) DEBUG_MSG: CALLING S/R THERMODYNAMICS
(PID.TID 0000.0001) DEBUG_MSG: ENTERED S/R THERMODYNAMICS
(PID.TID 0000.0001) DEBUG_MSG: CALLING S/R TEMP_INTEGRATE
(PID.TID 0000.0001) DEBUG_MSG: CALLING S/R SALT_INTEGRATE
DEBUG_STATS_RL:          Uvel (THERMODYNAMICS)  min= -9.36301364349329E-01
DEBUG_STATS_RL:          Uvel (THERMODYNAMICS)  max=  4.48492736319653E-01
DEBUG_STATS_RL:          Uvel (THERMODYNAMICS) mean= -7.60938202638690E-04
DEBUG_STATS_RL:          Uvel (THERMODYNAMICS) S.D.=  2.18502279976378E-02
DEBUG_STATS_RL:          Vvel (THERMODYNAMICS)  min= -7.68599958278659E-01
DEBUG_STATS_RL:          Vvel (THERMODYNAMICS)  max=  1.02821269442300E+00
DEBUG_STATS_RL:          Vvel (THERMODYNAMICS) mean= -7.53114336244033E-04
DEBUG_STATS_RL:          Vvel (THERMODYNAMICS) S.D.=  2.43976451555934E-02
DEBUG_STATS_RL:          Wvel (THERMODYNAMICS)  min= -2.25662784464742E-04
DEBUG_STATS_RL:          Wvel (THERMODYNAMICS)  max=  2.09408079782161E-04
DEBUG_STATS_RL:          Wvel (THERMODYNAMICS) mean= -1.72213917945808E-07
DEBUG_STATS_RL:          Wvel (THERMODYNAMICS) S.D.=  8.16862901288674E-06
DEBUG_STATS_RL:         Theta (THERMODYNAMICS)  min=  1.61641073344616E+01
DEBUG_STATS_RL:         Theta (THERMODYNAMICS)  max=  2.24241506509163E+01
DEBUG_STATS_RL:         Theta (THERMODYNAMICS) mean=  2.00003178286535E+01
DEBUG_STATS_RL:         Theta (THERMODYNAMICS) S.D.=  7.56769240814514E-02
DEBUG_STATS_RL:          Salt (THERMODYNAMICS)  min=  2.63551569029246E+01
DEBUG_STATS_RL:          Salt (THERMODYNAMICS)  max=  3.51511015969210E+01
DEBUG_STATS_RL:          Salt (THERMODYNAMICS) mean=  3.49978090635099E+01
DEBUG_STATS_RL:          Salt (THERMODYNAMICS) S.D.=  9.78969847633222E-02
DEBUG_STATS_RL:         GtNm1 (THERMODYNAMICS)  min= -3.91231186267488E-06
DEBUG_STATS_RL:         GtNm1 (THERMODYNAMICS)  max=  1.04513220894202E-05
DEBUG_STATS_RL:         GtNm1 (THERMODYNAMICS) mean=  2.00418177419705E-09
DEBUG_STATS_RL:         GtNm1 (THERMODYNAMICS) S.D.=  1.16241234861552E-07
DEBUG_STATS_RL:         GsNm1 (THERMODYNAMICS)  min= -1.63313958090172E-05
DEBUG_STATS_RL:         GsNm1 (THERMODYNAMICS)  max=  1.92863283981969E-06
DEBUG_STATS_RL:         GsNm1 (THERMODYNAMICS) mean= -4.51243198967758E-09
DEBUG_STATS_RL:         GsNm1 (THERMODYNAMICS) S.D.=  1.99021625143470E-07
(PID.TID 0000.0001) DEBUG_MSG: LEAVING S/R THERMODYNAMICS
(PID.TID 0000.0001) // =======================================================
(PID.TID 0000.0001) // Begin MONITOR dynamic field statistics
(PID.TID 0000.0001) // =======================================================
(PID.TID 0000.0001) %MON time_tsnumber                =                    41
(PID.TID 0000.0001) %MON time_secondsf                =   3.6900000000000E+04
(PID.TID 0000.0001) %MON dynstat_eta_max              =   2.6951682938781E+00
(PID.TID 0000.0001) %MON dynstat_eta_min              =  -9.0821713932163E-01
(PID.TID 0000.0001) %MON dynstat_eta_mean             =   3.0035710837409E-02
(PID.TID 0000.0001) %MON dynstat_eta_sd               =   1.0079933381474E-01
(PID.TID 0000.0001) %MON dynstat_eta_del2             =   1.9716266315531E-03
(PID.TID 0000.0001) %MON dynstat_uvel_max             =   4.4849273631965E-01
(PID.TID 0000.0001) %MON dynstat_uvel_min             =  -9.3630136434933E-01
(PID.TID 0000.0001) %MON dynstat_uvel_mean            =  -1.0943059177780E-04
(PID.TID 0000.0001) %MON dynstat_uvel_sd              =   7.2248687300559E-03
(PID.TID 0000.0001) %MON dynstat_uvel_del2            =   9.7949443563087E-05
(PID.TID 0000.0001) %MON dynstat_vvel_max             =   1.0282126944230E+00
(PID.TID 0000.0001) %MON dynstat_vvel_min             =  -7.6859995827866E-01
(PID.TID 0000.0001) %MON dynstat_vvel_mean            =   1.9805440094140E-04
(PID.TID 0000.0001) %MON dynstat_vvel_sd              =   7.8675164796418E-03
(PID.TID 0000.0001) %MON dynstat_vvel_del2            =   1.3782321125036E-04
(PID.TID 0000.0001) %MON dynstat_wvel_max             =   2.0940807978216E-04
(PID.TID 0000.0001) %MON dynstat_wvel_min             =  -2.2566278446474E-04
(PID.TID 0000.0001) %MON dynstat_wvel_mean            =  -3.1953474240096E-08
(PID.TID 0000.0001) %MON dynstat_wvel_sd              =   7.5048979444370E-06
(PID.TID 0000.0001) %MON dynstat_wvel_del2            =   7.1983171622504E-08
(PID.TID 0000.0001) %MON dynstat_theta_max            =   2.2424150650916E+01
(PID.TID 0000.0001) %MON dynstat_theta_min            =   1.6164107334462E+01
(PID.TID 0000.0001) %MON dynstat_theta_mean           =   1.9997882135238E+01
(PID.TID 0000.0001) %MON dynstat_theta_sd             =   2.5340027120223E-02
(PID.TID 0000.0001) %MON dynstat_theta_del2           =   4.5952543486656E-04
(PID.TID 0000.0001) %MON dynstat_salt_max             =   3.5151101596921E+01
(PID.TID 0000.0001) %MON dynstat_salt_min             =   2.6355156902925E+01
(PID.TID 0000.0001) %MON dynstat_salt_mean            =   3.4999707522194E+01
(PID.TID 0000.0001) %MON dynstat_salt_sd              =   3.0211521708635E-02
(PID.TID 0000.0001) %MON dynstat_salt_del2            =   1.0532009408042E-03
(PID.TID 0000.0001) %MON dynstat_sst_max              =   2.2424150650916E+01
(PID.TID 0000.0001) %MON dynstat_sst_min              =   1.6164107334462E+01
(PID.TID 0000.0001) %MON dynstat_sst_mean             =   2.0097387293703E+01
(PID.TID 0000.0001) %MON dynstat_sst_sd               =   2.2831560334375E-01
(PID.TID 0000.0001) %MON dynstat_sst_del2             =   5.1002967583944E-03
(PID.TID 0000.0001) %MON dynstat_sss_max              =   3.5151101596921E+01
(PID.TID 0000.0001) %MON dynstat_sss_min              =   2.6355156902925E+01
(PID.TID 0000.0001) %MON dynstat_sss_mean             =   3.4974203999303E+01
(PID.TID 0000.0001) %MON dynstat_sss_sd               =   3.6463342825606E-01
(PID.TID 0000.0001) %MON dynstat_sss_del2             =   1.4266227672799E-02
(PID.TID 0000.0001) %MON forcing_qnet_max             =   3.9595692523777E+03
(PID.TID 0000.0001) %MON forcing_qnet_min             =  -4.7253778284024E+03
(PID.TID 0000.0001) %MON forcing_qnet_mean            =  -2.0923556285262E+01
(PID.TID 0000.0001) %MON forcing_qnet_sd              =   5.5563379981996E+02
(PID.TID 0000.0001) %MON forcing_qnet_del2            =   8.3911374625160E+00
(PID.TID 0000.0001) %MON forcing_qsw_max              =   0.0000000000000E+00
(PID.TID 0000.0001) %MON forcing_qsw_min              =  -1.0624640223976E+02
(PID.TID 0000.0001) %MON forcing_qsw_mean             =  -1.3813356832066E+01
(PID.TID 0000.0001) %MON forcing_qsw_sd               =   2.5416162955447E+01
(PID.TID 0000.0001) %MON forcing_qsw_del2             =   1.9329311753827E-01
(PID.TID 0000.0001) %MON forcing_empmr_max            =   7.3299957439303E-03
(PID.TID 0000.0001) %MON forcing_empmr_min            =  -1.0536324977875E-01
(PID.TID 0000.0001) %MON forcing_empmr_mean           =  -4.5819662256847E-04
(PID.TID 0000.0001) %MON forcing_empmr_sd             =   4.6585029411145E-03
(PID.TID 0000.0001) %MON forcing_empmr_del2           =   1.8311010152995E-04
(PID.TID 0000.0001) %MON forcing_fu_max               =   6.7012809983881E-01
(PID.TID 0000.0001) %MON forcing_fu_min               =  -5.5488037885714E-01
(PID.TID 0000.0001) %MON forcing_fu_mean              =  -9.3535190188462E-04
(PID.TID 0000.0001) %MON forcing_fu_sd                =   8.9972790760219E-02
(PID.TID 0000.0001) %MON forcing_fu_del2              =   7.5444858667526E-04
(PID.TID 0000.0001) %MON forcing_fv_max               =   4.7907265792756E-01
(PID.TID 0000.0001) %MON forcing_fv_min               =  -4.0675395374906E-01
(PID.TID 0000.0001) %MON forcing_fv_mean              =  -4.7235387317796E-03
(PID.TID 0000.0001) %MON forcing_fv_sd                =   8.0025485175688E-02
(PID.TID 0000.0001) %MON forcing_fv_del2              =   6.6532303895545E-04
(PID.TID 0000.0001) %MON trAdv_CFL_u_max              =   3.2085191718063E-03
(PID.TID 0000.0001) %MON trAdv_CFL_v_max              =   3.5236634338008E-03
(PID.TID 0000.0001) %MON trAdv_CFL_w_max              =   3.2817345546273E-03
(PID.TID 0000.0001) %MON advcfl_uvel_max              =   3.1223465482375E-03
(PID.TID 0000.0001) %MON advcfl_vvel_max              =   3.0813163494374E-03
(PID.TID 0000.0001) %MON advcfl_wvel_max              =   7.3296173759129E-03
(PID.TID 0000.0001) %MON advcfl_W_hf_max              =   3.2862872504111E-03
(PID.TID 0000.0001) %MON pe_b_mean                    =   1.4737375005141E-05
(PID.TID 0000.0001) %MON ke_max                       =   3.6389546654037E-01
(PID.TID 0000.0001) %MON ke_mean                      =   5.2722327772921E-05
(PID.TID 0000.0001) %MON ke_vol                       =   1.3398132299755E+18
(PID.TID 0000.0001) %MON vort_r_min                   =  -3.1722598284460E-06
(PID.TID 0000.0001) %MON vort_r_max                   =   4.4503976818349E-06
(PID.TID 0000.0001) %MON vort_a_mean                  =  -2.0549865324846E-05
(PID.TID 0000.0001) %MON vort_a_sd                    =   7.5259289123250E-05
(PID.TID 0000.0001) %MON vort_p_mean                  =  -2.4783327479497E-05
(PID.TID 0000.0001) %MON vort_p_sd                    =   1.2810556216326E-04
(PID.TID 0000.0001) %MON surfExpan_theta_mean         =  -7.4732486655502E-07
(PID.TID 0000.0001) %MON surfExpan_salt_mean          =   1.5770141038483E-06
(PID.TID 0000.0001) // =======================================================
(PID.TID 0000.0001) // End MONITOR dynamic field statistics
(PID.TID 0000.0001) // =======================================================
(PID.TID 0000.0001) DEBUG_MSG: LEAVING S/R FORWARD_STEP
(PID.TID 0000.0001) DEBUG_MSG: ENTERED S/R FORWARD_STEP
(PID.TID 0000.0001) DEBUG_MSG: CALLING S/R LOAD_FIELDS_DRIVER
(PID.TID 0000.0001) DEBUG_MSG: ENTERED S/R LOAD_FIELDS_DRIVER
(PID.TID 0000.0001) DEBUG_MSG: CALLING S/R EXTERNAL_FIELDS_LOAD
(PID.TID 0000.0001) DEBUG_MSG: LEAVING S/R LOAD_FIELDS_DRIVER
(PID.TID 0000.0001) DEBUG_MSG: CALLING S/R DO_ATMOSPHERIC_PHYS
(PID.TID 0000.0001) DEBUG_MSG: ENTERED S/R DO_ATMOSPHERIC_PHYS
(PID.TID 0000.0001) DEBUG_MSG: LEAVING S/R DO_ATMOSPHERIC_PHYS
(PID.TID 0000.0001) DEBUG_MSG: CALLING S/R DO_OCEANIC_PHYS
(PID.TID 0000.0001) DEBUG_MSG: ENTERED S/R DO_OCEANIC_PHYS
(PID.TID 0000.0001) DEBUG_MSG: CALLING S/R EXTERNAL_FORCING_SURF
(PID.TID 0000.0001) DEBUG_MSG: CALLING S/R FIND_RHO_2D (xNr)
(PID.TID 0000.0001) DEBUG_MSG:                  ENTERING UPWARD K LOOP (bi=   1, bj=   1)
(PID.TID 0000.0001) DEBUG_MSG: CALLING S/R GRAD_SIGMA
(PID.TID 0000.0001) DEBUG_MSG: CALLING S/R CALC_IVDC
(PID.TID 0000.0001) DEBUG_MSG: CALLING S/R GRAD_SIGMA
(PID.TID 0000.0001) DEBUG_MSG: CALLING S/R CALC_IVDC
(PID.TID 0000.0001) DEBUG_MSG: CALLING S/R GRAD_SIGMA
(PID.TID 0000.0001) DEBUG_MSG: CALLING S/R CALC_IVDC
(PID.TID 0000.0001) DEBUG_MSG: CALLING S/R GRAD_SIGMA
(PID.TID 0000.0001) DEBUG_MSG: CALLING S/R CALC_IVDC
(PID.TID 0000.0001) DEBUG_MSG: CALLING S/R GRAD_SIGMA
(PID.TID 0000.0001) DEBUG_MSG: CALLING S/R CALC_IVDC
(PID.TID 0000.0001) DEBUG_MSG: CALLING S/R GRAD_SIGMA
(PID.TID 0000.0001) DEBUG_MSG: CALLING S/R CALC_IVDC
(PID.TID 0000.0001) DEBUG_MSG: CALLING S/R GRAD_SIGMA
(PID.TID 0000.0001) DEBUG_MSG: CALLING S/R CALC_IVDC
(PID.TID 0000.0001) DEBUG_MSG: CALLING S/R GRAD_SIGMA
(PID.TID 0000.0001) DEBUG_MSG: CALLING S/R CALC_IVDC
(PID.TID 0000.0001) DEBUG_MSG: CALLING S/R GRAD_SIGMA
(PID.TID 0000.0001) DEBUG_MSG: CALLING S/R CALC_IVDC
(PID.TID 0000.0001) DEBUG_MSG: CALLING S/R GRAD_SIGMA
(PID.TID 0000.0001) DEBUG_MSG: CALLING S/R CALC_IVDC
(PID.TID 0000.0001) DEBUG_MSG: CALLING S/R GRAD_SIGMA
(PID.TID 0000.0001) DEBUG_MSG: CALLING S/R CALC_IVDC
(PID.TID 0000.0001) DEBUG_MSG: CALLING S/R GRAD_SIGMA
(PID.TID 0000.0001) DEBUG_MSG: CALLING S/R CALC_IVDC
(PID.TID 0000.0001) DEBUG_MSG: CALLING S/R GRAD_SIGMA
(PID.TID 0000.0001) DEBUG_MSG: CALLING S/R CALC_IVDC
(PID.TID 0000.0001) DEBUG_MSG: CALLING S/R GRAD_SIGMA
(PID.TID 0000.0001) DEBUG_MSG: CALLING S/R CALC_IVDC
(PID.TID 0000.0001) DEBUG_MSG: CALLING S/R GRAD_SIGMA
(PID.TID 0000.0001) DEBUG_MSG: CALLING S/R CALC_IVDC
(PID.TID 0000.0001) DEBUG_MSG: CALLING S/R GRAD_SIGMA
(PID.TID 0000.0001) DEBUG_MSG: CALLING S/R GMREDI_CALC_TENSOR
(PID.TID 0000.0001) DEBUG_MSG: LEAVING S/R DO_OCEANIC_PHYS
(PID.TID 0000.0001) DEBUG_MSG: CALLING S/R DYNAMICS
(PID.TID 0000.0001) DEBUG_MSG: ENTERED S/R DYNAMICS
DEBUG_STATS_RL:                EtaN (DYNAMICS)  min= -9.08217139321627E-01
DEBUG_STATS_RL:                EtaN (DYNAMICS)  max=  2.69516829387813E+00
DEBUG_STATS_RL:                EtaN (DYNAMICS) mean=  3.00201915926743E-02
DEBUG_STATS_RL:                EtaN (DYNAMICS) S.D.=  1.04935325086655E-01
DEBUG_STATS_RL:                Uvel (DYNAMICS)  min= -9.36301364349329E-01
DEBUG_STATS_RL:                Uvel (DYNAMICS)  max=  4.48492736319653E-01
DEBUG_STATS_RL:                Uvel (DYNAMICS) mean= -7.60938202638690E-04
DEBUG_STATS_RL:                Uvel (DYNAMICS) S.D.=  2.18502279976378E-02
DEBUG_STATS_RL:                Vvel (DYNAMICS)  min= -7.68599958278659E-01
DEBUG_STATS_RL:                Vvel (DYNAMICS)  max=  1.02821269442300E+00
DEBUG_STATS_RL:                Vvel (DYNAMICS) mean= -7.53114336244033E-04
DEBUG_STATS_RL:                Vvel (DYNAMICS) S.D.=  2.43976451555934E-02
DEBUG_STATS_RL:                Wvel (DYNAMICS)  min= -2.25662784464742E-04
DEBUG_STATS_RL:                Wvel (DYNAMICS)  max=  2.09408079782161E-04
DEBUG_STATS_RL:                Wvel (DYNAMICS) mean= -1.72213917945808E-07
DEBUG_STATS_RL:                Wvel (DYNAMICS) S.D.=  8.16862901288674E-06
DEBUG_STATS_RL:               Theta (DYNAMICS)  min=  1.61641073344616E+01
DEBUG_STATS_RL:               Theta (DYNAMICS)  max=  2.24241506509163E+01
DEBUG_STATS_RL:               Theta (DYNAMICS) mean=  2.00003178286535E+01
DEBUG_STATS_RL:               Theta (DYNAMICS) S.D.=  7.56769240814514E-02
DEBUG_STATS_RL:                Salt (DYNAMICS)  min=  2.63551569029246E+01
DEBUG_STATS_RL:                Salt (DYNAMICS)  max=  3.51511015969210E+01
DEBUG_STATS_RL:                Salt (DYNAMICS) mean=  3.49978090635099E+01
DEBUG_STATS_RL:                Salt (DYNAMICS) S.D.=  9.78969847633222E-02
DEBUG_STATS_RL:                  Gu (DYNAMICS)  min= -9.38598240175554E-01
DEBUG_STATS_RL:                  Gu (DYNAMICS)  max=  4.26656236278019E-01
DEBUG_STATS_RL:                  Gu (DYNAMICS) mean= -7.85673531150577E-04
DEBUG_STATS_RL:                  Gu (DYNAMICS) S.D.=  2.17789972969069E-02
DEBUG_STATS_RL:                  Gv (DYNAMICS)  min= -7.19051882819344E-01
DEBUG_STATS_RL:                  Gv (DYNAMICS)  max=  1.01097455743508E+00
DEBUG_STATS_RL:                  Gv (DYNAMICS) mean= -7.55018564070629E-04
DEBUG_STATS_RL:                  Gv (DYNAMICS) S.D.=  2.39788552046479E-02
DEBUG_STATS_RL:               GuNm1 (DYNAMICS)  min= -3.61209201449215E-05
DEBUG_STATS_RL:               GuNm1 (DYNAMICS)  max=  2.53016428114327E-05
DEBUG_STATS_RL:               GuNm1 (DYNAMICS) mean= -3.13105400802606E-08
DEBUG_STATS_RL:               GuNm1 (DYNAMICS) S.D.=  1.35931984480438E-06
DEBUG_STATS_RL:               GvNm1 (DYNAMICS)  min= -3.11393502246881E-05
DEBUG_STATS_RL:               GvNm1 (DYNAMICS)  max=  6.18673456230424E-05
DEBUG_STATS_RL:               GvNm1 (DYNAMICS) mean= -3.68550222925712E-09
DEBUG_STATS_RL:               GvNm1 (DYNAMICS) S.D.=  1.54450873807490E-06
DEBUG_STATS_RL:               GtNm1 (DYNAMICS)  min= -3.91231186267488E-06
DEBUG_STATS_RL:               GtNm1 (DYNAMICS)  max=  1.04513220894202E-05
DEBUG_STATS_RL:               GtNm1 (DYNAMICS) mean=  2.00418177419705E-09
DEBUG_STATS_RL:               GtNm1 (DYNAMICS) S.D.=  1.16241234861552E-07
DEBUG_STATS_RL:               GsNm1 (DYNAMICS)  min= -1.63313958090172E-05
DEBUG_STATS_RL:               GsNm1 (DYNAMICS)  max=  1.92863283981969E-06
DEBUG_STATS_RL:               GsNm1 (DYNAMICS) mean= -4.51243198967758E-09
DEBUG_STATS_RL:               GsNm1 (DYNAMICS) S.D.=  1.99021625143470E-07
(PID.TID 0000.0001) DEBUG_MSG: LEAVING S/R DYNAMICS
DEBUG_STATS_RL:    cg2d_b (SOLVE_FOR_PRESSURE)  min= -3.25773639557022E+05
DEBUG_STATS_RL:    cg2d_b (SOLVE_FOR_PRESSURE)  max=  1.03321965041064E+05
DEBUG_STATS_RL:    cg2d_b (SOLVE_FOR_PRESSURE) mean= -3.09317640118096E+03
DEBUG_STATS_RL:    cg2d_b (SOLVE_FOR_PRESSURE) S.D.=  1.05761434874082E+04
 cg2d: Sum(rhs),rhsMax =  -4.19672988637461E+01  6.24070362616550E+01
(PID.TID 0000.0001)  cg2d: iter=     1 ; resid.=  2.77306711720752E-02
(PID.TID 0000.0001)  cg2d: iter=     2 ; resid.=  4.04458428365303E-03
(PID.TID 0000.0001)  cg2d: iter=     3 ; resid.=  1.06547177245041E-03
(PID.TID 0000.0001)  cg2d: iter=     4 ; resid.=  3.65418494970262E-04
(PID.TID 0000.0001)  cg2d: iter=     5 ; resid.=  8.86836294922235E-05
(PID.TID 0000.0001)  cg2d: iter=     6 ; resid.=  1.92179838291575E-05
(PID.TID 0000.0001)  cg2d: iter=     7 ; resid.=  4.05836898631076E-06
(PID.TID 0000.0001)  cg2d: iter=     8 ; resid.=  1.02449068043629E-06
(PID.TID 0000.0001)  cg2d: iter=     9 ; resid.=  2.50396173421748E-07
(PID.TID 0000.0001)  cg2d: iter=    10 ; resid.=  7.34537150270096E-08
DEBUG_STATS_RL:    cg2d_x (SOLVE_FOR_PRESSURE)  min= -9.10270753286225E+00
DEBUG_STATS_RL:    cg2d_x (SOLVE_FOR_PRESSURE)  max=  2.72993528582814E+01
DEBUG_STATS_RL:    cg2d_x (SOLVE_FOR_PRESSURE) mean=  2.98449058954027E-01
DEBUG_STATS_RL:    cg2d_x (SOLVE_FOR_PRESSURE) S.D.=  1.04506625756081E+00
(PID.TID 0000.0001)      cg2d_init_res =   2.38490177973396E-01
(PID.TID 0000.0001)      cg2d_iters(min,last) =      -1      10
(PID.TID 0000.0001)      cg2d_last_res =   7.34537150270096E-08
(PID.TID 0000.0001) DEBUG_MSG: CALLING S/R UPDATE_ETAH
(PID.TID 0000.0001) DEBUG_MSG: ENTERED S/R CALC_R_STAR
(PID.TID 0000.0001) DEBUG_MSG: LEAVING S/R CALC_R_STAR
(PID.TID 0000.0001) DEBUG_MSG: CALLING S/R DO_STAGGER_FIELDS_EXCH.
(PID.TID 0000.0001) DEBUG_MSG: CALLING S/R THERMODYNAMICS
(PID.TID 0000.0001) DEBUG_MSG: ENTERED S/R THERMODYNAMICS
(PID.TID 0000.0001) DEBUG_MSG: CALLING S/R TEMP_INTEGRATE
(PID.TID 0000.0001) DEBUG_MSG: CALLING S/R SALT_INTEGRATE
DEBUG_STATS_RL:          Uvel (THERMODYNAMICS)  min= -8.70105261758154E-01
DEBUG_STATS_RL:          Uvel (THERMODYNAMICS)  max=  4.52343402804655E-01
DEBUG_STATS_RL:          Uvel (THERMODYNAMICS) mean= -7.78019476579521E-04
DEBUG_STATS_RL:          Uvel (THERMODYNAMICS) S.D.=  2.16068460245849E-02
DEBUG_STATS_RL:          Vvel (THERMODYNAMICS)  min= -6.54910457324321E-01
DEBUG_STATS_RL:          Vvel (THERMODYNAMICS)  max=  9.62780751633067E-01
DEBUG_STATS_RL:          Vvel (THERMODYNAMICS) mean= -7.36379484056428E-04
DEBUG_STATS_RL:          Vvel (THERMODYNAMICS) S.D.=  2.38048175193925E-02
DEBUG_STATS_RL:          Wvel (THERMODYNAMICS)  min= -2.30560397926438E-04
DEBUG_STATS_RL:          Wvel (THERMODYNAMICS)  max=  2.05755166092751E-04
DEBUG_STATS_RL:          Wvel (THERMODYNAMICS) mean= -1.90053699338396E-07
DEBUG_STATS_RL:          Wvel (THERMODYNAMICS) S.D.=  8.09600385107901E-06
DEBUG_STATS_RL:         Theta (THERMODYNAMICS)  min=  1.61689470662838E+01
DEBUG_STATS_RL:         Theta (THERMODYNAMICS)  max=  2.24686501219652E+01
DEBUG_STATS_RL:         Theta (THERMODYNAMICS) mean=  2.00004342976776E+01
DEBUG_STATS_RL:         Theta (THERMODYNAMICS) S.D.=  7.63039667412959E-02
DEBUG_STATS_RL:          Salt (THERMODYNAMICS)  min=  2.62404554663043E+01
DEBUG_STATS_RL:          Salt (THERMODYNAMICS)  max=  3.51510981946209E+01
DEBUG_STATS_RL:          Salt (THERMODYNAMICS) mean=  3.49977746632026E+01
DEBUG_STATS_RL:          Salt (THERMODYNAMICS) S.D.=  9.92436001581829E-02
DEBUG_STATS_RL:         GtNm1 (THERMODYNAMICS)  min= -4.05335626556638E-06
DEBUG_STATS_RL:         GtNm1 (THERMODYNAMICS)  max=  9.50513924210165E-06
DEBUG_STATS_RL:         GtNm1 (THERMODYNAMICS) mean=  1.84375894782109E-09
DEBUG_STATS_RL:         GtNm1 (THERMODYNAMICS) S.D.=  1.09039394745475E-07
DEBUG_STATS_RL:         GsNm1 (THERMODYNAMICS)  min= -1.63714947778421E-05
DEBUG_STATS_RL:         GsNm1 (THERMODYNAMICS)  max=  1.91529036951106E-06
DEBUG_STATS_RL:         GsNm1 (THERMODYNAMICS) mean= -4.50495322747157E-09
DEBUG_STATS_RL:         GsNm1 (THERMODYNAMICS) S.D.=  1.98259785078795E-07
(PID.TID 0000.0001) DEBUG_MSG: LEAVING S/R THERMODYNAMICS
(PID.TID 0000.0001) // =======================================================
(PID.TID 0000.0001) // Begin MONITOR dynamic field statistics
(PID.TID 0000.0001) // =======================================================
(PID.TID 0000.0001) %MON time_tsnumber                =                    42
(PID.TID 0000.0001) %MON time_secondsf                =   3.7800000000000E+04
(PID.TID 0000.0001) %MON dynstat_eta_max              =   2.7828086542024E+00
(PID.TID 0000.0001) %MON dynstat_eta_min              =  -9.2790087295086E-01
(PID.TID 0000.0001) %MON dynstat_eta_mean             =   3.0433068892102E-02
(PID.TID 0000.0001) %MON dynstat_eta_sd               =   1.0226701270842E-01
(PID.TID 0000.0001) %MON dynstat_eta_del2             =   2.0443444279946E-03
(PID.TID 0000.0001) %MON dynstat_uvel_max             =   4.5234340280466E-01
(PID.TID 0000.0001) %MON dynstat_uvel_min             =  -8.7010526175815E-01
(PID.TID 0000.0001) %MON dynstat_uvel_mean            =  -1.2683890450820E-04
(PID.TID 0000.0001) %MON dynstat_uvel_sd              =   7.1652488300843E-03
(PID.TID 0000.0001) %MON dynstat_uvel_del2            =   9.7709913058412E-05
(PID.TID 0000.0001) %MON dynstat_vvel_max             =   9.6278075163307E-01
(PID.TID 0000.0001) %MON dynstat_vvel_min             =  -6.5491045732432E-01
(PID.TID 0000.0001) %MON dynstat_vvel_mean            =   2.4346081526980E-04
(PID.TID 0000.0001) %MON dynstat_vvel_sd              =   7.6901578599991E-03
(PID.TID 0000.0001) %MON dynstat_vvel_del2            =   1.3234144129717E-04
(PID.TID 0000.0001) %MON dynstat_wvel_max             =   2.0575516609275E-04
(PID.TID 0000.0001) %MON dynstat_wvel_min             =  -2.3056039792644E-04
(PID.TID 0000.0001) %MON dynstat_wvel_mean            =  -5.8097644701549E-08
(PID.TID 0000.0001) %MON dynstat_wvel_sd              =   7.4449096996183E-06
(PID.TID 0000.0001) %MON dynstat_wvel_del2            =   7.2203887512794E-08
(PID.TID 0000.0001) %MON dynstat_theta_max            =   2.2468650121965E+01
(PID.TID 0000.0001) %MON dynstat_theta_min            =   1.6168947066284E+01
(PID.TID 0000.0001) %MON dynstat_theta_mean           =   1.9997883250705E+01
(PID.TID 0000.0001) %MON dynstat_theta_sd             =   2.5540425516213E-02
(PID.TID 0000.0001) %MON dynstat_theta_del2           =   4.6224883286295E-04
(PID.TID 0000.0001) %MON dynstat_salt_max             =   3.5151098194621E+01
(PID.TID 0000.0001) %MON dynstat_salt_min             =   2.6240455466304E+01
(PID.TID 0000.0001) %MON dynstat_salt_mean            =   3.4999703642153E+01
(PID.TID 0000.0001) %MON dynstat_salt_sd              =   3.0626680173104E-02
(PID.TID 0000.0001) %MON dynstat_salt_del2            =   1.0672766550024E-03
(PID.TID 0000.0001) %MON dynstat_sst_max              =   2.2468650121965E+01
(PID.TID 0000.0001) %MON dynstat_sst_min              =   1.6168947066284E+01
(PID.TID 0000.0001) %MON dynstat_sst_mean             =   2.0099168881182E+01
(PID.TID 0000.0001) %MON dynstat_sst_sd               =   2.3056781398756E-01
(PID.TID 0000.0001) %MON dynstat_sst_del2             =   5.1444621825128E-03
(PID.TID 0000.0001) %MON dynstat_sss_max              =   3.5151098194621E+01
(PID.TID 0000.0001) %MON dynstat_sss_min              =   2.6240455466304E+01
(PID.TID 0000.0001) %MON dynstat_sss_mean             =   3.4973780790363E+01
(PID.TID 0000.0001) %MON dynstat_sss_sd               =   3.6963872609597E-01
(PID.TID 0000.0001) %MON dynstat_sss_del2             =   1.4456557777563E-02
(PID.TID 0000.0001) %MON forcing_qnet_max             =   3.9024116697084E+03
(PID.TID 0000.0001) %MON forcing_qnet_min             =  -4.6556425432926E+03
(PID.TID 0000.0001) %MON forcing_qnet_mean            =  -1.7808021801164E+01
(PID.TID 0000.0001) %MON forcing_qnet_sd              =   5.5049811222016E+02
(PID.TID 0000.0001) %MON forcing_qnet_del2            =   8.2912315741712E+00
(PID.TID 0000.0001) %MON forcing_qsw_max              =   0.0000000000000E+00
(PID.TID 0000.0001) %MON forcing_qsw_min              =  -1.0626829628052E+02
(PID.TID 0000.0001) %MON forcing_qsw_mean             =  -1.3754472036558E+01
(PID.TID 0000.0001) %MON forcing_qsw_sd               =   2.5363880812517E+01
(PID.TID 0000.0001) %MON forcing_qsw_del2             =   1.9170696769992E-01
(PID.TID 0000.0001) %MON forcing_empmr_max            =   7.2544217109680E-03
(PID.TID 0000.0001) %MON forcing_empmr_min            =  -1.0427831113338E-01
(PID.TID 0000.0001) %MON forcing_empmr_mean           =  -4.5696176289655E-04
(PID.TID 0000.0001) %MON forcing_empmr_sd             =   4.6110022854030E-03
(PID.TID 0000.0001) %MON forcing_empmr_del2           =   1.8122820675225E-04
(PID.TID 0000.0001) %MON forcing_fu_max               =   6.7206058413956E-01
(PID.TID 0000.0001) %MON forcing_fu_min               =  -5.6090071208048E-01
(PID.TID 0000.0001) %MON forcing_fu_mean              =  -1.0426530819075E-03
(PID.TID 0000.0001) %MON forcing_fu_sd                =   8.9906416018584E-02
(PID.TID 0000.0001) %MON forcing_fu_del2              =   7.5625120664586E-04
(PID.TID 0000.0001) %MON forcing_fv_max               =   4.7436218316916E-01
(PID.TID 0000.0001) %MON forcing_fv_min               =  -4.0416919208471E-01
(PID.TID 0000.0001) %MON forcing_fv_mean              =  -4.8540271864122E-03
(PID.TID 0000.0001) %MON forcing_fv_sd                =   7.9880782009333E-02
(PID.TID 0000.0001) %MON forcing_fv_del2              =   6.6334488210633E-04
(PID.TID 0000.0001) %MON trAdv_CFL_u_max              =   2.9906120772048E-03
(PID.TID 0000.0001) %MON trAdv_CFL_v_max              =   3.1026918142478E-03
(PID.TID 0000.0001) %MON trAdv_CFL_w_max              =   3.1793559251106E-03
(PID.TID 0000.0001) %MON advcfl_uvel_max              =   2.9015979940837E-03
(PID.TID 0000.0001) %MON advcfl_vvel_max              =   2.8852319048593E-03
(PID.TID 0000.0001) %MON advcfl_wvel_max              =   7.2541433831920E-03
(PID.TID 0000.0001) %MON advcfl_W_hf_max              =   3.2339062971060E-03
(PID.TID 0000.0001) %MON pe_b_mean                    =   1.5166418604609E-05
(PID.TID 0000.0001) %MON ke_max                       =   2.9285057111684E-01
(PID.TID 0000.0001) %MON ke_mean                      =   5.1059142240038E-05
(PID.TID 0000.0001) %MON ke_vol                       =   1.3398133749596E+18
(PID.TID 0000.0001) %MON vort_r_min                   =  -2.7546181536914E-06
(PID.TID 0000.0001) %MON vort_r_max                   =   4.3851178744220E-06
(PID.TID 0000.0001) %MON vort_a_mean                  =  -2.0549865324846E-05
(PID.TID 0000.0001) %MON vort_a_sd                    =   7.5259301649040E-05
(PID.TID 0000.0001) %MON vort_p_mean                  =  -2.4783325245301E-05
(PID.TID 0000.0001) %MON vort_p_sd                    =   1.2810556370042E-04
(PID.TID 0000.0001) %MON surfExpan_theta_mean         =  -6.8942941223062E-07
(PID.TID 0000.0001) %MON surfExpan_salt_mean          =   1.5758854697109E-06
(PID.TID 0000.0001) // =======================================================
(PID.TID 0000.0001) // End MONITOR dynamic field statistics
(PID.TID 0000.0001) // =======================================================
(PID.TID 0000.0001) DEBUG_MSG: LEAVING S/R FORWARD_STEP
(PID.TID 0000.0001) DEBUG_MSG: ENTERED S/R FORWARD_STEP
(PID.TID 0000.0001) DEBUG_MSG: CALLING S/R LOAD_FIELDS_DRIVER
(PID.TID 0000.0001) DEBUG_MSG: ENTERED S/R LOAD_FIELDS_DRIVER
(PID.TID 0000.0001) DEBUG_MSG: CALLING S/R EXTERNAL_FIELDS_LOAD
(PID.TID 0000.0001) DEBUG_MSG: LEAVING S/R LOAD_FIELDS_DRIVER
(PID.TID 0000.0001) DEBUG_MSG: CALLING S/R DO_ATMOSPHERIC_PHYS
(PID.TID 0000.0001) DEBUG_MSG: ENTERED S/R DO_ATMOSPHERIC_PHYS
(PID.TID 0000.0001) DEBUG_MSG: LEAVING S/R DO_ATMOSPHERIC_PHYS
(PID.TID 0000.0001) DEBUG_MSG: CALLING S/R DO_OCEANIC_PHYS
(PID.TID 0000.0001) DEBUG_MSG: ENTERED S/R DO_OCEANIC_PHYS
(PID.TID 0000.0001) DEBUG_MSG: CALLING S/R EXTERNAL_FORCING_SURF
(PID.TID 0000.0001) DEBUG_MSG: CALLING S/R FIND_RHO_2D (xNr)
(PID.TID 0000.0001) DEBUG_MSG:                  ENTERING UPWARD K LOOP (bi=   1, bj=   1)
(PID.TID 0000.0001) DEBUG_MSG: CALLING S/R GRAD_SIGMA
(PID.TID 0000.0001) DEBUG_MSG: CALLING S/R CALC_IVDC
(PID.TID 0000.0001) DEBUG_MSG: CALLING S/R GRAD_SIGMA
(PID.TID 0000.0001) DEBUG_MSG: CALLING S/R CALC_IVDC
(PID.TID 0000.0001) DEBUG_MSG: CALLING S/R GRAD_SIGMA
(PID.TID 0000.0001) DEBUG_MSG: CALLING S/R CALC_IVDC
(PID.TID 0000.0001) DEBUG_MSG: CALLING S/R GRAD_SIGMA
(PID.TID 0000.0001) DEBUG_MSG: CALLING S/R CALC_IVDC
(PID.TID 0000.0001) DEBUG_MSG: CALLING S/R GRAD_SIGMA
(PID.TID 0000.0001) DEBUG_MSG: CALLING S/R CALC_IVDC
(PID.TID 0000.0001) DEBUG_MSG: CALLING S/R GRAD_SIGMA
(PID.TID 0000.0001) DEBUG_MSG: CALLING S/R CALC_IVDC
(PID.TID 0000.0001) DEBUG_MSG: CALLING S/R GRAD_SIGMA
(PID.TID 0000.0001) DEBUG_MSG: CALLING S/R CALC_IVDC
(PID.TID 0000.0001) DEBUG_MSG: CALLING S/R GRAD_SIGMA
(PID.TID 0000.0001) DEBUG_MSG: CALLING S/R CALC_IVDC
(PID.TID 0000.0001) DEBUG_MSG: CALLING S/R GRAD_SIGMA
(PID.TID 0000.0001) DEBUG_MSG: CALLING S/R CALC_IVDC
(PID.TID 0000.0001) DEBUG_MSG: CALLING S/R GRAD_SIGMA
(PID.TID 0000.0001) DEBUG_MSG: CALLING S/R CALC_IVDC
(PID.TID 0000.0001) DEBUG_MSG: CALLING S/R GRAD_SIGMA
(PID.TID 0000.0001) DEBUG_MSG: CALLING S/R CALC_IVDC
(PID.TID 0000.0001) DEBUG_MSG: CALLING S/R GRAD_SIGMA
(PID.TID 0000.0001) DEBUG_MSG: CALLING S/R CALC_IVDC
(PID.TID 0000.0001) DEBUG_MSG: CALLING S/R GRAD_SIGMA
(PID.TID 0000.0001) DEBUG_MSG: CALLING S/R CALC_IVDC
(PID.TID 0000.0001) DEBUG_MSG: CALLING S/R GRAD_SIGMA
(PID.TID 0000.0001) DEBUG_MSG: CALLING S/R CALC_IVDC
(PID.TID 0000.0001) DEBUG_MSG: CALLING S/R GRAD_SIGMA
(PID.TID 0000.0001) DEBUG_MSG: CALLING S/R CALC_IVDC
(PID.TID 0000.0001) DEBUG_MSG: CALLING S/R GRAD_SIGMA
(PID.TID 0000.0001) DEBUG_MSG: CALLING S/R GMREDI_CALC_TENSOR
(PID.TID 0000.0001) DEBUG_MSG: LEAVING S/R DO_OCEANIC_PHYS
(PID.TID 0000.0001) DEBUG_MSG: CALLING S/R DYNAMICS
(PID.TID 0000.0001) DEBUG_MSG: ENTERED S/R DYNAMICS
DEBUG_STATS_RL:                EtaN (DYNAMICS)  min= -9.27900872950864E-01
DEBUG_STATS_RL:                EtaN (DYNAMICS)  max=  2.78280865420237E+00
DEBUG_STATS_RL:                EtaN (DYNAMICS) mean=  3.04229409911447E-02
DEBUG_STATS_RL:                EtaN (DYNAMICS) S.D.=  1.06530709704095E-01
DEBUG_STATS_RL:                Uvel (DYNAMICS)  min= -8.70105261758154E-01
DEBUG_STATS_RL:                Uvel (DYNAMICS)  max=  4.52343402804655E-01
DEBUG_STATS_RL:                Uvel (DYNAMICS) mean= -7.78019476579521E-04
DEBUG_STATS_RL:                Uvel (DYNAMICS) S.D.=  2.16068460245849E-02
DEBUG_STATS_RL:                Vvel (DYNAMICS)  min= -6.54910457324321E-01
DEBUG_STATS_RL:                Vvel (DYNAMICS)  max=  9.62780751633067E-01
DEBUG_STATS_RL:                Vvel (DYNAMICS) mean= -7.36379484056428E-04
DEBUG_STATS_RL:                Vvel (DYNAMICS) S.D.=  2.38048175193925E-02
DEBUG_STATS_RL:                Wvel (DYNAMICS)  min= -2.30560397926438E-04
DEBUG_STATS_RL:                Wvel (DYNAMICS)  max=  2.05755166092751E-04
DEBUG_STATS_RL:                Wvel (DYNAMICS) mean= -1.90053699338396E-07
DEBUG_STATS_RL:                Wvel (DYNAMICS) S.D.=  8.09600385107901E-06
DEBUG_STATS_RL:               Theta (DYNAMICS)  min=  1.61689470662838E+01
DEBUG_STATS_RL:               Theta (DYNAMICS)  max=  2.24686501219652E+01
DEBUG_STATS_RL:               Theta (DYNAMICS) mean=  2.00004342976776E+01
DEBUG_STATS_RL:               Theta (DYNAMICS) S.D.=  7.63039667412959E-02
DEBUG_STATS_RL:                Salt (DYNAMICS)  min=  2.62404554663043E+01
DEBUG_STATS_RL:                Salt (DYNAMICS)  max=  3.51510981946209E+01
DEBUG_STATS_RL:                Salt (DYNAMICS) mean=  3.49977746632026E+01
DEBUG_STATS_RL:                Salt (DYNAMICS) S.D.=  9.92436001581829E-02
DEBUG_STATS_RL:                  Gu (DYNAMICS)  min= -8.68689505552719E-01
DEBUG_STATS_RL:                  Gu (DYNAMICS)  max=  4.29835397725207E-01
DEBUG_STATS_RL:                  Gu (DYNAMICS) mean= -7.97431308501363E-04
DEBUG_STATS_RL:                  Gu (DYNAMICS) S.D.=  2.14968989128997E-02
DEBUG_STATS_RL:                  Gv (DYNAMICS)  min= -6.09697612963404E-01
DEBUG_STATS_RL:                  Gv (DYNAMICS)  max=  9.47748342215703E-01
DEBUG_STATS_RL:                  Gv (DYNAMICS) mean= -7.37689369050370E-04
DEBUG_STATS_RL:                  Gv (DYNAMICS) S.D.=  2.34023367092019E-02
DEBUG_STATS_RL:               GuNm1 (DYNAMICS)  min= -3.21397104026742E-05
DEBUG_STATS_RL:               GuNm1 (DYNAMICS)  max=  2.39119860636538E-05
DEBUG_STATS_RL:               GuNm1 (DYNAMICS) mean= -2.55120862663546E-08
DEBUG_STATS_RL:               GuNm1 (DYNAMICS) S.D.=  1.32363310854685E-06
DEBUG_STATS_RL:               GvNm1 (DYNAMICS)  min= -3.27130398204382E-05
DEBUG_STATS_RL:               GvNm1 (DYNAMICS)  max=  5.94443615758630E-05
DEBUG_STATS_RL:               GvNm1 (DYNAMICS) mean= -2.73369724159878E-09
DEBUG_STATS_RL:               GvNm1 (DYNAMICS) S.D.=  1.54109522634443E-06
DEBUG_STATS_RL:               GtNm1 (DYNAMICS)  min= -4.05335626556638E-06
DEBUG_STATS_RL:               GtNm1 (DYNAMICS)  max=  9.50513924210165E-06
DEBUG_STATS_RL:               GtNm1 (DYNAMICS) mean=  1.84375894782109E-09
DEBUG_STATS_RL:               GtNm1 (DYNAMICS) S.D.=  1.09039394745475E-07
DEBUG_STATS_RL:               GsNm1 (DYNAMICS)  min= -1.63714947778421E-05
DEBUG_STATS_RL:               GsNm1 (DYNAMICS)  max=  1.91529036951106E-06
DEBUG_STATS_RL:               GsNm1 (DYNAMICS) mean= -4.50495322747157E-09
DEBUG_STATS_RL:               GsNm1 (DYNAMICS) S.D.=  1.98259785078795E-07
(PID.TID 0000.0001) DEBUG_MSG: LEAVING S/R DYNAMICS
DEBUG_STATS_RL:    cg2d_b (SOLVE_FOR_PRESSURE)  min= -3.34574209307806E+05
DEBUG_STATS_RL:    cg2d_b (SOLVE_FOR_PRESSURE)  max=  1.13318393759660E+05
DEBUG_STATS_RL:    cg2d_b (SOLVE_FOR_PRESSURE) mean= -3.13322869416086E+03
DEBUG_STATS_RL:    cg2d_b (SOLVE_FOR_PRESSURE) S.D.=  1.07251987507702E+04
 cg2d: Sum(rhs),rhsMax =  -4.13925235206941E+01  6.40929230519650E+01
(PID.TID 0000.0001)  cg2d: iter=     1 ; resid.=  2.64113375539131E-02
(PID.TID 0000.0001)  cg2d: iter=     2 ; resid.=  4.00743771337109E-03
(PID.TID 0000.0001)  cg2d: iter=     3 ; resid.=  1.10836563526095E-03
(PID.TID 0000.0001)  cg2d: iter=     4 ; resid.=  3.74577248030070E-04
(PID.TID 0000.0001)  cg2d: iter=     5 ; resid.=  8.51339328812331E-05
(PID.TID 0000.0001)  cg2d: iter=     6 ; resid.=  1.82965028495291E-05
(PID.TID 0000.0001)  cg2d: iter=     7 ; resid.=  4.07610946046288E-06
(PID.TID 0000.0001)  cg2d: iter=     8 ; resid.=  1.03945922007756E-06
(PID.TID 0000.0001)  cg2d: iter=     9 ; resid.=  2.28993217227062E-07
(PID.TID 0000.0001)  cg2d: iter=    10 ; resid.=  6.09816612915461E-08
DEBUG_STATS_RL:    cg2d_x (SOLVE_FOR_PRESSURE)  min= -9.62705090812879E+00
DEBUG_STATS_RL:    cg2d_x (SOLVE_FOR_PRESSURE)  max=  2.80316634160846E+01
DEBUG_STATS_RL:    cg2d_x (SOLVE_FOR_PRESSURE) mean=  3.02739174640417E-01
DEBUG_STATS_RL:    cg2d_x (SOLVE_FOR_PRESSURE) S.D.=  1.06232771683445E+00
(PID.TID 0000.0001)      cg2d_init_res =   2.20696429463237E-01
(PID.TID 0000.0001)      cg2d_iters(min,last) =      -1      10
(PID.TID 0000.0001)      cg2d_last_res =   6.09816612915461E-08
(PID.TID 0000.0001) DEBUG_MSG: CALLING S/R UPDATE_ETAH
(PID.TID 0000.0001) DEBUG_MSG: ENTERED S/R CALC_R_STAR
(PID.TID 0000.0001) DEBUG_MSG: LEAVING S/R CALC_R_STAR
(PID.TID 0000.0001) DEBUG_MSG: CALLING S/R DO_STAGGER_FIELDS_EXCH.
(PID.TID 0000.0001) DEBUG_MSG: CALLING S/R THERMODYNAMICS
(PID.TID 0000.0001) DEBUG_MSG: ENTERED S/R THERMODYNAMICS
(PID.TID 0000.0001) DEBUG_MSG: CALLING S/R TEMP_INTEGRATE
(PID.TID 0000.0001) DEBUG_MSG: CALLING S/R SALT_INTEGRATE
DEBUG_STATS_RL:          Uvel (THERMODYNAMICS)  min= -7.91136263582383E-01
DEBUG_STATS_RL:          Uvel (THERMODYNAMICS)  max=  4.54318799306543E-01
DEBUG_STATS_RL:          Uvel (THERMODYNAMICS) mean= -7.89284553148726E-04
DEBUG_STATS_RL:          Uvel (THERMODYNAMICS) S.D.=  2.13147018532483E-02
DEBUG_STATS_RL:          Vvel (THERMODYNAMICS)  min= -5.36146253878841E-01
DEBUG_STATS_RL:          Vvel (THERMODYNAMICS)  max=  8.89651949094686E-01
DEBUG_STATS_RL:          Vvel (THERMODYNAMICS) mean= -7.19258334404610E-04
DEBUG_STATS_RL:          Vvel (THERMODYNAMICS) S.D.=  2.32221243804538E-02
DEBUG_STATS_RL:          Wvel (THERMODYNAMICS)  min= -2.34168332495266E-04
DEBUG_STATS_RL:          Wvel (THERMODYNAMICS)  max=  2.01774726612010E-04
DEBUG_STATS_RL:          Wvel (THERMODYNAMICS) mean= -2.09713060099753E-07
DEBUG_STATS_RL:          Wvel (THERMODYNAMICS) S.D.=  8.01708185314742E-06
DEBUG_STATS_RL:         Theta (THERMODYNAMICS)  min=  1.61730826987849E+01
DEBUG_STATS_RL:         Theta (THERMODYNAMICS)  max=  2.25125592858710E+01
DEBUG_STATS_RL:         Theta (THERMODYNAMICS) mean=  2.00005491411232E+01
DEBUG_STATS_RL:         Theta (THERMODYNAMICS) S.D.=  7.69304915468927E-02
DEBUG_STATS_RL:          Salt (THERMODYNAMICS)  min=  2.61285968621458E+01
DEBUG_STATS_RL:          Salt (THERMODYNAMICS)  max=  3.51510948330377E+01
DEBUG_STATS_RL:          Salt (THERMODYNAMICS) mean=  3.49977412461363E+01
DEBUG_STATS_RL:          Salt (THERMODYNAMICS) S.D.=  1.00558252740556E-01
DEBUG_STATS_RL:         GtNm1 (THERMODYNAMICS)  min= -4.14668795855682E-06
DEBUG_STATS_RL:         GtNm1 (THERMODYNAMICS)  max=  8.65860481747313E-06
DEBUG_STATS_RL:         GtNm1 (THERMODYNAMICS) mean=  1.67895347167961E-09
DEBUG_STATS_RL:         GtNm1 (THERMODYNAMICS) S.D.=  1.01561656745251E-07
DEBUG_STATS_RL:         GsNm1 (THERMODYNAMICS)  min= -1.64058680717974E-05
DEBUG_STATS_RL:         GsNm1 (THERMODYNAMICS)  max=  1.90742831902390E-06
DEBUG_STATS_RL:         GsNm1 (THERMODYNAMICS) mean= -4.49326287840986E-09
DEBUG_STATS_RL:         GsNm1 (THERMODYNAMICS) S.D.=  1.97348850133109E-07
(PID.TID 0000.0001) DEBUG_MSG: LEAVING S/R THERMODYNAMICS
(PID.TID 0000.0001) // =======================================================
(PID.TID 0000.0001) // Begin MONITOR dynamic field statistics
(PID.TID 0000.0001) // =======================================================
(PID.TID 0000.0001) %MON time_tsnumber                =                    43
(PID.TID 0000.0001) %MON time_secondsf                =   3.8700000000000E+04
(PID.TID 0000.0001) %MON dynstat_eta_max              =   2.8574580478222E+00
(PID.TID 0000.0001) %MON dynstat_eta_min              =  -9.8135075863621E-01
(PID.TID 0000.0001) %MON dynstat_eta_mean             =   3.0827134420042E-02
(PID.TID 0000.0001) %MON dynstat_eta_sd               =   1.0387030276163E-01
(PID.TID 0000.0001) %MON dynstat_eta_del2             =   2.1234399895482E-03
(PID.TID 0000.0001) %MON dynstat_uvel_max             =   4.5431879930654E-01
(PID.TID 0000.0001) %MON dynstat_uvel_min             =  -7.9113626358238E-01
(PID.TID 0000.0001) %MON dynstat_uvel_mean            =  -1.4115620594668E-04
(PID.TID 0000.0001) %MON dynstat_uvel_sd              =   7.0876658483620E-03
(PID.TID 0000.0001) %MON dynstat_uvel_del2            =   9.7554264442792E-05
(PID.TID 0000.0001) %MON dynstat_vvel_max             =   8.8965194909469E-01
(PID.TID 0000.0001) %MON dynstat_vvel_min             =  -5.3614625387884E-01
(PID.TID 0000.0001) %MON dynstat_vvel_mean            =   2.9053539374034E-04
(PID.TID 0000.0001) %MON dynstat_vvel_sd              =   7.5179791503906E-03
(PID.TID 0000.0001) %MON dynstat_vvel_del2            =   1.2659840904616E-04
(PID.TID 0000.0001) %MON dynstat_wvel_max             =   2.0177472661201E-04
(PID.TID 0000.0001) %MON dynstat_wvel_min             =  -2.3416833249527E-04
(PID.TID 0000.0001) %MON dynstat_wvel_mean            =  -8.7645318752325E-08
(PID.TID 0000.0001) %MON dynstat_wvel_sd              =   7.3809987348364E-06
(PID.TID 0000.0001) %MON dynstat_wvel_del2            =   7.2468197046008E-08
(PID.TID 0000.0001) %MON dynstat_theta_max            =   2.2512559285871E+01
(PID.TID 0000.0001) %MON dynstat_theta_min            =   1.6173082698785E+01
(PID.TID 0000.0001) %MON dynstat_theta_mean           =   1.9997884213814E+01
(PID.TID 0000.0001) %MON dynstat_theta_sd             =   2.5739661538864E-02
(PID.TID 0000.0001) %MON dynstat_theta_del2           =   4.6503635073596E-04
(PID.TID 0000.0001) %MON dynstat_salt_max             =   3.5151094833038E+01
(PID.TID 0000.0001) %MON dynstat_salt_min             =   2.6128596862146E+01
(PID.TID 0000.0001) %MON dynstat_salt_mean            =   3.4999699812114E+01
(PID.TID 0000.0001) %MON dynstat_salt_sd              =   3.1032263981588E-02
(PID.TID 0000.0001) %MON dynstat_salt_del2            =   1.0810034580573E-03
(PID.TID 0000.0001) %MON dynstat_sst_max              =   2.2512559285871E+01
(PID.TID 0000.0001) %MON dynstat_sst_min              =   1.6173082698785E+01
(PID.TID 0000.0001) %MON dynstat_sst_mean             =   2.0100933055325E+01
(PID.TID 0000.0001) %MON dynstat_sst_sd               =   2.3279669866984E-01
(PID.TID 0000.0001) %MON dynstat_sst_del2             =   5.1892726799442E-03
(PID.TID 0000.0001) %MON dynstat_sss_max              =   3.5151094833038E+01
(PID.TID 0000.0001) %MON dynstat_sss_min              =   2.6128596862146E+01
(PID.TID 0000.0001) %MON dynstat_sss_mean             =   3.4973370850363E+01
(PID.TID 0000.0001) %MON dynstat_sss_sd               =   3.7452518766554E-01
(PID.TID 0000.0001) %MON dynstat_sss_del2             =   1.4642137025103E-02
(PID.TID 0000.0001) %MON forcing_qnet_max             =   3.8460179745984E+03
(PID.TID 0000.0001) %MON forcing_qnet_min             =  -4.5868304146094E+03
(PID.TID 0000.0001) %MON forcing_qnet_mean            =  -1.5232780638351E+01
(PID.TID 0000.0001) %MON forcing_qnet_sd              =   5.4505687772169E+02
(PID.TID 0000.0001) %MON forcing_qnet_del2            =   8.1488063093003E+00
(PID.TID 0000.0001) %MON forcing_qsw_max              =   0.0000000000000E+00
(PID.TID 0000.0001) %MON forcing_qsw_min              =  -1.0659388758173E+02
(PID.TID 0000.0001) %MON forcing_qsw_mean             =  -1.3678094487311E+01
(PID.TID 0000.0001) %MON forcing_qsw_sd               =   2.5248956224442E+01
(PID.TID 0000.0001) %MON forcing_qsw_del2             =   1.9006240211545E-01
(PID.TID 0000.0001) %MON forcing_empmr_max            =   7.1796346455812E-03
(PID.TID 0000.0001) %MON forcing_empmr_min            =  -1.0320343822241E-01
(PID.TID 0000.0001) %MON forcing_empmr_mean           =  -4.5317535713146E-04
(PID.TID 0000.0001) %MON forcing_empmr_sd             =   4.5640431376235E-03
(PID.TID 0000.0001) %MON forcing_empmr_del2           =   1.7935815847573E-04
(PID.TID 0000.0001) %MON forcing_fu_max               =   6.6914159051936E-01
(PID.TID 0000.0001) %MON forcing_fu_min               =  -5.6312999953859E-01
(PID.TID 0000.0001) %MON forcing_fu_mean              =  -1.1387733732713E-03
(PID.TID 0000.0001) %MON forcing_fu_sd                =   8.9852018652884E-02
(PID.TID 0000.0001) %MON forcing_fu_del2              =   7.5682286828747E-04
(PID.TID 0000.0001) %MON forcing_fv_max               =   4.7008814003387E-01
(PID.TID 0000.0001) %MON forcing_fv_min               =  -4.0687472569267E-01
(PID.TID 0000.0001) %MON forcing_fv_mean              =  -5.0174275675613E-03
(PID.TID 0000.0001) %MON forcing_fv_sd                =   7.9736031310092E-02
(PID.TID 0000.0001) %MON forcing_fv_del2              =   6.6184006289460E-04
(PID.TID 0000.0001) %MON trAdv_CFL_u_max              =   2.7265024225546E-03
(PID.TID 0000.0001) %MON trAdv_CFL_v_max              =   2.6803375623717E-03
(PID.TID 0000.0001) %MON trAdv_CFL_w_max              =   3.0768023756036E-03
(PID.TID 0000.0001) %MON advcfl_uvel_max              =   2.6382548139280E-03
(PID.TID 0000.0001) %MON advcfl_vvel_max              =   2.6660817464354E-03
(PID.TID 0000.0001) %MON advcfl_wvel_max              =   7.1793696154719E-03
(PID.TID 0000.0001) %MON advcfl_W_hf_max              =   3.1518072346786E-03
(PID.TID 0000.0001) %MON pe_b_mean                    =   1.5638857003211E-05
(PID.TID 0000.0001) %MON ke_max                       =   2.4471882123689E-01
(PID.TID 0000.0001) %MON ke_mean                      =   4.9349652772786E-05
(PID.TID 0000.0001) %MON ke_vol                       =   1.3398135195529E+18
(PID.TID 0000.0001) %MON vort_r_min                   =  -2.5614385070977E-06
(PID.TID 0000.0001) %MON vort_r_max                   =   4.2292431950611E-06
(PID.TID 0000.0001) %MON vort_a_mean                  =  -2.0549865324846E-05
(PID.TID 0000.0001) %MON vort_a_sd                    =   7.5259314406898E-05
(PID.TID 0000.0001) %MON vort_p_mean                  =  -2.4783322956421E-05
(PID.TID 0000.0001) %MON vort_p_sd                    =   1.2810555499555E-04
(PID.TID 0000.0001) %MON surfExpan_theta_mean         =  -6.2938468970454E-07
(PID.TID 0000.0001) %MON surfExpan_salt_mean          =   1.5743468898589E-06
(PID.TID 0000.0001) // =======================================================
(PID.TID 0000.0001) // End MONITOR dynamic field statistics
(PID.TID 0000.0001) // =======================================================
 Computing Diagnostic #     81  oceTAUX      Counter:       1   Parms: UU      U1      
           Vector  Mate for  oceTAUX      Diagnostic #     82  oceTAUY  exists 
(PID.TID 0000.0001)  MDS_WRITE_FIELD: it,rec,kS,kL,kH=      42    -1  32   1   1 file=oceTAUX.0000000042
 Computing Diagnostic #     82  oceTAUY      Counter:       1   Parms: VV      U1      
           Vector  Mate for  oceTAUY      Diagnostic #     81  oceTAUX  exists 
(PID.TID 0000.0001)  MDS_WRITE_FIELD: it,rec,kS,kL,kH=      42    -1  32   1   1 file=oceTAUY.0000000042
 Computing Diagnostic #     85  oceFWflx     Counter:       1   Parms: SM      U1      
(PID.TID 0000.0001)  MDS_WRITE_FIELD: it,rec,kS,kL,kH=      42    -1  32   1   1 file=oceFWflx.0000000042
 Computing Diagnostic #     86  oceSflux     Counter:       1   Parms: SM      U1      
(PID.TID 0000.0001)  MDS_WRITE_FIELD: it,rec,kS,kL,kH=      42    -1  32   1   1 file=oceSflux.0000000042
 Computing Diagnostic #     87  oceQnet      Counter:       1   Parms: SM      U1      
(PID.TID 0000.0001)  MDS_WRITE_FIELD: it,rec,kS,kL,kH=      42    -1  32   1   1 file=oceQnet.0000000042
 Computing Diagnostic #     88  oceQsw       Counter:       1   Parms: SM      U1      
(PID.TID 0000.0001)  MDS_WRITE_FIELD: it,rec,kS,kL,kH=      42    -1  32   1   1 file=oceQsw.0000000042
 Computing Diagnostic #     27  SALT         Counter:       1   Parms: SMR     MR      
(PID.TID 0000.0001)  MDS_WRITE_FIELD: it,rec,kS,kL,kH=      42    -1  32   1   1 file=SSS.0000000042
 Computing Diagnostic #     26  THETA        Counter:       1   Parms: SMR     MR      
(PID.TID 0000.0001)  MDS_WRITE_FIELD: it,rec,kS,kL,kH=      42    -1  32   1   1 file=SST.0000000042
 Computing Diagnostic #     45  UVELMASS     Counter:       1   Parms: UUr     MR      
           Vector  Mate for  UVELMASS     Diagnostic #     46  VVELMASS exists 
(PID.TID 0000.0001)  MDS_WRITE_FIELD: it,rec,kS,kL,kH=      42    -1  32   1   1 file=UVEL1.0000000042
 Computing Diagnostic #     46  VVELMASS     Counter:       1   Parms: VVr     MR      
           Vector  Mate for  VVELMASS     Diagnostic #     45  UVELMASS exists 
(PID.TID 0000.0001)  MDS_WRITE_FIELD: it,rec,kS,kL,kH=      42    -1  32   1   1 file=VVEL1.0000000042
 Computing Diagnostic #     83  atmPload     Counter:       1   Parms: SM      U1      
(PID.TID 0000.0001)  MDS_WRITE_FIELD: it,rec,kS,kL,kH=      42    -1  32   1   1 file=atmPload.0000000042
(PID.TID 0000.0001)  write diagnostics summary to file: diagnostics_status.0000000043.txt
(PID.TID 0000.0001) DEBUG_MSG: LEAVING S/R FORWARD_STEP
(PID.TID 0000.0001) DEBUG_MSG: ENTERED S/R FORWARD_STEP
(PID.TID 0000.0001) DEBUG_MSG: CALLING S/R LOAD_FIELDS_DRIVER
(PID.TID 0000.0001) DEBUG_MSG: ENTERED S/R LOAD_FIELDS_DRIVER
(PID.TID 0000.0001) DEBUG_MSG: CALLING S/R EXTERNAL_FIELDS_LOAD
(PID.TID 0000.0001) DEBUG_MSG: LEAVING S/R LOAD_FIELDS_DRIVER
(PID.TID 0000.0001) DEBUG_MSG: CALLING S/R DO_ATMOSPHERIC_PHYS
(PID.TID 0000.0001) DEBUG_MSG: ENTERED S/R DO_ATMOSPHERIC_PHYS
(PID.TID 0000.0001) DEBUG_MSG: LEAVING S/R DO_ATMOSPHERIC_PHYS
(PID.TID 0000.0001) DEBUG_MSG: CALLING S/R DO_OCEANIC_PHYS
(PID.TID 0000.0001) DEBUG_MSG: ENTERED S/R DO_OCEANIC_PHYS
(PID.TID 0000.0001) DEBUG_MSG: CALLING S/R EXTERNAL_FORCING_SURF
(PID.TID 0000.0001) DEBUG_MSG: CALLING S/R FIND_RHO_2D (xNr)
(PID.TID 0000.0001) DEBUG_MSG:                  ENTERING UPWARD K LOOP (bi=   1, bj=   1)
(PID.TID 0000.0001) DEBUG_MSG: CALLING S/R GRAD_SIGMA
(PID.TID 0000.0001) DEBUG_MSG: CALLING S/R CALC_IVDC
(PID.TID 0000.0001) DEBUG_MSG: CALLING S/R GRAD_SIGMA
(PID.TID 0000.0001) DEBUG_MSG: CALLING S/R CALC_IVDC
(PID.TID 0000.0001) DEBUG_MSG: CALLING S/R GRAD_SIGMA
(PID.TID 0000.0001) DEBUG_MSG: CALLING S/R CALC_IVDC
(PID.TID 0000.0001) DEBUG_MSG: CALLING S/R GRAD_SIGMA
(PID.TID 0000.0001) DEBUG_MSG: CALLING S/R CALC_IVDC
(PID.TID 0000.0001) DEBUG_MSG: CALLING S/R GRAD_SIGMA
(PID.TID 0000.0001) DEBUG_MSG: CALLING S/R CALC_IVDC
(PID.TID 0000.0001) DEBUG_MSG: CALLING S/R GRAD_SIGMA
(PID.TID 0000.0001) DEBUG_MSG: CALLING S/R CALC_IVDC
(PID.TID 0000.0001) DEBUG_MSG: CALLING S/R GRAD_SIGMA
(PID.TID 0000.0001) DEBUG_MSG: CALLING S/R CALC_IVDC
(PID.TID 0000.0001) DEBUG_MSG: CALLING S/R GRAD_SIGMA
(PID.TID 0000.0001) DEBUG_MSG: CALLING S/R CALC_IVDC
(PID.TID 0000.0001) DEBUG_MSG: CALLING S/R GRAD_SIGMA
(PID.TID 0000.0001) DEBUG_MSG: CALLING S/R CALC_IVDC
(PID.TID 0000.0001) DEBUG_MSG: CALLING S/R GRAD_SIGMA
(PID.TID 0000.0001) DEBUG_MSG: CALLING S/R CALC_IVDC
(PID.TID 0000.0001) DEBUG_MSG: CALLING S/R GRAD_SIGMA
(PID.TID 0000.0001) DEBUG_MSG: CALLING S/R CALC_IVDC
(PID.TID 0000.0001) DEBUG_MSG: CALLING S/R GRAD_SIGMA
(PID.TID 0000.0001) DEBUG_MSG: CALLING S/R CALC_IVDC
(PID.TID 0000.0001) DEBUG_MSG: CALLING S/R GRAD_SIGMA
(PID.TID 0000.0001) DEBUG_MSG: CALLING S/R CALC_IVDC
(PID.TID 0000.0001) DEBUG_MSG: CALLING S/R GRAD_SIGMA
(PID.TID 0000.0001) DEBUG_MSG: CALLING S/R CALC_IVDC
(PID.TID 0000.0001) DEBUG_MSG: CALLING S/R GRAD_SIGMA
(PID.TID 0000.0001) DEBUG_MSG: CALLING S/R CALC_IVDC
(PID.TID 0000.0001) DEBUG_MSG: CALLING S/R GRAD_SIGMA
(PID.TID 0000.0001) DEBUG_MSG: CALLING S/R GMREDI_CALC_TENSOR
(PID.TID 0000.0001) DEBUG_MSG: LEAVING S/R DO_OCEANIC_PHYS
(PID.TID 0000.0001) DEBUG_MSG: CALLING S/R DYNAMICS
(PID.TID 0000.0001) DEBUG_MSG: ENTERED S/R DYNAMICS
DEBUG_STATS_RL:                EtaN (DYNAMICS)  min= -9.81350758636210E-01
DEBUG_STATS_RL:                EtaN (DYNAMICS)  max=  2.85745804782224E+00
DEBUG_STATS_RL:                EtaN (DYNAMICS) mean=  3.08602620186708E-02
DEBUG_STATS_RL:                EtaN (DYNAMICS) S.D.=  1.08290287311187E-01
DEBUG_STATS_RL:                Uvel (DYNAMICS)  min= -7.91136263582383E-01
DEBUG_STATS_RL:                Uvel (DYNAMICS)  max=  4.54318799306543E-01
DEBUG_STATS_RL:                Uvel (DYNAMICS) mean= -7.89284553148726E-04
DEBUG_STATS_RL:                Uvel (DYNAMICS) S.D.=  2.13147018532483E-02
DEBUG_STATS_RL:                Vvel (DYNAMICS)  min= -5.36146253878841E-01
DEBUG_STATS_RL:                Vvel (DYNAMICS)  max=  8.89651949094686E-01
DEBUG_STATS_RL:                Vvel (DYNAMICS) mean= -7.19258334404610E-04
DEBUG_STATS_RL:                Vvel (DYNAMICS) S.D.=  2.32221243804538E-02
DEBUG_STATS_RL:                Wvel (DYNAMICS)  min= -2.34168332495266E-04
DEBUG_STATS_RL:                Wvel (DYNAMICS)  max=  2.01774726612010E-04
DEBUG_STATS_RL:                Wvel (DYNAMICS) mean= -2.09713060099753E-07
DEBUG_STATS_RL:                Wvel (DYNAMICS) S.D.=  8.01708185314742E-06
DEBUG_STATS_RL:               Theta (DYNAMICS)  min=  1.61730826987849E+01
DEBUG_STATS_RL:               Theta (DYNAMICS)  max=  2.25125592858710E+01
DEBUG_STATS_RL:               Theta (DYNAMICS) mean=  2.00005491411232E+01
DEBUG_STATS_RL:               Theta (DYNAMICS) S.D.=  7.69304915468927E-02
DEBUG_STATS_RL:                Salt (DYNAMICS)  min=  2.61285968621458E+01
DEBUG_STATS_RL:                Salt (DYNAMICS)  max=  3.51510948330377E+01
DEBUG_STATS_RL:                Salt (DYNAMICS) mean=  3.49977412461363E+01
DEBUG_STATS_RL:                Salt (DYNAMICS) S.D.=  1.00558252740556E-01
DEBUG_STATS_RL:                  Gu (DYNAMICS)  min= -7.86315110649605E-01
DEBUG_STATS_RL:                  Gu (DYNAMICS)  max=  4.31221946235386E-01
DEBUG_STATS_RL:                  Gu (DYNAMICS) mean= -8.03289133593788E-04
DEBUG_STATS_RL:                  Gu (DYNAMICS) S.D.=  2.11662340844316E-02
DEBUG_STATS_RL:                  Gv (DYNAMICS)  min= -4.94682204076138E-01
DEBUG_STATS_RL:                  Gv (DYNAMICS)  max=  8.76855059303570E-01
DEBUG_STATS_RL:                  Gv (DYNAMICS) mean= -7.20309086186291E-04
DEBUG_STATS_RL:                  Gv (DYNAMICS) S.D.=  2.28398066611084E-02
DEBUG_STATS_RL:               GuNm1 (DYNAMICS)  min= -2.78644364494328E-05
DEBUG_STATS_RL:               GuNm1 (DYNAMICS)  max=  2.25003493604881E-05
DEBUG_STATS_RL:               GuNm1 (DYNAMICS) mean= -1.95825350228420E-08
DEBUG_STATS_RL:               GuNm1 (DYNAMICS) S.D.=  1.29315993804790E-06
DEBUG_STATS_RL:               GvNm1 (DYNAMICS)  min= -3.40509838782179E-05
DEBUG_STATS_RL:               GvNm1 (DYNAMICS)  max=  5.63021922650622E-05
DEBUG_STATS_RL:               GvNm1 (DYNAMICS) mean= -2.20354748601062E-09
DEBUG_STATS_RL:               GvNm1 (DYNAMICS) S.D.=  1.53323313448747E-06
DEBUG_STATS_RL:               GtNm1 (DYNAMICS)  min= -4.14668795855682E-06
DEBUG_STATS_RL:               GtNm1 (DYNAMICS)  max=  8.65860481747313E-06
DEBUG_STATS_RL:               GtNm1 (DYNAMICS) mean=  1.67895347167961E-09
DEBUG_STATS_RL:               GtNm1 (DYNAMICS) S.D.=  1.01561656745251E-07
DEBUG_STATS_RL:               GsNm1 (DYNAMICS)  min= -1.64058680717974E-05
DEBUG_STATS_RL:               GsNm1 (DYNAMICS)  max=  1.90742831902390E-06
DEBUG_STATS_RL:               GsNm1 (DYNAMICS) mean= -4.49326287840986E-09
DEBUG_STATS_RL:               GsNm1 (DYNAMICS) S.D.=  1.97348850133109E-07
(PID.TID 0000.0001) DEBUG_MSG: LEAVING S/R DYNAMICS
DEBUG_STATS_RL:    cg2d_b (SOLVE_FOR_PRESSURE)  min= -3.41725083239656E+05
DEBUG_STATS_RL:    cg2d_b (SOLVE_FOR_PRESSURE)  max=  1.24564612371342E+05
DEBUG_STATS_RL:    cg2d_b (SOLVE_FOR_PRESSURE) mean= -3.17296903250688E+03
DEBUG_STATS_RL:    cg2d_b (SOLVE_FOR_PRESSURE) S.D.=  1.08694722116526E+04
 cg2d: Sum(rhs),rhsMax =  -4.10403678615679E+01  6.54627848043595E+01
(PID.TID 0000.0001)  cg2d: iter=     1 ; resid.=  2.53943079940626E-02
(PID.TID 0000.0001)  cg2d: iter=     2 ; resid.=  3.98703777228078E-03
(PID.TID 0000.0001)  cg2d: iter=     3 ; resid.=  1.13046654344608E-03
(PID.TID 0000.0001)  cg2d: iter=     4 ; resid.=  3.75421859962348E-04
(PID.TID 0000.0001)  cg2d: iter=     5 ; resid.=  8.19999278181713E-05
(PID.TID 0000.0001)  cg2d: iter=     6 ; resid.=  1.79124903568611E-05
(PID.TID 0000.0001)  cg2d: iter=     7 ; resid.=  4.23115745225571E-06
(PID.TID 0000.0001)  cg2d: iter=     8 ; resid.=  1.09061824762965E-06
(PID.TID 0000.0001)  cg2d: iter=     9 ; resid.=  2.54866528005893E-07
(PID.TID 0000.0001)  cg2d: iter=    10 ; resid.=  7.76941492632313E-08
DEBUG_STATS_RL:    cg2d_x (SOLVE_FOR_PRESSURE)  min= -1.05957931581086E+01
DEBUG_STATS_RL:    cg2d_x (SOLVE_FOR_PRESSURE)  max=  2.89129931615654E+01
DEBUG_STATS_RL:    cg2d_x (SOLVE_FOR_PRESSURE) mean=  3.07332709948447E-01
DEBUG_STATS_RL:    cg2d_x (SOLVE_FOR_PRESSURE) S.D.=  1.07938185440653E+00
(PID.TID 0000.0001)      cg2d_init_res =   2.03368958306845E-01
(PID.TID 0000.0001)      cg2d_iters(min,last) =      -1      10
(PID.TID 0000.0001)      cg2d_last_res =   7.76941492632313E-08
(PID.TID 0000.0001) DEBUG_MSG: CALLING S/R UPDATE_ETAH
(PID.TID 0000.0001) DEBUG_MSG: ENTERED S/R CALC_R_STAR
(PID.TID 0000.0001) DEBUG_MSG: LEAVING S/R CALC_R_STAR
(PID.TID 0000.0001) DEBUG_MSG: CALLING S/R DO_STAGGER_FIELDS_EXCH.
(PID.TID 0000.0001) DEBUG_MSG: CALLING S/R THERMODYNAMICS
(PID.TID 0000.0001) DEBUG_MSG: ENTERED S/R THERMODYNAMICS
(PID.TID 0000.0001) DEBUG_MSG: CALLING S/R TEMP_INTEGRATE
(PID.TID 0000.0001) DEBUG_MSG: CALLING S/R SALT_INTEGRATE
DEBUG_STATS_RL:          Uvel (THERMODYNAMICS)  min= -7.01305179027295E-01
DEBUG_STATS_RL:          Uvel (THERMODYNAMICS)  max=  4.54403322130895E-01
DEBUG_STATS_RL:          Uvel (THERMODYNAMICS) mean= -7.95120773756610E-04
DEBUG_STATS_RL:          Uvel (THERMODYNAMICS) S.D.=  2.09847583851555E-02
DEBUG_STATS_RL:          Vvel (THERMODYNAMICS)  min= -4.13301443442369E-01
DEBUG_STATS_RL:          Vvel (THERMODYNAMICS)  max=  8.10326116908824E-01
DEBUG_STATS_RL:          Vvel (THERMODYNAMICS) mean= -7.01812241180130E-04
DEBUG_STATS_RL:          Vvel (THERMODYNAMICS) S.D.=  2.26659990377660E-02
DEBUG_STATS_RL:          Wvel (THERMODYNAMICS)  min= -2.36381982402466E-04
DEBUG_STATS_RL:          Wvel (THERMODYNAMICS)  max=  1.97555318077085E-04
DEBUG_STATS_RL:          Wvel (THERMODYNAMICS) mean= -2.32477630581122E-07
DEBUG_STATS_RL:          Wvel (THERMODYNAMICS) S.D.=  7.93544559482481E-06
DEBUG_STATS_RL:         Theta (THERMODYNAMICS)  min=  1.61764545449585E+01
DEBUG_STATS_RL:         Theta (THERMODYNAMICS)  max=  2.25559079084197E+01
DEBUG_STATS_RL:         Theta (THERMODYNAMICS) mean=  2.00006620978027E+01
DEBUG_STATS_RL:         Theta (THERMODYNAMICS) S.D.=  7.75549887242268E-02
DEBUG_STATS_RL:          Salt (THERMODYNAMICS)  min=  2.60194962822237E+01
DEBUG_STATS_RL:          Salt (THERMODYNAMICS)  max=  3.51510916608736E+01
DEBUG_STATS_RL:          Salt (THERMODYNAMICS) mean=  3.49977086372912E+01
DEBUG_STATS_RL:          Salt (THERMODYNAMICS) S.D.=  1.01841509035374E-01
DEBUG_STATS_RL:         GtNm1 (THERMODYNAMICS)  min= -4.17115461997455E-06
DEBUG_STATS_RL:         GtNm1 (THERMODYNAMICS)  max=  7.80421748406526E-06
DEBUG_STATS_RL:         GtNm1 (THERMODYNAMICS) mean=  1.51451163226005E-09
DEBUG_STATS_RL:         GtNm1 (THERMODYNAMICS) S.D.=  9.40258759995022E-08
DEBUG_STATS_RL:         GsNm1 (THERMODYNAMICS)  min= -1.64356297513944E-05
DEBUG_STATS_RL:         GsNm1 (THERMODYNAMICS)  max=  1.90470118788866E-06
DEBUG_STATS_RL:         GsNm1 (THERMODYNAMICS) mean= -4.47895804512953E-09
DEBUG_STATS_RL:         GsNm1 (THERMODYNAMICS) S.D.=  1.96355477074295E-07
(PID.TID 0000.0001) DEBUG_MSG: LEAVING S/R THERMODYNAMICS
(PID.TID 0000.0001) // =======================================================
(PID.TID 0000.0001) // Begin MONITOR dynamic field statistics
(PID.TID 0000.0001) // =======================================================
(PID.TID 0000.0001) %MON time_tsnumber                =                    44
(PID.TID 0000.0001) %MON time_secondsf                =   3.9600000000000E+04
(PID.TID 0000.0001) %MON dynstat_eta_max              =   2.9472979893371E+00
(PID.TID 0000.0001) %MON dynstat_eta_min              =  -1.0801012428100E+00
(PID.TID 0000.0001) %MON dynstat_eta_mean             =   3.1218130696303E-02
(PID.TID 0000.0001) %MON dynstat_eta_sd               =   1.0543134210806E-01
(PID.TID 0000.0001) %MON dynstat_eta_del2             =   2.2014540577501E-03
(PID.TID 0000.0001) %MON dynstat_uvel_max             =   4.5440332213090E-01
(PID.TID 0000.0001) %MON dynstat_uvel_min             =  -7.0130517902730E-01
(PID.TID 0000.0001) %MON dynstat_uvel_mean            =  -1.5242666144595E-04
(PID.TID 0000.0001) %MON dynstat_uvel_sd              =   6.9953641391760E-03
(PID.TID 0000.0001) %MON dynstat_uvel_del2            =   9.7535633607622E-05
(PID.TID 0000.0001) %MON dynstat_vvel_max             =   8.1032611690882E-01
(PID.TID 0000.0001) %MON dynstat_vvel_min             =  -4.1330144344237E-01
(PID.TID 0000.0001) %MON dynstat_vvel_mean            =   3.3879337789181E-04
(PID.TID 0000.0001) %MON dynstat_vvel_sd              =   7.3560636833323E-03
(PID.TID 0000.0001) %MON dynstat_vvel_del2            =   1.2080636736273E-04
(PID.TID 0000.0001) %MON dynstat_wvel_max             =   1.9755531807708E-04
(PID.TID 0000.0001) %MON dynstat_wvel_min             =  -2.3638198240247E-04
(PID.TID 0000.0001) %MON dynstat_wvel_mean            =  -1.2076045796566E-07
(PID.TID 0000.0001) %MON dynstat_wvel_sd              =   7.3165819734801E-06
(PID.TID 0000.0001) %MON dynstat_wvel_del2            =   7.2792999711633E-08
(PID.TID 0000.0001) %MON dynstat_theta_max            =   2.2555907908420E+01
(PID.TID 0000.0001) %MON dynstat_theta_min            =   1.6176454544959E+01
(PID.TID 0000.0001) %MON dynstat_theta_mean           =   1.9997885045733E+01
(PID.TID 0000.0001) %MON dynstat_theta_sd             =   2.5937461665014E-02
(PID.TID 0000.0001) %MON dynstat_theta_del2           =   4.6785440866618E-04
(PID.TID 0000.0001) %MON dynstat_salt_max             =   3.5151091660874E+01
(PID.TID 0000.0001) %MON dynstat_salt_min             =   2.6019496282224E+01
(PID.TID 0000.0001) %MON dynstat_salt_mean            =   3.4999696032584E+01
(PID.TID 0000.0001) %MON dynstat_salt_sd              =   3.1428471061410E-02
(PID.TID 0000.0001) %MON dynstat_salt_del2            =   1.0943875857020E-03
(PID.TID 0000.0001) %MON dynstat_sst_max              =   2.2555907908420E+01
(PID.TID 0000.0001) %MON dynstat_sst_min              =   1.6176454544959E+01
(PID.TID 0000.0001) %MON dynstat_sst_mean             =   2.0102662063834E+01
(PID.TID 0000.0001) %MON dynstat_sst_sd               =   2.3500410752696E-01
(PID.TID 0000.0001) %MON dynstat_sst_del2             =   5.2337891352389E-03
(PID.TID 0000.0001) %MON dynstat_sss_max              =   3.5151091660874E+01
(PID.TID 0000.0001) %MON dynstat_sss_min              =   2.6019496282224E+01
(PID.TID 0000.0001) %MON dynstat_sss_mean             =   3.4972967334203E+01
(PID.TID 0000.0001) %MON dynstat_sss_sd               =   3.7929467523531E-01
(PID.TID 0000.0001) %MON dynstat_sss_del2             =   1.4823038048192E-02
(PID.TID 0000.0001) %MON forcing_qnet_max             =   3.7903767792030E+03
(PID.TID 0000.0001) %MON forcing_qnet_min             =  -4.5215434014610E+03
(PID.TID 0000.0001) %MON forcing_qnet_mean            =  -1.3005351584518E+01
(PID.TID 0000.0001) %MON forcing_qnet_sd              =   5.4012545868507E+02
(PID.TID 0000.0001) %MON forcing_qnet_del2            =   7.9925282573891E+00
(PID.TID 0000.0001) %MON forcing_qsw_max              =   0.0000000000000E+00
(PID.TID 0000.0001) %MON forcing_qsw_min              =  -1.0799379521235E+02
(PID.TID 0000.0001) %MON forcing_qsw_mean             =  -1.3583884269893E+01
(PID.TID 0000.0001) %MON forcing_qsw_sd               =   2.5073315730154E+01
(PID.TID 0000.0001) %MON forcing_qsw_del2             =   1.8837108035826E-01
(PID.TID 0000.0001) %MON forcing_empmr_max            =   7.1056350134313E-03
(PID.TID 0000.0001) %MON forcing_empmr_min            =  -1.0214032232761E-01
(PID.TID 0000.0001) %MON forcing_empmr_mean           =  -4.4964571769995E-04
(PID.TID 0000.0001) %MON forcing_empmr_sd             =   4.5177524440470E-03
(PID.TID 0000.0001) %MON forcing_empmr_del2           =   1.7751436746966E-04
(PID.TID 0000.0001) %MON forcing_fu_max               =   6.6618874544472E-01
(PID.TID 0000.0001) %MON forcing_fu_min               =  -5.6580715370281E-01
(PID.TID 0000.0001) %MON forcing_fu_mean              =  -1.2149664752550E-03
(PID.TID 0000.0001) %MON forcing_fu_sd                =   8.9711535428980E-02
(PID.TID 0000.0001) %MON forcing_fu_del2              =   7.5682743564150E-04
(PID.TID 0000.0001) %MON forcing_fv_max               =   4.6458922693251E-01
(PID.TID 0000.0001) %MON forcing_fv_min               =  -4.0739287793440E-01
(PID.TID 0000.0001) %MON forcing_fv_mean              =  -5.1864157735710E-03
(PID.TID 0000.0001) %MON forcing_fv_sd                =   7.9624443166161E-02
(PID.TID 0000.0001) %MON forcing_fv_del2              =   6.6041013324360E-04
(PID.TID 0000.0001) %MON trAdv_CFL_u_max              =   2.4225757916708E-03
(PID.TID 0000.0001) %MON trAdv_CFL_v_max              =   2.4496025621271E-03
(PID.TID 0000.0001) %MON trAdv_CFL_w_max              =   2.9752366467814E-03
(PID.TID 0000.0001) %MON advcfl_uvel_max              =   2.3386891105501E-03
(PID.TID 0000.0001) %MON advcfl_vvel_max              =   2.4283605191321E-03
(PID.TID 0000.0001) %MON advcfl_wvel_max              =   7.1054137271384E-03
(PID.TID 0000.0001) %MON advcfl_W_hf_max              =   3.0447381652117E-03
(PID.TID 0000.0001) %MON pe_b_mean                    =   1.6106431719710E-05
(PID.TID 0000.0001) %MON ke_max                       =   1.9996176010043E-01
(PID.TID 0000.0001) %MON ke_mean                      =   4.7650700621821E-05
(PID.TID 0000.0001) %MON ke_vol                       =   1.3398136629481E+18
(PID.TID 0000.0001) %MON vort_r_min                   =  -2.6048571474441E-06
(PID.TID 0000.0001) %MON vort_r_max                   =   3.9894562895181E-06
(PID.TID 0000.0001) %MON vort_a_mean                  =  -2.0549865324846E-05
(PID.TID 0000.0001) %MON vort_a_sd                    =   7.5259327224927E-05
(PID.TID 0000.0001) %MON vort_p_mean                  =  -2.4783320613029E-05
(PID.TID 0000.0001) %MON vort_p_sd                    =   1.2810553660938E-04
(PID.TID 0000.0001) %MON surfExpan_theta_mean         =  -5.6834885881561E-07
(PID.TID 0000.0001) %MON surfExpan_salt_mean          =   1.5727341849474E-06
(PID.TID 0000.0001) // =======================================================
(PID.TID 0000.0001) // End MONITOR dynamic field statistics
(PID.TID 0000.0001) // =======================================================
(PID.TID 0000.0001) DEBUG_MSG: LEAVING S/R FORWARD_STEP
(PID.TID 0000.0001) DEBUG_MSG: ENTERED S/R FORWARD_STEP
(PID.TID 0000.0001) DEBUG_MSG: CALLING S/R LOAD_FIELDS_DRIVER
(PID.TID 0000.0001) DEBUG_MSG: ENTERED S/R LOAD_FIELDS_DRIVER
(PID.TID 0000.0001) DEBUG_MSG: CALLING S/R EXTERNAL_FIELDS_LOAD
(PID.TID 0000.0001) DEBUG_MSG: LEAVING S/R LOAD_FIELDS_DRIVER
(PID.TID 0000.0001) DEBUG_MSG: CALLING S/R DO_ATMOSPHERIC_PHYS
(PID.TID 0000.0001) DEBUG_MSG: ENTERED S/R DO_ATMOSPHERIC_PHYS
(PID.TID 0000.0001) DEBUG_MSG: LEAVING S/R DO_ATMOSPHERIC_PHYS
(PID.TID 0000.0001) DEBUG_MSG: CALLING S/R DO_OCEANIC_PHYS
(PID.TID 0000.0001) DEBUG_MSG: ENTERED S/R DO_OCEANIC_PHYS
(PID.TID 0000.0001) DEBUG_MSG: CALLING S/R EXTERNAL_FORCING_SURF
(PID.TID 0000.0001) DEBUG_MSG: CALLING S/R FIND_RHO_2D (xNr)
(PID.TID 0000.0001) DEBUG_MSG:                  ENTERING UPWARD K LOOP (bi=   1, bj=   1)
(PID.TID 0000.0001) DEBUG_MSG: CALLING S/R GRAD_SIGMA
(PID.TID 0000.0001) DEBUG_MSG: CALLING S/R CALC_IVDC
(PID.TID 0000.0001) DEBUG_MSG: CALLING S/R GRAD_SIGMA
(PID.TID 0000.0001) DEBUG_MSG: CALLING S/R CALC_IVDC
(PID.TID 0000.0001) DEBUG_MSG: CALLING S/R GRAD_SIGMA
(PID.TID 0000.0001) DEBUG_MSG: CALLING S/R CALC_IVDC
(PID.TID 0000.0001) DEBUG_MSG: CALLING S/R GRAD_SIGMA
(PID.TID 0000.0001) DEBUG_MSG: CALLING S/R CALC_IVDC
(PID.TID 0000.0001) DEBUG_MSG: CALLING S/R GRAD_SIGMA
(PID.TID 0000.0001) DEBUG_MSG: CALLING S/R CALC_IVDC
(PID.TID 0000.0001) DEBUG_MSG: CALLING S/R GRAD_SIGMA
(PID.TID 0000.0001) DEBUG_MSG: CALLING S/R CALC_IVDC
(PID.TID 0000.0001) DEBUG_MSG: CALLING S/R GRAD_SIGMA
(PID.TID 0000.0001) DEBUG_MSG: CALLING S/R CALC_IVDC
(PID.TID 0000.0001) DEBUG_MSG: CALLING S/R GRAD_SIGMA
(PID.TID 0000.0001) DEBUG_MSG: CALLING S/R CALC_IVDC
(PID.TID 0000.0001) DEBUG_MSG: CALLING S/R GRAD_SIGMA
(PID.TID 0000.0001) DEBUG_MSG: CALLING S/R CALC_IVDC
(PID.TID 0000.0001) DEBUG_MSG: CALLING S/R GRAD_SIGMA
(PID.TID 0000.0001) DEBUG_MSG: CALLING S/R CALC_IVDC
(PID.TID 0000.0001) DEBUG_MSG: CALLING S/R GRAD_SIGMA
(PID.TID 0000.0001) DEBUG_MSG: CALLING S/R CALC_IVDC
(PID.TID 0000.0001) DEBUG_MSG: CALLING S/R GRAD_SIGMA
(PID.TID 0000.0001) DEBUG_MSG: CALLING S/R CALC_IVDC
(PID.TID 0000.0001) DEBUG_MSG: CALLING S/R GRAD_SIGMA
(PID.TID 0000.0001) DEBUG_MSG: CALLING S/R CALC_IVDC
(PID.TID 0000.0001) DEBUG_MSG: CALLING S/R GRAD_SIGMA
(PID.TID 0000.0001) DEBUG_MSG: CALLING S/R CALC_IVDC
(PID.TID 0000.0001) DEBUG_MSG: CALLING S/R GRAD_SIGMA
(PID.TID 0000.0001) DEBUG_MSG: CALLING S/R CALC_IVDC
(PID.TID 0000.0001) DEBUG_MSG: CALLING S/R GRAD_SIGMA
(PID.TID 0000.0001) DEBUG_MSG: CALLING S/R GMREDI_CALC_TENSOR
(PID.TID 0000.0001) DEBUG_MSG: LEAVING S/R DO_OCEANIC_PHYS
(PID.TID 0000.0001) DEBUG_MSG: CALLING S/R DYNAMICS
(PID.TID 0000.0001) DEBUG_MSG: ENTERED S/R DYNAMICS
DEBUG_STATS_RL:                EtaN (DYNAMICS)  min= -1.08010124281004E+00
DEBUG_STATS_RL:                EtaN (DYNAMICS)  max=  2.94729798933715E+00
DEBUG_STATS_RL:                EtaN (DYNAMICS) mean=  3.13285129163200E-02
DEBUG_STATS_RL:                EtaN (DYNAMICS) S.D.=  1.10028731206981E-01
DEBUG_STATS_RL:                Uvel (DYNAMICS)  min= -7.01305179027295E-01
DEBUG_STATS_RL:                Uvel (DYNAMICS)  max=  4.54403322130895E-01
DEBUG_STATS_RL:                Uvel (DYNAMICS) mean= -7.95120773756610E-04
DEBUG_STATS_RL:                Uvel (DYNAMICS) S.D.=  2.09847583851555E-02
DEBUG_STATS_RL:                Vvel (DYNAMICS)  min= -4.13301443442369E-01
DEBUG_STATS_RL:                Vvel (DYNAMICS)  max=  8.10326116908824E-01
DEBUG_STATS_RL:                Vvel (DYNAMICS) mean= -7.01812241180130E-04
DEBUG_STATS_RL:                Vvel (DYNAMICS) S.D.=  2.26659990377660E-02
DEBUG_STATS_RL:                Wvel (DYNAMICS)  min= -2.36381982402466E-04
DEBUG_STATS_RL:                Wvel (DYNAMICS)  max=  1.97555318077085E-04
DEBUG_STATS_RL:                Wvel (DYNAMICS) mean= -2.32477630581122E-07
DEBUG_STATS_RL:                Wvel (DYNAMICS) S.D.=  7.93544559482481E-06
DEBUG_STATS_RL:               Theta (DYNAMICS)  min=  1.61764545449585E+01
DEBUG_STATS_RL:               Theta (DYNAMICS)  max=  2.25559079084197E+01
DEBUG_STATS_RL:               Theta (DYNAMICS) mean=  2.00006620978027E+01
DEBUG_STATS_RL:               Theta (DYNAMICS) S.D.=  7.75549887242268E-02
DEBUG_STATS_RL:                Salt (DYNAMICS)  min=  2.60194962822237E+01
DEBUG_STATS_RL:                Salt (DYNAMICS)  max=  3.51510916608736E+01
DEBUG_STATS_RL:                Salt (DYNAMICS) mean=  3.49977086372912E+01
DEBUG_STATS_RL:                Salt (DYNAMICS) S.D.=  1.01841509035374E-01
DEBUG_STATS_RL:                  Gu (DYNAMICS)  min= -6.93410403724667E-01
DEBUG_STATS_RL:                  Gu (DYNAMICS)  max=  4.30808456485775E-01
DEBUG_STATS_RL:                  Gu (DYNAMICS) mean= -8.03752193242492E-04
DEBUG_STATS_RL:                  Gu (DYNAMICS) S.D.=  2.07983601503216E-02
DEBUG_STATS_RL:                  Gv (DYNAMICS)  min= -4.06826911947959E-01
DEBUG_STATS_RL:                  Gv (DYNAMICS)  max=  7.99756810048332E-01
DEBUG_STATS_RL:                  Gv (DYNAMICS) mean= -7.02827332759735E-04
DEBUG_STATS_RL:                  Gv (DYNAMICS) S.D.=  2.23062265481185E-02
DEBUG_STATS_RL:               GuNm1 (DYNAMICS)  min= -2.63637596621722E-05
DEBUG_STATS_RL:               GuNm1 (DYNAMICS)  max=  2.29401483114689E-05
DEBUG_STATS_RL:               GuNm1 (DYNAMICS) mean= -1.36300736328946E-08
DEBUG_STATS_RL:               GuNm1 (DYNAMICS) S.D.=  1.26753806638539E-06
DEBUG_STATS_RL:               GvNm1 (DYNAMICS)  min= -3.56178775671073E-05
DEBUG_STATS_RL:               GvNm1 (DYNAMICS)  max=  5.25192884616528E-05
DEBUG_STATS_RL:               GvNm1 (DYNAMICS) mean= -1.98560931524584E-09
DEBUG_STATS_RL:               GvNm1 (DYNAMICS) S.D.=  1.52154671989777E-06
DEBUG_STATS_RL:               GtNm1 (DYNAMICS)  min= -4.17115461997455E-06
DEBUG_STATS_RL:               GtNm1 (DYNAMICS)  max=  7.80421748406526E-06
DEBUG_STATS_RL:               GtNm1 (DYNAMICS) mean=  1.51451163226005E-09
DEBUG_STATS_RL:               GtNm1 (DYNAMICS) S.D.=  9.40258759995022E-08
DEBUG_STATS_RL:               GsNm1 (DYNAMICS)  min= -1.64356297513944E-05
DEBUG_STATS_RL:               GsNm1 (DYNAMICS)  max=  1.90470118788866E-06
DEBUG_STATS_RL:               GsNm1 (DYNAMICS) mean= -4.47895804512953E-09
DEBUG_STATS_RL:               GsNm1 (DYNAMICS) S.D.=  1.96355477074295E-07
(PID.TID 0000.0001) DEBUG_MSG: LEAVING S/R DYNAMICS
DEBUG_STATS_RL:    cg2d_b (SOLVE_FOR_PRESSURE)  min= -3.47121745474886E+05
DEBUG_STATS_RL:    cg2d_b (SOLVE_FOR_PRESSURE)  max=  1.32602200517019E+05
DEBUG_STATS_RL:    cg2d_b (SOLVE_FOR_PRESSURE) mean= -3.21239533829584E+03
DEBUG_STATS_RL:    cg2d_b (SOLVE_FOR_PRESSURE) S.D.=  1.09912915991054E+04
 cg2d: Sum(rhs),rhsMax =  -4.09043443125198E+01  6.64965998676773E+01
(PID.TID 0000.0001)  cg2d: iter=     1 ; resid.=  2.46892650299427E-02
(PID.TID 0000.0001)  cg2d: iter=     2 ; resid.=  3.96906989652868E-03
(PID.TID 0000.0001)  cg2d: iter=     3 ; resid.=  1.12786679053375E-03
(PID.TID 0000.0001)  cg2d: iter=     4 ; resid.=  3.69851153011354E-04
(PID.TID 0000.0001)  cg2d: iter=     5 ; resid.=  8.00528712944146E-05
(PID.TID 0000.0001)  cg2d: iter=     6 ; resid.=  1.80536691193727E-05
(PID.TID 0000.0001)  cg2d: iter=     7 ; resid.=  4.44246712643669E-06
(PID.TID 0000.0001)  cg2d: iter=     8 ; resid.=  1.16656814100767E-06
(PID.TID 0000.0001)  cg2d: iter=     9 ; resid.=  3.08452585439664E-07
(PID.TID 0000.0001)  cg2d: iter=    10 ; resid.=  9.79846014880398E-08
DEBUG_STATS_RL:    cg2d_x (SOLVE_FOR_PRESSURE)  min= -1.12897526047550E+01
DEBUG_STATS_RL:    cg2d_x (SOLVE_FOR_PRESSURE)  max=  3.09923657105202E+01
DEBUG_STATS_RL:    cg2d_x (SOLVE_FOR_PRESSURE) mean=  3.12176374796905E-01
DEBUG_STATS_RL:    cg2d_x (SOLVE_FOR_PRESSURE) S.D.=  1.09440655252771E+00
(PID.TID 0000.0001)      cg2d_init_res =   1.87085715224005E-01
(PID.TID 0000.0001)      cg2d_iters(min,last) =      -1      10
(PID.TID 0000.0001)      cg2d_last_res =   9.79846014880398E-08
(PID.TID 0000.0001) DEBUG_MSG: CALLING S/R UPDATE_ETAH
(PID.TID 0000.0001) DEBUG_MSG: ENTERED S/R CALC_R_STAR
(PID.TID 0000.0001) DEBUG_MSG: LEAVING S/R CALC_R_STAR
(PID.TID 0000.0001) DEBUG_MSG: CALLING S/R DO_STAGGER_FIELDS_EXCH.
(PID.TID 0000.0001) DEBUG_MSG: CALLING S/R THERMODYNAMICS
(PID.TID 0000.0001) DEBUG_MSG: ENTERED S/R THERMODYNAMICS
(PID.TID 0000.0001) DEBUG_MSG: CALLING S/R TEMP_INTEGRATE
(PID.TID 0000.0001) DEBUG_MSG: CALLING S/R SALT_INTEGRATE
DEBUG_STATS_RL:          Uvel (THERMODYNAMICS)  min= -6.12653044280360E-01
DEBUG_STATS_RL:          Uvel (THERMODYNAMICS)  max=  4.52598168161465E-01
DEBUG_STATS_RL:          Uvel (THERMODYNAMICS) mean= -7.95944716406994E-04
DEBUG_STATS_RL:          Uvel (THERMODYNAMICS) S.D.=  2.06288742017270E-02
DEBUG_STATS_RL:          Vvel (THERMODYNAMICS)  min= -4.11357102250196E-01
DEBUG_STATS_RL:          Vvel (THERMODYNAMICS)  max=  7.26316593673427E-01
DEBUG_STATS_RL:          Vvel (THERMODYNAMICS) mean= -6.84009436005147E-04
DEBUG_STATS_RL:          Vvel (THERMODYNAMICS) S.D.=  2.21513899486111E-02
DEBUG_STATS_RL:          Wvel (THERMODYNAMICS)  min= -2.37089137773994E-04
DEBUG_STATS_RL:          Wvel (THERMODYNAMICS)  max=  1.93199772669141E-04
DEBUG_STATS_RL:          Wvel (THERMODYNAMICS) mean= -2.57149847823539E-07
DEBUG_STATS_RL:          Wvel (THERMODYNAMICS) S.D.=  7.85794009241305E-06
DEBUG_STATS_RL:         Theta (THERMODYNAMICS)  min=  1.61790258782292E+01
DEBUG_STATS_RL:         Theta (THERMODYNAMICS)  max=  2.25986775211534E+01
DEBUG_STATS_RL:         Theta (THERMODYNAMICS) mean=  2.00007727736871E+01
DEBUG_STATS_RL:         Theta (THERMODYNAMICS) S.D.=  7.81772715015383E-02
DEBUG_STATS_RL:          Salt (THERMODYNAMICS)  min=  2.59130732235889E+01
DEBUG_STATS_RL:          Salt (THERMODYNAMICS)  max=  3.51510891541979E+01
DEBUG_STATS_RL:          Salt (THERMODYNAMICS) mean=  3.49976764947328E+01
DEBUG_STATS_RL:          Salt (THERMODYNAMICS) S.D.=  1.03094228183047E-01
DEBUG_STATS_RL:         GtNm1 (THERMODYNAMICS)  min= -4.12542011245809E-06
DEBUG_STATS_RL:         GtNm1 (THERMODYNAMICS)  max=  6.89529501467688E-06
DEBUG_STATS_RL:         GtNm1 (THERMODYNAMICS) mean=  1.35296408012235E-09
DEBUG_STATS_RL:         GtNm1 (THERMODYNAMICS) S.D.=  8.67622682484160E-08
DEBUG_STATS_RL:         GsNm1 (THERMODYNAMICS)  min= -1.64611815353524E-05
DEBUG_STATS_RL:         GsNm1 (THERMODYNAMICS)  max=  1.90641806595463E-06
DEBUG_STATS_RL:         GsNm1 (THERMODYNAMICS) mean= -4.46736676699081E-09
DEBUG_STATS_RL:         GsNm1 (THERMODYNAMICS) S.D.=  1.95409610356234E-07
(PID.TID 0000.0001) DEBUG_MSG: LEAVING S/R THERMODYNAMICS
(PID.TID 0000.0001) // =======================================================
(PID.TID 0000.0001) // Begin MONITOR dynamic field statistics
(PID.TID 0000.0001) // =======================================================
(PID.TID 0000.0001) %MON time_tsnumber                =                    45
(PID.TID 0000.0001) %MON time_secondsf                =   4.0500000000000E+04
(PID.TID 0000.0001) %MON dynstat_eta_max              =   3.1592625738446E+00
(PID.TID 0000.0001) %MON dynstat_eta_min              =  -1.1508412467589E+00
(PID.TID 0000.0001) %MON dynstat_eta_mean             =   3.1606037276665E-02
(PID.TID 0000.0001) %MON dynstat_eta_sd               =   1.0677264517876E-01
(PID.TID 0000.0001) %MON dynstat_eta_del2             =   2.2715503673474E-03
(PID.TID 0000.0001) %MON dynstat_uvel_max             =   4.5259816816146E-01
(PID.TID 0000.0001) %MON dynstat_uvel_min             =  -6.1265304428036E-01
(PID.TID 0000.0001) %MON dynstat_uvel_mean            =  -1.6073588867749E-04
(PID.TID 0000.0001) %MON dynstat_uvel_sd              =   6.8922283921587E-03
(PID.TID 0000.0001) %MON dynstat_uvel_del2            =   9.7702275180168E-05
(PID.TID 0000.0001) %MON dynstat_vvel_max             =   7.2631659367343E-01
(PID.TID 0000.0001) %MON dynstat_vvel_min             =  -4.1135710225020E-01
(PID.TID 0000.0001) %MON dynstat_vvel_mean            =   3.8776280958085E-04
(PID.TID 0000.0001) %MON dynstat_vvel_sd              =   7.2092278589529E-03
(PID.TID 0000.0001) %MON dynstat_vvel_del2            =   1.1520526847633E-04
(PID.TID 0000.0001) %MON dynstat_wvel_max             =   1.9319977266914E-04
(PID.TID 0000.0001) %MON dynstat_wvel_min             =  -2.3708913777399E-04
(PID.TID 0000.0001) %MON dynstat_wvel_mean            =  -1.5602157820092E-07
(PID.TID 0000.0001) %MON dynstat_wvel_sd              =   7.2584235362545E-06
(PID.TID 0000.0001) %MON dynstat_wvel_del2            =   7.3208457499860E-08
(PID.TID 0000.0001) %MON dynstat_theta_max            =   2.2598677521153E+01
(PID.TID 0000.0001) %MON dynstat_theta_min            =   1.6179025878229E+01
(PID.TID 0000.0001) %MON dynstat_theta_mean           =   1.9997885853069E+01
(PID.TID 0000.0001) %MON dynstat_theta_sd             =   2.6133882677116E-02
(PID.TID 0000.0001) %MON dynstat_theta_del2           =   4.7066583156104E-04
(PID.TID 0000.0001) %MON dynstat_salt_max             =   3.5151089154198E+01
(PID.TID 0000.0001) %MON dynstat_salt_min             =   2.5913073223589E+01
(PID.TID 0000.0001) %MON dynstat_salt_mean            =   3.4999692306781E+01
(PID.TID 0000.0001) %MON dynstat_salt_sd              =   3.1815565800771E-02
(PID.TID 0000.0001) %MON dynstat_salt_del2            =   1.1074376825377E-03
(PID.TID 0000.0001) %MON dynstat_sst_max              =   2.2598677521153E+01
(PID.TID 0000.0001) %MON dynstat_sst_min              =   1.6179025878229E+01
(PID.TID 0000.0001) %MON dynstat_sst_mean             =   2.0104395101400E+01
(PID.TID 0000.0001) %MON dynstat_sst_sd               =   2.3717951998587E-01
(PID.TID 0000.0001) %MON dynstat_sst_del2             =   5.2784248639523E-03
(PID.TID 0000.0001) %MON dynstat_sss_max              =   3.5151089154198E+01
(PID.TID 0000.0001) %MON dynstat_sss_min              =   2.5913073223589E+01
(PID.TID 0000.0001) %MON dynstat_sss_mean             =   3.4972581738766E+01
(PID.TID 0000.0001) %MON dynstat_sss_sd               =   3.8395177481201E-01
(PID.TID 0000.0001) %MON dynstat_sss_del2             =   1.4999416852115E-02
(PID.TID 0000.0001) %MON forcing_qnet_max             =   3.7370124730184E+03
(PID.TID 0000.0001) %MON forcing_qnet_min             =  -4.4542023754427E+03
(PID.TID 0000.0001) %MON forcing_qnet_mean            =  -1.2575688809198E+01
(PID.TID 0000.0001) %MON forcing_qnet_sd              =   5.3578588864904E+02
(PID.TID 0000.0001) %MON forcing_qnet_del2            =   8.0630621344894E+00
(PID.TID 0000.0001) %MON forcing_qsw_max              =   0.0000000000000E+00
(PID.TID 0000.0001) %MON forcing_qsw_min              =  -1.0998248240494E+02
(PID.TID 0000.0001) %MON forcing_qsw_mean             =  -1.3505559688099E+01
(PID.TID 0000.0001) %MON forcing_qsw_sd               =   2.4751704412740E+01
(PID.TID 0000.0001) %MON forcing_qsw_del2             =   1.8767990114915E-01
(PID.TID 0000.0001) %MON forcing_empmr_max            =   7.0324228145182E-03
(PID.TID 0000.0001) %MON forcing_empmr_min            =  -1.0108810663223E-01
(PID.TID 0000.0001) %MON forcing_empmr_mean           =  -4.4609256741564E-04
(PID.TID 0000.0001) %MON forcing_empmr_sd             =   4.4718899690029E-03
(PID.TID 0000.0001) %MON forcing_empmr_del2           =   1.7569317176794E-04
(PID.TID 0000.0001) %MON forcing_fu_max               =   6.6740575958552E-01
(PID.TID 0000.0001) %MON forcing_fu_min               =  -5.7058372670125E-01
(PID.TID 0000.0001) %MON forcing_fu_mean              =  -1.2731826486566E-03
(PID.TID 0000.0001) %MON forcing_fu_sd                =   8.9707186671058E-02
(PID.TID 0000.0001) %MON forcing_fu_del2              =   7.5782596871622E-04
(PID.TID 0000.0001) %MON forcing_fv_max               =   4.6026691907729E-01
(PID.TID 0000.0001) %MON forcing_fv_min               =  -4.0753933711139E-01
(PID.TID 0000.0001) %MON forcing_fv_mean              =  -5.3331806292763E-03
(PID.TID 0000.0001) %MON forcing_fv_sd                =   7.9470668189149E-02
(PID.TID 0000.0001) %MON forcing_fv_del2              =   6.5859538309277E-04
(PID.TID 0000.0001) %MON trAdv_CFL_u_max              =   2.0856977213809E-03
(PID.TID 0000.0001) %MON trAdv_CFL_v_max              =   2.2019664533613E-03
(PID.TID 0000.0001) %MON trAdv_CFL_w_max              =   2.8756664333518E-03
(PID.TID 0000.0001) %MON advcfl_uvel_max              =   2.0095345862012E-03
(PID.TID 0000.0001) %MON advcfl_vvel_max              =   2.1766033497666E-03
(PID.TID 0000.0001) %MON advcfl_wvel_max              =   7.0322161135466E-03
(PID.TID 0000.0001) %MON advcfl_W_hf_max              =   2.9177610047489E-03
(PID.TID 0000.0001) %MON pe_b_mean                    =   1.6518071311944E-05
(PID.TID 0000.0001) %MON ke_max                       =   1.6220966221422E-01
(PID.TID 0000.0001) %MON ke_mean                      =   4.6018112162698E-05
(PID.TID 0000.0001) %MON ke_vol                       =   1.3398138052265E+18
(PID.TID 0000.0001) %MON vort_r_min                   =  -2.6373638143498E-06
(PID.TID 0000.0001) %MON vort_r_max                   =   3.6737826904254E-06
(PID.TID 0000.0001) %MON vort_a_mean                  =  -2.0549865324846E-05
(PID.TID 0000.0001) %MON vort_a_sd                    =   7.5259339960962E-05
(PID.TID 0000.0001) %MON vort_p_mean                  =  -2.4783318201490E-05
(PID.TID 0000.0001) %MON vort_p_sd                    =   1.2810550944600E-04
(PID.TID 0000.0001) %MON surfExpan_theta_mean         =  -5.0762526505510E-07
(PID.TID 0000.0001) %MON surfExpan_salt_mean          =   1.5712627622229E-06
(PID.TID 0000.0001) // =======================================================
(PID.TID 0000.0001) // End MONITOR dynamic field statistics
(PID.TID 0000.0001) // =======================================================
(PID.TID 0000.0001) DEBUG_MSG: LEAVING S/R FORWARD_STEP
(PID.TID 0000.0001) DEBUG_MSG: ENTERED S/R FORWARD_STEP
(PID.TID 0000.0001) DEBUG_MSG: CALLING S/R LOAD_FIELDS_DRIVER
(PID.TID 0000.0001) DEBUG_MSG: ENTERED S/R LOAD_FIELDS_DRIVER
(PID.TID 0000.0001) DEBUG_MSG: CALLING S/R EXTERNAL_FIELDS_LOAD
(PID.TID 0000.0001) DEBUG_MSG: LEAVING S/R LOAD_FIELDS_DRIVER
(PID.TID 0000.0001) DEBUG_MSG: CALLING S/R DO_ATMOSPHERIC_PHYS
(PID.TID 0000.0001) DEBUG_MSG: ENTERED S/R DO_ATMOSPHERIC_PHYS
(PID.TID 0000.0001) DEBUG_MSG: LEAVING S/R DO_ATMOSPHERIC_PHYS
(PID.TID 0000.0001) DEBUG_MSG: CALLING S/R DO_OCEANIC_PHYS
(PID.TID 0000.0001) DEBUG_MSG: ENTERED S/R DO_OCEANIC_PHYS
(PID.TID 0000.0001) DEBUG_MSG: CALLING S/R EXTERNAL_FORCING_SURF
(PID.TID 0000.0001) DEBUG_MSG: CALLING S/R FIND_RHO_2D (xNr)
(PID.TID 0000.0001) DEBUG_MSG:                  ENTERING UPWARD K LOOP (bi=   1, bj=   1)
(PID.TID 0000.0001) DEBUG_MSG: CALLING S/R GRAD_SIGMA
(PID.TID 0000.0001) DEBUG_MSG: CALLING S/R CALC_IVDC
(PID.TID 0000.0001) DEBUG_MSG: CALLING S/R GRAD_SIGMA
(PID.TID 0000.0001) DEBUG_MSG: CALLING S/R CALC_IVDC
(PID.TID 0000.0001) DEBUG_MSG: CALLING S/R GRAD_SIGMA
(PID.TID 0000.0001) DEBUG_MSG: CALLING S/R CALC_IVDC
(PID.TID 0000.0001) DEBUG_MSG: CALLING S/R GRAD_SIGMA
(PID.TID 0000.0001) DEBUG_MSG: CALLING S/R CALC_IVDC
(PID.TID 0000.0001) DEBUG_MSG: CALLING S/R GRAD_SIGMA
(PID.TID 0000.0001) DEBUG_MSG: CALLING S/R CALC_IVDC
(PID.TID 0000.0001) DEBUG_MSG: CALLING S/R GRAD_SIGMA
(PID.TID 0000.0001) DEBUG_MSG: CALLING S/R CALC_IVDC
(PID.TID 0000.0001) DEBUG_MSG: CALLING S/R GRAD_SIGMA
(PID.TID 0000.0001) DEBUG_MSG: CALLING S/R CALC_IVDC
(PID.TID 0000.0001) DEBUG_MSG: CALLING S/R GRAD_SIGMA
(PID.TID 0000.0001) DEBUG_MSG: CALLING S/R CALC_IVDC
(PID.TID 0000.0001) DEBUG_MSG: CALLING S/R GRAD_SIGMA
(PID.TID 0000.0001) DEBUG_MSG: CALLING S/R CALC_IVDC
(PID.TID 0000.0001) DEBUG_MSG: CALLING S/R GRAD_SIGMA
(PID.TID 0000.0001) DEBUG_MSG: CALLING S/R CALC_IVDC
(PID.TID 0000.0001) DEBUG_MSG: CALLING S/R GRAD_SIGMA
(PID.TID 0000.0001) DEBUG_MSG: CALLING S/R CALC_IVDC
(PID.TID 0000.0001) DEBUG_MSG: CALLING S/R GRAD_SIGMA
(PID.TID 0000.0001) DEBUG_MSG: CALLING S/R CALC_IVDC
(PID.TID 0000.0001) DEBUG_MSG: CALLING S/R GRAD_SIGMA
(PID.TID 0000.0001) DEBUG_MSG: CALLING S/R CALC_IVDC
(PID.TID 0000.0001) DEBUG_MSG: CALLING S/R GRAD_SIGMA
(PID.TID 0000.0001) DEBUG_MSG: CALLING S/R CALC_IVDC
(PID.TID 0000.0001) DEBUG_MSG: CALLING S/R GRAD_SIGMA
(PID.TID 0000.0001) DEBUG_MSG: CALLING S/R CALC_IVDC
(PID.TID 0000.0001) DEBUG_MSG: CALLING S/R GRAD_SIGMA
(PID.TID 0000.0001) DEBUG_MSG: CALLING S/R GMREDI_CALC_TENSOR
(PID.TID 0000.0001) DEBUG_MSG: LEAVING S/R DO_OCEANIC_PHYS
(PID.TID 0000.0001) DEBUG_MSG: CALLING S/R DYNAMICS
(PID.TID 0000.0001) DEBUG_MSG: ENTERED S/R DYNAMICS
DEBUG_STATS_RL:                EtaN (DYNAMICS)  min= -1.15084124675892E+00
DEBUG_STATS_RL:                EtaN (DYNAMICS)  max=  3.15926257384460E+00
DEBUG_STATS_RL:                EtaN (DYNAMICS) mean=  3.18222607977765E-02
DEBUG_STATS_RL:                EtaN (DYNAMICS) S.D.=  1.11560300698271E-01
DEBUG_STATS_RL:                Uvel (DYNAMICS)  min= -6.12653044280360E-01
DEBUG_STATS_RL:                Uvel (DYNAMICS)  max=  4.52598168161465E-01
DEBUG_STATS_RL:                Uvel (DYNAMICS) mean= -7.95944716406994E-04
DEBUG_STATS_RL:                Uvel (DYNAMICS) S.D.=  2.06288742017270E-02
DEBUG_STATS_RL:                Vvel (DYNAMICS)  min= -4.11357102250196E-01
DEBUG_STATS_RL:                Vvel (DYNAMICS)  max=  7.26316593673427E-01
DEBUG_STATS_RL:                Vvel (DYNAMICS) mean= -6.84009436005147E-04
DEBUG_STATS_RL:                Vvel (DYNAMICS) S.D.=  2.21513899486111E-02
DEBUG_STATS_RL:                Wvel (DYNAMICS)  min= -2.37089137773994E-04
DEBUG_STATS_RL:                Wvel (DYNAMICS)  max=  1.93199772669141E-04
DEBUG_STATS_RL:                Wvel (DYNAMICS) mean= -2.57149847823539E-07
DEBUG_STATS_RL:                Wvel (DYNAMICS) S.D.=  7.85794009241305E-06
DEBUG_STATS_RL:               Theta (DYNAMICS)  min=  1.61790258782292E+01
DEBUG_STATS_RL:               Theta (DYNAMICS)  max=  2.25986775211534E+01
DEBUG_STATS_RL:               Theta (DYNAMICS) mean=  2.00007727736871E+01
DEBUG_STATS_RL:               Theta (DYNAMICS) S.D.=  7.81772715015383E-02
DEBUG_STATS_RL:                Salt (DYNAMICS)  min=  2.59130732235889E+01
DEBUG_STATS_RL:                Salt (DYNAMICS)  max=  3.51510891541979E+01
DEBUG_STATS_RL:                Salt (DYNAMICS) mean=  3.49976764947328E+01
DEBUG_STATS_RL:                Salt (DYNAMICS) S.D.=  1.03094228183047E-01
DEBUG_STATS_RL:                  Gu (DYNAMICS)  min= -6.12129749746349E-01
DEBUG_STATS_RL:                  Gu (DYNAMICS)  max=  4.28603448059808E-01
DEBUG_STATS_RL:                  Gu (DYNAMICS) mean= -7.99235222449550E-04
DEBUG_STATS_RL:                  Gu (DYNAMICS) S.D.=  2.04062686399414E-02
DEBUG_STATS_RL:                  Gv (DYNAMICS)  min= -4.10752628176201E-01
DEBUG_STATS_RL:                  Gv (DYNAMICS)  max=  7.17909987145908E-01
DEBUG_STATS_RL:                  Gv (DYNAMICS) mean= -6.85338687085091E-04
DEBUG_STATS_RL:                  Gv (DYNAMICS) S.D.=  2.18153395657011E-02
DEBUG_STATS_RL:               GuNm1 (DYNAMICS)  min= -2.66389685036357E-05
DEBUG_STATS_RL:               GuNm1 (DYNAMICS)  max=  2.48375379301900E-05
DEBUG_STATS_RL:               GuNm1 (DYNAMICS) mean= -7.69356902332862E-09
DEBUG_STATS_RL:               GuNm1 (DYNAMICS) S.D.=  1.24761579466465E-06
DEBUG_STATS_RL:               GvNm1 (DYNAMICS)  min= -3.67332978660650E-05
DEBUG_STATS_RL:               GvNm1 (DYNAMICS)  max=  4.81821771641347E-05
DEBUG_STATS_RL:               GvNm1 (DYNAMICS) mean= -2.12657607266771E-09
DEBUG_STATS_RL:               GvNm1 (DYNAMICS) S.D.=  1.50626254966546E-06
DEBUG_STATS_RL:               GtNm1 (DYNAMICS)  min= -4.12542011245809E-06
DEBUG_STATS_RL:               GtNm1 (DYNAMICS)  max=  6.89529501467688E-06
DEBUG_STATS_RL:               GtNm1 (DYNAMICS) mean=  1.35296408012235E-09
DEBUG_STATS_RL:               GtNm1 (DYNAMICS) S.D.=  8.67622682484160E-08
DEBUG_STATS_RL:               GsNm1 (DYNAMICS)  min= -1.64611815353524E-05
DEBUG_STATS_RL:               GsNm1 (DYNAMICS)  max=  1.90641806595463E-06
DEBUG_STATS_RL:               GsNm1 (DYNAMICS) mean= -4.46736676699081E-09
DEBUG_STATS_RL:               GsNm1 (DYNAMICS) S.D.=  1.95409610356234E-07
(PID.TID 0000.0001) DEBUG_MSG: LEAVING S/R DYNAMICS
DEBUG_STATS_RL:    cg2d_b (SOLVE_FOR_PRESSURE)  min= -3.50679462392183E+05
DEBUG_STATS_RL:    cg2d_b (SOLVE_FOR_PRESSURE)  max=  1.37484401150721E+05
DEBUG_STATS_RL:    cg2d_b (SOLVE_FOR_PRESSURE) mean= -3.25161219491106E+03
DEBUG_STATS_RL:    cg2d_b (SOLVE_FOR_PRESSURE) S.D.=  1.10747432446055E+04
 cg2d: Sum(rhs),rhsMax =  -4.09836544275118E+01  6.71781361913907E+01
(PID.TID 0000.0001)  cg2d: iter=     1 ; resid.=  2.42664065582403E-02
(PID.TID 0000.0001)  cg2d: iter=     2 ; resid.=  3.94271817809865E-03
(PID.TID 0000.0001)  cg2d: iter=     3 ; resid.=  1.10507517110776E-03
(PID.TID 0000.0001)  cg2d: iter=     4 ; resid.=  3.60164834961139E-04
(PID.TID 0000.0001)  cg2d: iter=     5 ; resid.=  7.94743288004857E-05
(PID.TID 0000.0001)  cg2d: iter=     6 ; resid.=  1.84744690662791E-05
(PID.TID 0000.0001)  cg2d: iter=     7 ; resid.=  4.63196652701796E-06
(PID.TID 0000.0001)  cg2d: iter=     8 ; resid.=  1.25303297867920E-06
(PID.TID 0000.0001)  cg2d: iter=     9 ; resid.=  3.59366185954407E-07
(PID.TID 0000.0001)  cg2d: iter=    10 ; resid.=  1.08256976265815E-07
(PID.TID 0000.0001)  cg2d: iter=    11 ; resid.=  2.92189825308861E-08
DEBUG_STATS_RL:    cg2d_x (SOLVE_FOR_PRESSURE)  min= -1.17133969745610E+01
DEBUG_STATS_RL:    cg2d_x (SOLVE_FOR_PRESSURE)  max=  3.24982690924569E+01
DEBUG_STATS_RL:    cg2d_x (SOLVE_FOR_PRESSURE) mean=  3.17216601607352E-01
DEBUG_STATS_RL:    cg2d_x (SOLVE_FOR_PRESSURE) S.D.=  1.10579265608778E+00
(PID.TID 0000.0001)      cg2d_init_res =   1.72610184052415E-01
(PID.TID 0000.0001)      cg2d_iters(min,last) =      -1      11
(PID.TID 0000.0001)      cg2d_last_res =   2.92189825308861E-08
(PID.TID 0000.0001) DEBUG_MSG: CALLING S/R UPDATE_ETAH
(PID.TID 0000.0001) DEBUG_MSG: ENTERED S/R CALC_R_STAR
(PID.TID 0000.0001) DEBUG_MSG: LEAVING S/R CALC_R_STAR
(PID.TID 0000.0001) DEBUG_MSG: CALLING S/R DO_STAGGER_FIELDS_EXCH.
(PID.TID 0000.0001) DEBUG_MSG: CALLING S/R THERMODYNAMICS
(PID.TID 0000.0001) DEBUG_MSG: ENTERED S/R THERMODYNAMICS
(PID.TID 0000.0001) DEBUG_MSG: CALLING S/R TEMP_INTEGRATE
(PID.TID 0000.0001) DEBUG_MSG: CALLING S/R SALT_INTEGRATE
DEBUG_STATS_RL:          Uvel (THERMODYNAMICS)  min= -5.44478078326236E-01
DEBUG_STATS_RL:          Uvel (THERMODYNAMICS)  max=  4.48920810556241E-01
DEBUG_STATS_RL:          Uvel (THERMODYNAMICS) mean= -7.92073696326849E-04
DEBUG_STATS_RL:          Uvel (THERMODYNAMICS) S.D.=  2.02597060095561E-02
DEBUG_STATS_RL:          Vvel (THERMODYNAMICS)  min= -4.12487253495710E-01
DEBUG_STATS_RL:          Vvel (THERMODYNAMICS)  max=  6.39107871594714E-01
DEBUG_STATS_RL:          Vvel (THERMODYNAMICS) mean= -6.65984730931670E-04
DEBUG_STATS_RL:          Vvel (THERMODYNAMICS) S.D.=  2.16910058699154E-02
DEBUG_STATS_RL:          Wvel (THERMODYNAMICS)  min= -2.36177993300061E-04
DEBUG_STATS_RL:          Wvel (THERMODYNAMICS)  max=  1.88549245779293E-04
DEBUG_STATS_RL:          Wvel (THERMODYNAMICS) mean= -2.83328056282247E-07
DEBUG_STATS_RL:          Wvel (THERMODYNAMICS) S.D.=  7.79093607549608E-06
DEBUG_STATS_RL:         Theta (THERMODYNAMICS)  min=  1.61807592137137E+01
DEBUG_STATS_RL:         Theta (THERMODYNAMICS)  max=  2.26408775160912E+01
DEBUG_STATS_RL:         Theta (THERMODYNAMICS) mean=  2.00008826538584E+01
DEBUG_STATS_RL:         Theta (THERMODYNAMICS) S.D.=  7.87991144355858E-02
DEBUG_STATS_RL:          Salt (THERMODYNAMICS)  min=  2.58092491724159E+01
DEBUG_STATS_RL:          Salt (THERMODYNAMICS)  max=  3.51510862506859E+01
DEBUG_STATS_RL:          Salt (THERMODYNAMICS) mean=  3.49976453295277E+01
DEBUG_STATS_RL:          Salt (THERMODYNAMICS) S.D.=  1.04317514566756E-01
DEBUG_STATS_RL:         GtNm1 (THERMODYNAMICS)  min= -4.00865851169318E-06
DEBUG_STATS_RL:         GtNm1 (THERMODYNAMICS)  max=  5.94474765823771E-06
DEBUG_STATS_RL:         GtNm1 (THERMODYNAMICS) mean=  1.19597397063091E-09
DEBUG_STATS_RL:         GtNm1 (THERMODYNAMICS) S.D.=  7.97626533235817E-08
DEBUG_STATS_RL:         GsNm1 (THERMODYNAMICS)  min= -1.64827284470829E-05
DEBUG_STATS_RL:         GsNm1 (THERMODYNAMICS)  max=  1.91200225147588E-06
DEBUG_STATS_RL:         GsNm1 (THERMODYNAMICS) mean= -4.45541984188622E-09
DEBUG_STATS_RL:         GsNm1 (THERMODYNAMICS) S.D.=  1.94462499950061E-07
(PID.TID 0000.0001) DEBUG_MSG: LEAVING S/R THERMODYNAMICS
(PID.TID 0000.0001) // =======================================================
(PID.TID 0000.0001) // Begin MONITOR dynamic field statistics
(PID.TID 0000.0001) // =======================================================
(PID.TID 0000.0001) %MON time_tsnumber                =                    46
(PID.TID 0000.0001) %MON time_secondsf                =   4.1400000000000E+04
(PID.TID 0000.0001) %MON dynstat_eta_max              =   3.3127695272755E+00
(PID.TID 0000.0001) %MON dynstat_eta_min              =  -1.1940261952213E+00
(PID.TID 0000.0001) %MON dynstat_eta_mean             =   3.1991883133579E-02
(PID.TID 0000.0001) %MON dynstat_eta_sd               =   1.0773682608706E-01
(PID.TID 0000.0001) %MON dynstat_eta_del2             =   2.3279669456988E-03
(PID.TID 0000.0001) %MON dynstat_uvel_max             =   4.4892081055624E-01
(PID.TID 0000.0001) %MON dynstat_uvel_min             =  -5.4447807832624E-01
(PID.TID 0000.0001) %MON dynstat_uvel_mean            =  -1.6618704949940E-04
(PID.TID 0000.0001) %MON dynstat_uvel_sd              =   6.7827013401271E-03
(PID.TID 0000.0001) %MON dynstat_uvel_del2            =   9.8088159457816E-05
(PID.TID 0000.0001) %MON dynstat_vvel_max             =   6.3910787159471E-01
(PID.TID 0000.0001) %MON dynstat_vvel_min             =  -4.1248725349571E-01
(PID.TID 0000.0001) %MON dynstat_vvel_mean            =   4.3698293458837E-04
(PID.TID 0000.0001) %MON dynstat_vvel_sd              =   7.0816103071807E-03
(PID.TID 0000.0001) %MON dynstat_vvel_del2            =   1.1005251072224E-04
(PID.TID 0000.0001) %MON dynstat_wvel_max             =   1.8854924577929E-04
(PID.TID 0000.0001) %MON dynstat_wvel_min             =  -2.3617799330006E-04
(PID.TID 0000.0001) %MON dynstat_wvel_mean            =  -1.9275020070380E-07
(PID.TID 0000.0001) %MON dynstat_wvel_sd              =   7.2131730971327E-06
(PID.TID 0000.0001) %MON dynstat_wvel_del2            =   7.3724296197796E-08
(PID.TID 0000.0001) %MON dynstat_theta_max            =   2.2640877516091E+01
(PID.TID 0000.0001) %MON dynstat_theta_min            =   1.6180759213714E+01
(PID.TID 0000.0001) %MON dynstat_theta_mean           =   1.9997886597711E+01
(PID.TID 0000.0001) %MON dynstat_theta_sd             =   2.6329370612004E-02
(PID.TID 0000.0001) %MON dynstat_theta_del2           =   4.7351004036038E-04
(PID.TID 0000.0001) %MON dynstat_salt_max             =   3.5151086250686E+01
(PID.TID 0000.0001) %MON dynstat_salt_min             =   2.5809249172416E+01
(PID.TID 0000.0001) %MON dynstat_salt_mean            =   3.4999688630768E+01
(PID.TID 0000.0001) %MON dynstat_salt_sd              =   3.2193852607960E-02
(PID.TID 0000.0001) %MON dynstat_salt_del2            =   1.1201632027236E-03
(PID.TID 0000.0001) %MON dynstat_sst_max              =   2.2640877516091E+01
(PID.TID 0000.0001) %MON dynstat_sst_min              =   1.6180759213714E+01
(PID.TID 0000.0001) %MON dynstat_sst_mean             =   2.0106099044820E+01
(PID.TID 0000.0001) %MON dynstat_sst_sd               =   2.3934522375947E-01
(PID.TID 0000.0001) %MON dynstat_sst_del2             =   5.3230155185948E-03
(PID.TID 0000.0001) %MON dynstat_sss_max              =   3.5151086250686E+01
(PID.TID 0000.0001) %MON dynstat_sss_min              =   2.5809249172416E+01
(PID.TID 0000.0001) %MON dynstat_sss_mean             =   3.4972201786847E+01
(PID.TID 0000.0001) %MON dynstat_sss_sd               =   3.8849963668614E-01
(PID.TID 0000.0001) %MON dynstat_sss_del2             =   1.5171377633712E-02
(PID.TID 0000.0001) %MON forcing_qnet_max             =   3.6839839723583E+03
(PID.TID 0000.0001) %MON forcing_qnet_min             =  -6.0606826171875E+03
(PID.TID 0000.0001) %MON forcing_qnet_mean            =  -1.1495025281235E+01
(PID.TID 0000.0001) %MON forcing_qnet_sd              =   5.3762828160127E+02
(PID.TID 0000.0001) %MON forcing_qnet_del2            =   9.0766917409706E+00
(PID.TID 0000.0001) %MON forcing_qsw_max              =   0.0000000000000E+00
(PID.TID 0000.0001) %MON forcing_qsw_min              =  -1.1048834301488E+02
(PID.TID 0000.0001) %MON forcing_qsw_mean             =  -1.3545610917504E+01
(PID.TID 0000.0001) %MON forcing_qsw_sd               =   2.4591439473489E+01
(PID.TID 0000.0001) %MON forcing_qsw_del2             =   1.8776581787495E-01
(PID.TID 0000.0001) %MON forcing_empmr_max            =   6.9598988629878E-03
(PID.TID 0000.0001) %MON forcing_empmr_min            =  -1.0004679858685E-01
(PID.TID 0000.0001) %MON forcing_empmr_mean           =  -4.4372273545206E-04
(PID.TID 0000.0001) %MON forcing_empmr_sd             =   4.4265776204078E-03
(PID.TID 0000.0001) %MON forcing_empmr_del2           =   1.7389313978695E-04
(PID.TID 0000.0001) %MON forcing_fu_max               =   6.6714125987005E-01
(PID.TID 0000.0001) %MON forcing_fu_min               =  -5.7340979078032E-01
(PID.TID 0000.0001) %MON forcing_fu_mean              =  -1.2886857151226E-03
(PID.TID 0000.0001) %MON forcing_fu_sd                =   8.9838150426166E-02
(PID.TID 0000.0001) %MON forcing_fu_del2              =   7.5967525706547E-04
(PID.TID 0000.0001) %MON forcing_fv_max               =   4.5500364059583E-01
(PID.TID 0000.0001) %MON forcing_fv_min               =  -4.0775631273507E-01
(PID.TID 0000.0001) %MON forcing_fv_mean              =  -5.4818981253135E-03
(PID.TID 0000.0001) %MON forcing_fv_sd                =   7.9248749530981E-02
(PID.TID 0000.0001) %MON forcing_fv_del2              =   6.5621899169434E-04
(PID.TID 0000.0001) %MON trAdv_CFL_u_max              =   1.7231737267060E-03
(PID.TID 0000.0001) %MON trAdv_CFL_v_max              =   2.0411340328839E-03
(PID.TID 0000.0001) %MON trAdv_CFL_w_max              =   2.7791488650968E-03
(PID.TID 0000.0001) %MON advcfl_uvel_max              =   1.6576674297248E-03
(PID.TID 0000.0001) %MON advcfl_vvel_max              =   1.9152589191714E-03
(PID.TID 0000.0001) %MON advcfl_wvel_max              =   6.9597772929979E-03
(PID.TID 0000.0001) %MON advcfl_W_hf_max              =   2.7791488650968E-03
(PID.TID 0000.0001) %MON pe_b_mean                    =   1.6826287769277E-05
(PID.TID 0000.0001) %MON ke_max                       =   1.2984422984463E-01
(PID.TID 0000.0001) %MON ke_mean                      =   4.4503526224034E-05
(PID.TID 0000.0001) %MON ke_vol                       =   1.3398139463806E+18
(PID.TID 0000.0001) %MON vort_r_min                   =  -2.6585388201556E-06
(PID.TID 0000.0001) %MON vort_r_max                   =   3.2915558203493E-06
(PID.TID 0000.0001) %MON vort_a_mean                  =  -2.0549865324846E-05
(PID.TID 0000.0001) %MON vort_a_sd                    =   7.5259352505005E-05
(PID.TID 0000.0001) %MON vort_p_mean                  =  -2.4783315713191E-05
(PID.TID 0000.0001) %MON vort_p_sd                    =   1.2810547503165E-04
(PID.TID 0000.0001) %MON surfExpan_theta_mean         =  -4.4830164406455E-07
(PID.TID 0000.0001) %MON surfExpan_salt_mean          =   1.5701518685603E-06
(PID.TID 0000.0001) // =======================================================
(PID.TID 0000.0001) // End MONITOR dynamic field statistics
(PID.TID 0000.0001) // =======================================================
(PID.TID 0000.0001) DEBUG_MSG: LEAVING S/R FORWARD_STEP
(PID.TID 0000.0001) DEBUG_MSG: ENTERED S/R FORWARD_STEP
(PID.TID 0000.0001) DEBUG_MSG: CALLING S/R LOAD_FIELDS_DRIVER
(PID.TID 0000.0001) DEBUG_MSG: ENTERED S/R LOAD_FIELDS_DRIVER
(PID.TID 0000.0001) DEBUG_MSG: CALLING S/R EXTERNAL_FIELDS_LOAD
(PID.TID 0000.0001) DEBUG_MSG: LEAVING S/R LOAD_FIELDS_DRIVER
(PID.TID 0000.0001) DEBUG_MSG: CALLING S/R DO_ATMOSPHERIC_PHYS
(PID.TID 0000.0001) DEBUG_MSG: ENTERED S/R DO_ATMOSPHERIC_PHYS
(PID.TID 0000.0001) DEBUG_MSG: LEAVING S/R DO_ATMOSPHERIC_PHYS
(PID.TID 0000.0001) DEBUG_MSG: CALLING S/R DO_OCEANIC_PHYS
(PID.TID 0000.0001) DEBUG_MSG: ENTERED S/R DO_OCEANIC_PHYS
(PID.TID 0000.0001) DEBUG_MSG: CALLING S/R EXTERNAL_FORCING_SURF
(PID.TID 0000.0001) DEBUG_MSG: CALLING S/R FIND_RHO_2D (xNr)
(PID.TID 0000.0001) DEBUG_MSG:                  ENTERING UPWARD K LOOP (bi=   1, bj=   1)
(PID.TID 0000.0001) DEBUG_MSG: CALLING S/R GRAD_SIGMA
(PID.TID 0000.0001) DEBUG_MSG: CALLING S/R CALC_IVDC
(PID.TID 0000.0001) DEBUG_MSG: CALLING S/R GRAD_SIGMA
(PID.TID 0000.0001) DEBUG_MSG: CALLING S/R CALC_IVDC
(PID.TID 0000.0001) DEBUG_MSG: CALLING S/R GRAD_SIGMA
(PID.TID 0000.0001) DEBUG_MSG: CALLING S/R CALC_IVDC
(PID.TID 0000.0001) DEBUG_MSG: CALLING S/R GRAD_SIGMA
(PID.TID 0000.0001) DEBUG_MSG: CALLING S/R CALC_IVDC
(PID.TID 0000.0001) DEBUG_MSG: CALLING S/R GRAD_SIGMA
(PID.TID 0000.0001) DEBUG_MSG: CALLING S/R CALC_IVDC
(PID.TID 0000.0001) DEBUG_MSG: CALLING S/R GRAD_SIGMA
(PID.TID 0000.0001) DEBUG_MSG: CALLING S/R CALC_IVDC
(PID.TID 0000.0001) DEBUG_MSG: CALLING S/R GRAD_SIGMA
(PID.TID 0000.0001) DEBUG_MSG: CALLING S/R CALC_IVDC
(PID.TID 0000.0001) DEBUG_MSG: CALLING S/R GRAD_SIGMA
(PID.TID 0000.0001) DEBUG_MSG: CALLING S/R CALC_IVDC
(PID.TID 0000.0001) DEBUG_MSG: CALLING S/R GRAD_SIGMA
(PID.TID 0000.0001) DEBUG_MSG: CALLING S/R CALC_IVDC
(PID.TID 0000.0001) DEBUG_MSG: CALLING S/R GRAD_SIGMA
(PID.TID 0000.0001) DEBUG_MSG: CALLING S/R CALC_IVDC
(PID.TID 0000.0001) DEBUG_MSG: CALLING S/R GRAD_SIGMA
(PID.TID 0000.0001) DEBUG_MSG: CALLING S/R CALC_IVDC
(PID.TID 0000.0001) DEBUG_MSG: CALLING S/R GRAD_SIGMA
(PID.TID 0000.0001) DEBUG_MSG: CALLING S/R CALC_IVDC
(PID.TID 0000.0001) DEBUG_MSG: CALLING S/R GRAD_SIGMA
(PID.TID 0000.0001) DEBUG_MSG: CALLING S/R CALC_IVDC
(PID.TID 0000.0001) DEBUG_MSG: CALLING S/R GRAD_SIGMA
(PID.TID 0000.0001) DEBUG_MSG: CALLING S/R CALC_IVDC
(PID.TID 0000.0001) DEBUG_MSG: CALLING S/R GRAD_SIGMA
(PID.TID 0000.0001) DEBUG_MSG: CALLING S/R CALC_IVDC
(PID.TID 0000.0001) DEBUG_MSG: CALLING S/R GRAD_SIGMA
(PID.TID 0000.0001) DEBUG_MSG: CALLING S/R GMREDI_CALC_TENSOR
(PID.TID 0000.0001) DEBUG_MSG: LEAVING S/R DO_OCEANIC_PHYS
(PID.TID 0000.0001) DEBUG_MSG: CALLING S/R DYNAMICS
(PID.TID 0000.0001) DEBUG_MSG: ENTERED S/R DYNAMICS
DEBUG_STATS_RL:                EtaN (DYNAMICS)  min= -1.19402619522128E+00
DEBUG_STATS_RL:                EtaN (DYNAMICS)  max=  3.31276952727553E+00
DEBUG_STATS_RL:                EtaN (DYNAMICS) mean=  3.23360450304930E-02
DEBUG_STATS_RL:                EtaN (DYNAMICS) S.D.=  1.12720963817832E-01
DEBUG_STATS_RL:                Uvel (DYNAMICS)  min= -5.44478078326236E-01
DEBUG_STATS_RL:                Uvel (DYNAMICS)  max=  4.48920810556241E-01
DEBUG_STATS_RL:                Uvel (DYNAMICS) mean= -7.92073696326849E-04
DEBUG_STATS_RL:                Uvel (DYNAMICS) S.D.=  2.02597060095561E-02
DEBUG_STATS_RL:                Vvel (DYNAMICS)  min= -4.12487253495710E-01
DEBUG_STATS_RL:                Vvel (DYNAMICS)  max=  6.39107871594714E-01
DEBUG_STATS_RL:                Vvel (DYNAMICS) mean= -6.65984730931670E-04
DEBUG_STATS_RL:                Vvel (DYNAMICS) S.D.=  2.16910058699154E-02
DEBUG_STATS_RL:                Wvel (DYNAMICS)  min= -2.36177993300061E-04
DEBUG_STATS_RL:                Wvel (DYNAMICS)  max=  1.88549245779293E-04
DEBUG_STATS_RL:                Wvel (DYNAMICS) mean= -2.83328056282247E-07
DEBUG_STATS_RL:                Wvel (DYNAMICS) S.D.=  7.79093607549608E-06
DEBUG_STATS_RL:               Theta (DYNAMICS)  min=  1.61807592137137E+01
DEBUG_STATS_RL:               Theta (DYNAMICS)  max=  2.26408775160912E+01
DEBUG_STATS_RL:               Theta (DYNAMICS) mean=  2.00008826538584E+01
DEBUG_STATS_RL:               Theta (DYNAMICS) S.D.=  7.87991144355858E-02
DEBUG_STATS_RL:                Salt (DYNAMICS)  min=  2.58092491724159E+01
DEBUG_STATS_RL:                Salt (DYNAMICS)  max=  3.51510862506859E+01
DEBUG_STATS_RL:                Salt (DYNAMICS) mean=  3.49976453295277E+01
DEBUG_STATS_RL:                Salt (DYNAMICS) S.D.=  1.04317514566756E-01
DEBUG_STATS_RL:                  Gu (DYNAMICS)  min= -5.43572819254561E-01
DEBUG_STATS_RL:                  Gu (DYNAMICS)  max=  4.24630628588440E-01
DEBUG_STATS_RL:                  Gu (DYNAMICS) mean= -7.90248446790093E-04
DEBUG_STATS_RL:                  Gu (DYNAMICS) S.D.=  2.00045099677034E-02
DEBUG_STATS_RL:                  Gv (DYNAMICS)  min= -4.11033620294852E-01
DEBUG_STATS_RL:                  Gv (DYNAMICS)  max=  6.32754266660257E-01
DEBUG_STATS_RL:                  Gv (DYNAMICS) mean= -6.67802492624665E-04
DEBUG_STATS_RL:                  Gv (DYNAMICS) S.D.=  2.13787413401582E-02
DEBUG_STATS_RL:               GuNm1 (DYNAMICS)  min= -2.66536761496748E-05
DEBUG_STATS_RL:               GuNm1 (DYNAMICS)  max=  2.61820739413077E-05
DEBUG_STATS_RL:               GuNm1 (DYNAMICS) mean= -1.92113107224820E-09
DEBUG_STATS_RL:               GuNm1 (DYNAMICS) S.D.=  1.23495889173818E-06
DEBUG_STATS_RL:               GvNm1 (DYNAMICS)  min= -3.74612714746826E-05
DEBUG_STATS_RL:               GvNm1 (DYNAMICS)  max=  4.33834631916717E-05
DEBUG_STATS_RL:               GvNm1 (DYNAMICS) mean= -2.52216888697338E-09
DEBUG_STATS_RL:               GvNm1 (DYNAMICS) S.D.=  1.48784917036250E-06
DEBUG_STATS_RL:               GtNm1 (DYNAMICS)  min= -4.00865851169318E-06
DEBUG_STATS_RL:               GtNm1 (DYNAMICS)  max=  5.94474765823771E-06
DEBUG_STATS_RL:               GtNm1 (DYNAMICS) mean=  1.19597397063091E-09
DEBUG_STATS_RL:               GtNm1 (DYNAMICS) S.D.=  7.97626533235817E-08
DEBUG_STATS_RL:               GsNm1 (DYNAMICS)  min= -1.64827284470829E-05
DEBUG_STATS_RL:               GsNm1 (DYNAMICS)  max=  1.91200225147588E-06
DEBUG_STATS_RL:               GsNm1 (DYNAMICS) mean= -4.45541984188622E-09
DEBUG_STATS_RL:               GsNm1 (DYNAMICS) S.D.=  1.94462499950061E-07
(PID.TID 0000.0001) DEBUG_MSG: LEAVING S/R DYNAMICS
DEBUG_STATS_RL:    cg2d_b (SOLVE_FOR_PRESSURE)  min= -3.52334538419104E+05
DEBUG_STATS_RL:    cg2d_b (SOLVE_FOR_PRESSURE)  max=  1.39308401251722E+05
DEBUG_STATS_RL:    cg2d_b (SOLVE_FOR_PRESSURE) mean= -3.29054772219957E+03
DEBUG_STATS_RL:    cg2d_b (SOLVE_FOR_PRESSURE) S.D.=  1.11072573979576E+04
 cg2d: Sum(rhs),rhsMax =  -4.12795776348831E+01  6.74951918923011E+01
(PID.TID 0000.0001)  cg2d: iter=     1 ; resid.=  2.41232300689908E-02
(PID.TID 0000.0001)  cg2d: iter=     2 ; resid.=  3.90630314618270E-03
(PID.TID 0000.0001)  cg2d: iter=     3 ; resid.=  1.07144705435551E-03
(PID.TID 0000.0001)  cg2d: iter=     4 ; resid.=  3.48358493860008E-04
(PID.TID 0000.0001)  cg2d: iter=     5 ; resid.=  8.01182544707564E-05
(PID.TID 0000.0001)  cg2d: iter=     6 ; resid.=  1.88851073539104E-05
(PID.TID 0000.0001)  cg2d: iter=     7 ; resid.=  4.75322000136387E-06
(PID.TID 0000.0001)  cg2d: iter=     8 ; resid.=  1.32711308509102E-06
(PID.TID 0000.0001)  cg2d: iter=     9 ; resid.=  3.90505209332199E-07
(PID.TID 0000.0001)  cg2d: iter=    10 ; resid.=  1.10923896767597E-07
(PID.TID 0000.0001)  cg2d: iter=    11 ; resid.=  2.96410932856077E-08
DEBUG_STATS_RL:    cg2d_x (SOLVE_FOR_PRESSURE)  min= -1.18749744012844E+01
DEBUG_STATS_RL:    cg2d_x (SOLVE_FOR_PRESSURE)  max=  3.34226104321981E+01
DEBUG_STATS_RL:    cg2d_x (SOLVE_FOR_PRESSURE) mean=  3.22379936871933E-01
DEBUG_STATS_RL:    cg2d_x (SOLVE_FOR_PRESSURE) S.D.=  1.11229047124765E+00
(PID.TID 0000.0001)      cg2d_init_res =   1.60912960929910E-01
(PID.TID 0000.0001)      cg2d_iters(min,last) =      -1      11
(PID.TID 0000.0001)      cg2d_last_res =   2.96410932856077E-08
(PID.TID 0000.0001) DEBUG_MSG: CALLING S/R UPDATE_ETAH
(PID.TID 0000.0001) DEBUG_MSG: ENTERED S/R CALC_R_STAR
(PID.TID 0000.0001) DEBUG_MSG: LEAVING S/R CALC_R_STAR
(PID.TID 0000.0001) DEBUG_MSG: CALLING S/R DO_STAGGER_FIELDS_EXCH.
(PID.TID 0000.0001) DEBUG_MSG: CALLING S/R THERMODYNAMICS
(PID.TID 0000.0001) DEBUG_MSG: ENTERED S/R THERMODYNAMICS
(PID.TID 0000.0001) DEBUG_MSG: CALLING S/R TEMP_INTEGRATE
(PID.TID 0000.0001) DEBUG_MSG: CALLING S/R SALT_INTEGRATE
DEBUG_STATS_RL:          Uvel (THERMODYNAMICS)  min= -4.72131273176431E-01
DEBUG_STATS_RL:          Uvel (THERMODYNAMICS)  max=  4.43404442798986E-01
DEBUG_STATS_RL:          Uvel (THERMODYNAMICS) mean= -7.83922985244145E-04
DEBUG_STATS_RL:          Uvel (THERMODYNAMICS) S.D.=  1.98905733041288E-02
DEBUG_STATS_RL:          Vvel (THERMODYNAMICS)  min= -4.10110318702412E-01
DEBUG_STATS_RL:          Vvel (THERMODYNAMICS)  max=  5.50147572829385E-01
DEBUG_STATS_RL:          Vvel (THERMODYNAMICS) mean= -6.47763754134345E-04
DEBUG_STATS_RL:          Vvel (THERMODYNAMICS) S.D.=  2.12943717169832E-02
DEBUG_STATS_RL:          Wvel (THERMODYNAMICS)  min= -2.33555013470387E-04
DEBUG_STATS_RL:          Wvel (THERMODYNAMICS)  max=  1.83758702026011E-04
DEBUG_STATS_RL:          Wvel (THERMODYNAMICS) mean= -3.08606715810592E-07
DEBUG_STATS_RL:          Wvel (THERMODYNAMICS) S.D.=  7.74001455327879E-06
DEBUG_STATS_RL:         Theta (THERMODYNAMICS)  min=  1.61819411419617E+01
DEBUG_STATS_RL:         Theta (THERMODYNAMICS)  max=  2.26825260856716E+01
DEBUG_STATS_RL:         Theta (THERMODYNAMICS) mean=  2.00009890284745E+01
DEBUG_STATS_RL:         Theta (THERMODYNAMICS) S.D.=  7.93990314121740E-02
DEBUG_STATS_RL:          Salt (THERMODYNAMICS)  min=  2.57079483871798E+01
DEBUG_STATS_RL:          Salt (THERMODYNAMICS)  max=  3.51510840175631E+01
DEBUG_STATS_RL:          Salt (THERMODYNAMICS) mean=  3.49976141009275E+01
DEBUG_STATS_RL:          Salt (THERMODYNAMICS) S.D.=  1.05510245262560E-01
DEBUG_STATS_RL:         GtNm1 (THERMODYNAMICS)  min= -3.82359486549208E-06
DEBUG_STATS_RL:         GtNm1 (THERMODYNAMICS)  max=  4.96536922502376E-06
DEBUG_STATS_RL:         GtNm1 (THERMODYNAMICS) mean=  1.04565144410275E-09
DEBUG_STATS_RL:         GtNm1 (THERMODYNAMICS) S.D.=  7.34830425367624E-08
DEBUG_STATS_RL:         GsNm1 (THERMODYNAMICS)  min= -1.65000503872112E-05
DEBUG_STATS_RL:         GsNm1 (THERMODYNAMICS)  max=  1.91984623999857E-06
DEBUG_STATS_RL:         GsNm1 (THERMODYNAMICS) mean= -4.44464388336509E-09
DEBUG_STATS_RL:         GsNm1 (THERMODYNAMICS) S.D.=  1.93553408401593E-07
(PID.TID 0000.0001) DEBUG_MSG: LEAVING S/R THERMODYNAMICS
(PID.TID 0000.0001) // =======================================================
(PID.TID 0000.0001) // Begin MONITOR dynamic field statistics
(PID.TID 0000.0001) // =======================================================
(PID.TID 0000.0001) %MON time_tsnumber                =                    47
(PID.TID 0000.0001) %MON time_secondsf                =   4.2300000000000E+04
(PID.TID 0000.0001) %MON dynstat_eta_max              =   3.4069939255245E+00
(PID.TID 0000.0001) %MON dynstat_eta_min              =  -1.2104968817453E+00
(PID.TID 0000.0001) %MON dynstat_eta_mean             =   3.2374961054344E-02
(PID.TID 0000.0001) %MON dynstat_eta_sd               =   1.0820087966248E-01
(PID.TID 0000.0001) %MON dynstat_eta_del2             =   2.3662699979325E-03
(PID.TID 0000.0001) %MON dynstat_uvel_max             =   4.4340444279899E-01
(PID.TID 0000.0001) %MON dynstat_uvel_min             =  -4.7213127317643E-01
(PID.TID 0000.0001) %MON dynstat_uvel_mean            =  -1.6892218332306E-04
(PID.TID 0000.0001) %MON dynstat_uvel_sd              =   6.6715529374197E-03
(PID.TID 0000.0001) %MON dynstat_uvel_del2            =   9.8709168384409E-05
(PID.TID 0000.0001) %MON dynstat_vvel_max             =   5.5014757282938E-01
(PID.TID 0000.0001) %MON dynstat_vvel_min             =  -4.1011031870241E-01
(PID.TID 0000.0001) %MON dynstat_vvel_mean            =   4.8601146101648E-04
(PID.TID 0000.0001) %MON dynstat_vvel_sd              =   6.9761739433248E-03
(PID.TID 0000.0001) %MON dynstat_vvel_del2            =   1.0560767741261E-04
(PID.TID 0000.0001) %MON dynstat_wvel_max             =   1.8375870202601E-04
(PID.TID 0000.0001) %MON dynstat_wvel_min             =  -2.3355501347039E-04
(PID.TID 0000.0001) %MON dynstat_wvel_mean            =  -2.2842111070812E-07
(PID.TID 0000.0001) %MON dynstat_wvel_sd              =   7.1860375516216E-06
(PID.TID 0000.0001) %MON dynstat_wvel_del2            =   7.4346614955142E-08
(PID.TID 0000.0001) %MON dynstat_theta_max            =   2.2682526085672E+01
(PID.TID 0000.0001) %MON dynstat_theta_min            =   1.6181941141962E+01
(PID.TID 0000.0001) %MON dynstat_theta_mean           =   1.9997887229569E+01
(PID.TID 0000.0001) %MON dynstat_theta_sd             =   2.6519902691687E-02
(PID.TID 0000.0001) %MON dynstat_theta_del2           =   4.7631273950277E-04
(PID.TID 0000.0001) %MON dynstat_salt_max             =   3.5151084017563E+01
(PID.TID 0000.0001) %MON dynstat_salt_min             =   2.5707948387180E+01
(PID.TID 0000.0001) %MON dynstat_salt_mean            =   3.4999684981977E+01
(PID.TID 0000.0001) %MON dynstat_salt_sd              =   3.2563169182988E-02
(PID.TID 0000.0001) %MON dynstat_salt_del2            =   1.1325583323381E-03
(PID.TID 0000.0001) %MON dynstat_sst_max              =   2.2682526085672E+01
(PID.TID 0000.0001) %MON dynstat_sst_min              =   1.6181941141962E+01
(PID.TID 0000.0001) %MON dynstat_sst_mean             =   2.0107721012180E+01
(PID.TID 0000.0001) %MON dynstat_sst_sd               =   2.4144438014741E-01
(PID.TID 0000.0001) %MON dynstat_sst_del2             =   5.3641686398443E-03
(PID.TID 0000.0001) %MON dynstat_sss_max              =   3.5151084017563E+01
(PID.TID 0000.0001) %MON dynstat_sss_min              =   2.5707948387180E+01
(PID.TID 0000.0001) %MON dynstat_sss_mean             =   3.4971807851264E+01
(PID.TID 0000.0001) %MON dynstat_sss_sd               =   3.9293405856526E-01
(PID.TID 0000.0001) %MON dynstat_sss_del2             =   1.5338744950742E-02
(PID.TID 0000.0001) %MON forcing_qnet_max             =   3.6316552259140E+03
(PID.TID 0000.0001) %MON forcing_qnet_min             =  -6.0676074218750E+03
(PID.TID 0000.0001) %MON forcing_qnet_mean            =  -9.5620357366956E+00
(PID.TID 0000.0001) %MON forcing_qnet_sd              =   5.3037473239530E+02
(PID.TID 0000.0001) %MON forcing_qnet_del2            =   8.7248082484855E+00
(PID.TID 0000.0001) %MON forcing_qsw_max              =   0.0000000000000E+00
(PID.TID 0000.0001) %MON forcing_qsw_min              =  -1.1053636364939E+02
(PID.TID 0000.0001) %MON forcing_qsw_mean             =  -1.3562575145260E+01
(PID.TID 0000.0001) %MON forcing_qsw_sd               =   2.4388458827863E+01
(PID.TID 0000.0001) %MON forcing_qsw_del2             =   1.8764540442811E-01
(PID.TID 0000.0001) %MON forcing_empmr_max            =   6.8881628103554E-03
(PID.TID 0000.0001) %MON forcing_empmr_min            =  -9.9015563726425E-02
(PID.TID 0000.0001) %MON forcing_empmr_mean           =  -4.4053960887901E-04
(PID.TID 0000.0001) %MON forcing_empmr_sd             =   4.3817880337256E-03
(PID.TID 0000.0001) %MON forcing_empmr_del2           =   1.7211880218080E-04
(PID.TID 0000.0001) %MON forcing_fu_max               =   6.6646493367183E-01
(PID.TID 0000.0001) %MON forcing_fu_min               =  -5.7192947981672E-01
(PID.TID 0000.0001) %MON forcing_fu_mean              =  -1.2825296871103E-03
(PID.TID 0000.0001) %MON forcing_fu_sd                =   8.9997724931107E-02
(PID.TID 0000.0001) %MON forcing_fu_del2              =   7.6152108818338E-04
(PID.TID 0000.0001) %MON forcing_fv_max               =   4.5042579957702E-01
(PID.TID 0000.0001) %MON forcing_fv_min               =  -4.0924580948124E-01
(PID.TID 0000.0001) %MON forcing_fv_mean              =  -5.6180859988063E-03
(PID.TID 0000.0001) %MON forcing_fv_sd                =   7.9047507253794E-02
(PID.TID 0000.0001) %MON forcing_fv_del2              =   6.5494387716518E-04
(PID.TID 0000.0001) %MON trAdv_CFL_u_max              =   1.5281566204743E-03
(PID.TID 0000.0001) %MON trAdv_CFL_v_max              =   1.9389771722406E-03
(PID.TID 0000.0001) %MON trAdv_CFL_w_max              =   2.7036965701137E-03
(PID.TID 0000.0001) %MON advcfl_uvel_max              =   1.5088480588657E-03
(PID.TID 0000.0001) %MON advcfl_vvel_max              =   1.6486654171429E-03
(PID.TID 0000.0001) %MON advcfl_wvel_max              =   6.8880392157513E-03
(PID.TID 0000.0001) %MON advcfl_W_hf_max              =   2.7036965701137E-03
(PID.TID 0000.0001) %MON pe_b_mean                    =   1.6992626724517E-05
(PID.TID 0000.0001) %MON ke_max                       =   1.0580370628042E-01
(PID.TID 0000.0001) %MON ke_mean                      =   4.3150263435783E-05
(PID.TID 0000.0001) %MON ke_vol                       =   1.3398140867847E+18
(PID.TID 0000.0001) %MON vort_r_min                   =  -2.6680989628026E-06
(PID.TID 0000.0001) %MON vort_r_max                   =   2.8531177515203E-06
(PID.TID 0000.0001) %MON vort_a_mean                  =  -2.0549865324846E-05
(PID.TID 0000.0001) %MON vort_a_sd                    =   7.5259364770282E-05
(PID.TID 0000.0001) %MON vort_p_mean                  =  -2.4783313136043E-05
(PID.TID 0000.0001) %MON vort_p_sd                    =   1.2810543514597E-04
(PID.TID 0000.0001) %MON surfExpan_theta_mean         =  -3.9129083423243E-07
(PID.TID 0000.0001) %MON surfExpan_salt_mean          =   1.5695816034861E-06
(PID.TID 0000.0001) // =======================================================
(PID.TID 0000.0001) // End MONITOR dynamic field statistics
(PID.TID 0000.0001) // =======================================================
 Computing Diagnostic #     81  oceTAUX      Counter:       1   Parms: UU      U1      
           Vector  Mate for  oceTAUX      Diagnostic #     82  oceTAUY  exists 
(PID.TID 0000.0001)  MDS_WRITE_FIELD: it,rec,kS,kL,kH=      46    -1  32   1   1 file=oceTAUX.0000000046
 Computing Diagnostic #     82  oceTAUY      Counter:       1   Parms: VV      U1      
           Vector  Mate for  oceTAUY      Diagnostic #     81  oceTAUX  exists 
(PID.TID 0000.0001)  MDS_WRITE_FIELD: it,rec,kS,kL,kH=      46    -1  32   1   1 file=oceTAUY.0000000046
 Computing Diagnostic #     85  oceFWflx     Counter:       1   Parms: SM      U1      
(PID.TID 0000.0001)  MDS_WRITE_FIELD: it,rec,kS,kL,kH=      46    -1  32   1   1 file=oceFWflx.0000000046
 Computing Diagnostic #     86  oceSflux     Counter:       1   Parms: SM      U1      
(PID.TID 0000.0001)  MDS_WRITE_FIELD: it,rec,kS,kL,kH=      46    -1  32   1   1 file=oceSflux.0000000046
 Computing Diagnostic #     87  oceQnet      Counter:       1   Parms: SM      U1      
(PID.TID 0000.0001)  MDS_WRITE_FIELD: it,rec,kS,kL,kH=      46    -1  32   1   1 file=oceQnet.0000000046
 Computing Diagnostic #     88  oceQsw       Counter:       1   Parms: SM      U1      
(PID.TID 0000.0001)  MDS_WRITE_FIELD: it,rec,kS,kL,kH=      46    -1  32   1   1 file=oceQsw.0000000046
 Computing Diagnostic #     27  SALT         Counter:       1   Parms: SMR     MR      
(PID.TID 0000.0001)  MDS_WRITE_FIELD: it,rec,kS,kL,kH=      46    -1  32   1   1 file=SSS.0000000046
 Computing Diagnostic #     26  THETA        Counter:       1   Parms: SMR     MR      
(PID.TID 0000.0001)  MDS_WRITE_FIELD: it,rec,kS,kL,kH=      46    -1  32   1   1 file=SST.0000000046
 Computing Diagnostic #     45  UVELMASS     Counter:       1   Parms: UUr     MR      
           Vector  Mate for  UVELMASS     Diagnostic #     46  VVELMASS exists 
(PID.TID 0000.0001)  MDS_WRITE_FIELD: it,rec,kS,kL,kH=      46    -1  32   1   1 file=UVEL1.0000000046
 Computing Diagnostic #     46  VVELMASS     Counter:       1   Parms: VVr     MR      
           Vector  Mate for  VVELMASS     Diagnostic #     45  UVELMASS exists 
(PID.TID 0000.0001)  MDS_WRITE_FIELD: it,rec,kS,kL,kH=      46    -1  32   1   1 file=VVEL1.0000000046
 Computing Diagnostic #     83  atmPload     Counter:       1   Parms: SM      U1      
(PID.TID 0000.0001)  MDS_WRITE_FIELD: it,rec,kS,kL,kH=      46    -1  32   1   1 file=atmPload.0000000046
(PID.TID 0000.0001)  write diagnostics summary to file: diagnostics_status.0000000047.txt
(PID.TID 0000.0001) DEBUG_MSG: LEAVING S/R FORWARD_STEP
(PID.TID 0000.0001) DEBUG_MSG: ENTERED S/R FORWARD_STEP
(PID.TID 0000.0001) DEBUG_MSG: CALLING S/R LOAD_FIELDS_DRIVER
(PID.TID 0000.0001) DEBUG_MSG: ENTERED S/R LOAD_FIELDS_DRIVER
(PID.TID 0000.0001) DEBUG_MSG: CALLING S/R EXTERNAL_FIELDS_LOAD
(PID.TID 0000.0001) DEBUG_MSG: LEAVING S/R LOAD_FIELDS_DRIVER
(PID.TID 0000.0001) DEBUG_MSG: CALLING S/R DO_ATMOSPHERIC_PHYS
(PID.TID 0000.0001) DEBUG_MSG: ENTERED S/R DO_ATMOSPHERIC_PHYS
(PID.TID 0000.0001) DEBUG_MSG: LEAVING S/R DO_ATMOSPHERIC_PHYS
(PID.TID 0000.0001) DEBUG_MSG: CALLING S/R DO_OCEANIC_PHYS
(PID.TID 0000.0001) DEBUG_MSG: ENTERED S/R DO_OCEANIC_PHYS
(PID.TID 0000.0001) DEBUG_MSG: CALLING S/R EXTERNAL_FORCING_SURF
(PID.TID 0000.0001) DEBUG_MSG: CALLING S/R FIND_RHO_2D (xNr)
(PID.TID 0000.0001) DEBUG_MSG:                  ENTERING UPWARD K LOOP (bi=   1, bj=   1)
(PID.TID 0000.0001) DEBUG_MSG: CALLING S/R GRAD_SIGMA
(PID.TID 0000.0001) DEBUG_MSG: CALLING S/R CALC_IVDC
(PID.TID 0000.0001) DEBUG_MSG: CALLING S/R GRAD_SIGMA
(PID.TID 0000.0001) DEBUG_MSG: CALLING S/R CALC_IVDC
(PID.TID 0000.0001) DEBUG_MSG: CALLING S/R GRAD_SIGMA
(PID.TID 0000.0001) DEBUG_MSG: CALLING S/R CALC_IVDC
(PID.TID 0000.0001) DEBUG_MSG: CALLING S/R GRAD_SIGMA
(PID.TID 0000.0001) DEBUG_MSG: CALLING S/R CALC_IVDC
(PID.TID 0000.0001) DEBUG_MSG: CALLING S/R GRAD_SIGMA
(PID.TID 0000.0001) DEBUG_MSG: CALLING S/R CALC_IVDC
(PID.TID 0000.0001) DEBUG_MSG: CALLING S/R GRAD_SIGMA
(PID.TID 0000.0001) DEBUG_MSG: CALLING S/R CALC_IVDC
(PID.TID 0000.0001) DEBUG_MSG: CALLING S/R GRAD_SIGMA
(PID.TID 0000.0001) DEBUG_MSG: CALLING S/R CALC_IVDC
(PID.TID 0000.0001) DEBUG_MSG: CALLING S/R GRAD_SIGMA
(PID.TID 0000.0001) DEBUG_MSG: CALLING S/R CALC_IVDC
(PID.TID 0000.0001) DEBUG_MSG: CALLING S/R GRAD_SIGMA
(PID.TID 0000.0001) DEBUG_MSG: CALLING S/R CALC_IVDC
(PID.TID 0000.0001) DEBUG_MSG: CALLING S/R GRAD_SIGMA
(PID.TID 0000.0001) DEBUG_MSG: CALLING S/R CALC_IVDC
(PID.TID 0000.0001) DEBUG_MSG: CALLING S/R GRAD_SIGMA
(PID.TID 0000.0001) DEBUG_MSG: CALLING S/R CALC_IVDC
(PID.TID 0000.0001) DEBUG_MSG: CALLING S/R GRAD_SIGMA
(PID.TID 0000.0001) DEBUG_MSG: CALLING S/R CALC_IVDC
(PID.TID 0000.0001) DEBUG_MSG: CALLING S/R GRAD_SIGMA
(PID.TID 0000.0001) DEBUG_MSG: CALLING S/R CALC_IVDC
(PID.TID 0000.0001) DEBUG_MSG: CALLING S/R GRAD_SIGMA
(PID.TID 0000.0001) DEBUG_MSG: CALLING S/R CALC_IVDC
(PID.TID 0000.0001) DEBUG_MSG: CALLING S/R GRAD_SIGMA
(PID.TID 0000.0001) DEBUG_MSG: CALLING S/R CALC_IVDC
(PID.TID 0000.0001) DEBUG_MSG: CALLING S/R GRAD_SIGMA
(PID.TID 0000.0001) DEBUG_MSG: CALLING S/R GMREDI_CALC_TENSOR
(PID.TID 0000.0001) DEBUG_MSG: LEAVING S/R DO_OCEANIC_PHYS
(PID.TID 0000.0001) DEBUG_MSG: CALLING S/R DYNAMICS
(PID.TID 0000.0001) DEBUG_MSG: ENTERED S/R DYNAMICS
DEBUG_STATS_RL:                EtaN (DYNAMICS)  min= -1.21049688174534E+00
DEBUG_STATS_RL:                EtaN (DYNAMICS)  max=  3.40699392552446E+00
DEBUG_STATS_RL:                EtaN (DYNAMICS) mean=  3.28623789104599E-02
DEBUG_STATS_RL:                EtaN (DYNAMICS) S.D.=  1.13383330331730E-01
DEBUG_STATS_RL:                Uvel (DYNAMICS)  min= -4.72131273176431E-01
DEBUG_STATS_RL:                Uvel (DYNAMICS)  max=  4.43404442798986E-01
DEBUG_STATS_RL:                Uvel (DYNAMICS) mean= -7.83922985244145E-04
DEBUG_STATS_RL:                Uvel (DYNAMICS) S.D.=  1.98905733041288E-02
DEBUG_STATS_RL:                Vvel (DYNAMICS)  min= -4.10110318702412E-01
DEBUG_STATS_RL:                Vvel (DYNAMICS)  max=  5.50147572829385E-01
DEBUG_STATS_RL:                Vvel (DYNAMICS) mean= -6.47763754134345E-04
DEBUG_STATS_RL:                Vvel (DYNAMICS) S.D.=  2.12943717169832E-02
DEBUG_STATS_RL:                Wvel (DYNAMICS)  min= -2.33555013470387E-04
DEBUG_STATS_RL:                Wvel (DYNAMICS)  max=  1.83758702026011E-04
DEBUG_STATS_RL:                Wvel (DYNAMICS) mean= -3.08606715810592E-07
DEBUG_STATS_RL:                Wvel (DYNAMICS) S.D.=  7.74001455327879E-06
DEBUG_STATS_RL:               Theta (DYNAMICS)  min=  1.61819411419617E+01
DEBUG_STATS_RL:               Theta (DYNAMICS)  max=  2.26825260856716E+01
DEBUG_STATS_RL:               Theta (DYNAMICS) mean=  2.00009890284745E+01
DEBUG_STATS_RL:               Theta (DYNAMICS) S.D.=  7.93990314121740E-02
DEBUG_STATS_RL:                Salt (DYNAMICS)  min=  2.57079483871798E+01
DEBUG_STATS_RL:                Salt (DYNAMICS)  max=  3.51510840175631E+01
DEBUG_STATS_RL:                Salt (DYNAMICS) mean=  3.49976141009275E+01
DEBUG_STATS_RL:                Salt (DYNAMICS) S.D.=  1.05510245262560E-01
DEBUG_STATS_RL:                  Gu (DYNAMICS)  min= -4.71049094268339E-01
DEBUG_STATS_RL:                  Gu (DYNAMICS)  max=  4.18928130791403E-01
DEBUG_STATS_RL:                  Gu (DYNAMICS) mean= -7.77414487457688E-04
DEBUG_STATS_RL:                  Gu (DYNAMICS) S.D.=  1.96076182298533E-02
DEBUG_STATS_RL:                  Gv (DYNAMICS)  min= -4.07712615236874E-01
DEBUG_STATS_RL:                  Gv (DYNAMICS)  max=  5.45701338785705E-01
DEBUG_STATS_RL:                  Gv (DYNAMICS) mean= -6.50210382035362E-04
DEBUG_STATS_RL:                  Gv (DYNAMICS) S.D.=  2.10044412978344E-02
DEBUG_STATS_RL:               GuNm1 (DYNAMICS)  min= -2.69358042901467E-05
DEBUG_STATS_RL:               GuNm1 (DYNAMICS)  max=  2.72187929442991E-05
DEBUG_STATS_RL:               GuNm1 (DYNAMICS) mean=  3.48824444163392E-09
DEBUG_STATS_RL:               GuNm1 (DYNAMICS) S.D.=  1.22969347388339E-06
DEBUG_STATS_RL:               GvNm1 (DYNAMICS)  min= -3.77577445721401E-05
DEBUG_STATS_RL:               GvNm1 (DYNAMICS)  max=  4.02881926307952E-05
DEBUG_STATS_RL:               GvNm1 (DYNAMICS) mean= -3.11000108043503E-09
DEBUG_STATS_RL:               GvNm1 (DYNAMICS) S.D.=  1.46671835809952E-06
DEBUG_STATS_RL:               GtNm1 (DYNAMICS)  min= -3.82359486549208E-06
DEBUG_STATS_RL:               GtNm1 (DYNAMICS)  max=  4.96536922502376E-06
DEBUG_STATS_RL:               GtNm1 (DYNAMICS) mean=  1.04565144410275E-09
DEBUG_STATS_RL:               GtNm1 (DYNAMICS) S.D.=  7.34830425367624E-08
DEBUG_STATS_RL:               GsNm1 (DYNAMICS)  min= -1.65000503872112E-05
DEBUG_STATS_RL:               GsNm1 (DYNAMICS)  max=  1.91984623999857E-06
DEBUG_STATS_RL:               GsNm1 (DYNAMICS) mean= -4.44464388336509E-09
DEBUG_STATS_RL:               GsNm1 (DYNAMICS) S.D.=  1.93553408401593E-07
(PID.TID 0000.0001) DEBUG_MSG: LEAVING S/R DYNAMICS
DEBUG_STATS_RL:    cg2d_b (SOLVE_FOR_PRESSURE)  min= -3.52045225888888E+05
DEBUG_STATS_RL:    cg2d_b (SOLVE_FOR_PRESSURE)  max=  1.38211238595160E+05
DEBUG_STATS_RL:    cg2d_b (SOLVE_FOR_PRESSURE) mean= -3.32909407946494E+03
DEBUG_STATS_RL:    cg2d_b (SOLVE_FOR_PRESSURE) S.D.=  1.10805332739231E+04
 cg2d: Sum(rhs),rhsMax =  -4.17974588182010E+01  6.74397695518419E+01
(PID.TID 0000.0001)  cg2d: iter=     1 ; resid.=  2.42236853194250E-02
(PID.TID 0000.0001)  cg2d: iter=     2 ; resid.=  3.86793363845087E-03
(PID.TID 0000.0001)  cg2d: iter=     3 ; resid.=  1.03541436895098E-03
(PID.TID 0000.0001)  cg2d: iter=     4 ; resid.=  3.37052695283801E-04
(PID.TID 0000.0001)  cg2d: iter=     5 ; resid.=  8.16062406489352E-05
(PID.TID 0000.0001)  cg2d: iter=     6 ; resid.=  1.91931229876296E-05
(PID.TID 0000.0001)  cg2d: iter=     7 ; resid.=  4.79165919993687E-06
(PID.TID 0000.0001)  cg2d: iter=     8 ; resid.=  1.36445413443029E-06
(PID.TID 0000.0001)  cg2d: iter=     9 ; resid.=  3.99466098330858E-07
(PID.TID 0000.0001)  cg2d: iter=    10 ; resid.=  1.09187994402886E-07
(PID.TID 0000.0001)  cg2d: iter=    11 ; resid.=  2.93009925673370E-08
DEBUG_STATS_RL:    cg2d_x (SOLVE_FOR_PRESSURE)  min= -1.17861519299110E+01
DEBUG_STATS_RL:    cg2d_x (SOLVE_FOR_PRESSURE)  max=  3.37681904936838E+01
DEBUG_STATS_RL:    cg2d_x (SOLVE_FOR_PRESSURE) mean=  3.27595840366944E-01
DEBUG_STATS_RL:    cg2d_x (SOLVE_FOR_PRESSURE) S.D.=  1.11309194205782E+00
(PID.TID 0000.0001)      cg2d_init_res =   1.52867465239002E-01
(PID.TID 0000.0001)      cg2d_iters(min,last) =      -1      11
(PID.TID 0000.0001)      cg2d_last_res =   2.93009925673370E-08
(PID.TID 0000.0001) DEBUG_MSG: CALLING S/R UPDATE_ETAH
(PID.TID 0000.0001) DEBUG_MSG: ENTERED S/R CALC_R_STAR
(PID.TID 0000.0001) DEBUG_MSG: LEAVING S/R CALC_R_STAR
(PID.TID 0000.0001) DEBUG_MSG: CALLING S/R DO_STAGGER_FIELDS_EXCH.
(PID.TID 0000.0001) DEBUG_MSG: CALLING S/R THERMODYNAMICS
(PID.TID 0000.0001) DEBUG_MSG: ENTERED S/R THERMODYNAMICS
(PID.TID 0000.0001) DEBUG_MSG: CALLING S/R TEMP_INTEGRATE
(PID.TID 0000.0001) DEBUG_MSG: CALLING S/R SALT_INTEGRATE
DEBUG_STATS_RL:          Uvel (THERMODYNAMICS)  min= -4.45754393901061E-01
DEBUG_STATS_RL:          Uvel (THERMODYNAMICS)  max=  4.36097451430207E-01
DEBUG_STATS_RL:          Uvel (THERMODYNAMICS) mean= -7.72022630706074E-04
DEBUG_STATS_RL:          Uvel (THERMODYNAMICS) S.D.=  1.95339879367317E-02
DEBUG_STATS_RL:          Vvel (THERMODYNAMICS)  min= -4.15202893686945E-01
DEBUG_STATS_RL:          Vvel (THERMODYNAMICS)  max=  4.60828352902023E-01
DEBUG_STATS_RL:          Vvel (THERMODYNAMICS) mean= -6.29414923379752E-04
DEBUG_STATS_RL:          Vvel (THERMODYNAMICS) S.D.=  2.09665649307076E-02
DEBUG_STATS_RL:          Wvel (THERMODYNAMICS)  min= -2.29155763309563E-04
DEBUG_STATS_RL:          Wvel (THERMODYNAMICS)  max=  1.78638793759856E-04
DEBUG_STATS_RL:          Wvel (THERMODYNAMICS) mean= -3.32296515254024E-07
DEBUG_STATS_RL:          Wvel (THERMODYNAMICS) S.D.=  7.70584784925988E-06
DEBUG_STATS_RL:         Theta (THERMODYNAMICS)  min=  1.61821425605494E+01
DEBUG_STATS_RL:         Theta (THERMODYNAMICS)  max=  2.27236301636263E+01
DEBUG_STATS_RL:         Theta (THERMODYNAMICS) mean=  2.00010930574546E+01
DEBUG_STATS_RL:         Theta (THERMODYNAMICS) S.D.=  8.00103971086630E-02
DEBUG_STATS_RL:          Salt (THERMODYNAMICS)  min=  2.56090984039558E+01
DEBUG_STATS_RL:          Salt (THERMODYNAMICS)  max=  3.51510815110752E+01
DEBUG_STATS_RL:          Salt (THERMODYNAMICS) mean=  3.49975832495719E+01
DEBUG_STATS_RL:          Salt (THERMODYNAMICS) S.D.=  1.06676390108652E-01
DEBUG_STATS_RL:         GtNm1 (THERMODYNAMICS)  min= -3.57482811735174E-06
DEBUG_STATS_RL:         GtNm1 (THERMODYNAMICS)  max=  4.59073342739646E-06
DEBUG_STATS_RL:         GtNm1 (THERMODYNAMICS) mean=  9.05120475973138E-10
DEBUG_STATS_RL:         GtNm1 (THERMODYNAMICS) S.D.=  6.84587308818515E-08
DEBUG_STATS_RL:         GsNm1 (THERMODYNAMICS)  min= -1.65129851045052E-05
DEBUG_STATS_RL:         GsNm1 (THERMODYNAMICS)  max=  1.92928928901535E-06
DEBUG_STATS_RL:         GsNm1 (THERMODYNAMICS) mean= -4.43825008657444E-09
DEBUG_STATS_RL:         GsNm1 (THERMODYNAMICS) S.D.=  1.92767969416796E-07
(PID.TID 0000.0001) DEBUG_MSG: LEAVING S/R THERMODYNAMICS
(PID.TID 0000.0001) // =======================================================
(PID.TID 0000.0001) // Begin MONITOR dynamic field statistics
(PID.TID 0000.0001) // =======================================================
(PID.TID 0000.0001) %MON time_tsnumber                =                    48
(PID.TID 0000.0001) %MON time_secondsf                =   4.3200000000000E+04
(PID.TID 0000.0001) %MON dynstat_eta_max              =   3.4422212518484E+00
(PID.TID 0000.0001) %MON dynstat_eta_min              =  -1.2014426041663E+00
(PID.TID 0000.0001) %MON dynstat_eta_mean             =   3.2754210018531E-02
(PID.TID 0000.0001) %MON dynstat_eta_sd               =   1.0808440393299E-01
(PID.TID 0000.0001) %MON dynstat_eta_del2             =   2.3835242428167E-03
(PID.TID 0000.0001) %MON dynstat_uvel_max             =   4.3609745143021E-01
(PID.TID 0000.0001) %MON dynstat_uvel_min             =  -4.4575439390106E-01
(PID.TID 0000.0001) %MON dynstat_uvel_mean            =  -1.6911910536797E-04
(PID.TID 0000.0001) %MON dynstat_uvel_sd              =   6.5632693502806E-03
(PID.TID 0000.0001) %MON dynstat_uvel_del2            =   9.9560405142113E-05
(PID.TID 0000.0001) %MON dynstat_vvel_max             =   4.6082835290202E-01
(PID.TID 0000.0001) %MON dynstat_vvel_min             =  -4.1520289368695E-01
(PID.TID 0000.0001) %MON dynstat_vvel_mean            =   5.3443378245195E-04
(PID.TID 0000.0001) %MON dynstat_vvel_sd              =   6.8941775436695E-03
(PID.TID 0000.0001) %MON dynstat_vvel_del2            =   1.0210292991284E-04
(PID.TID 0000.0001) %MON dynstat_wvel_max             =   1.7863879375986E-04
(PID.TID 0000.0001) %MON dynstat_wvel_min             =  -2.2915576330956E-04
(PID.TID 0000.0001) %MON dynstat_wvel_mean            =  -2.6198484079323E-07
(PID.TID 0000.0001) %MON dynstat_wvel_sd              =   7.1778011234393E-06
(PID.TID 0000.0001) %MON dynstat_wvel_del2            =   7.5059974942655E-08
(PID.TID 0000.0001) %MON dynstat_theta_max            =   2.2723630163626E+01
(PID.TID 0000.0001) %MON dynstat_theta_min            =   1.6182142560549E+01
(PID.TID 0000.0001) %MON dynstat_theta_mean           =   1.9997887846772E+01
(PID.TID 0000.0001) %MON dynstat_theta_sd             =   2.6711462306065E-02
(PID.TID 0000.0001) %MON dynstat_theta_del2           =   4.7916890951070E-04
(PID.TID 0000.0001) %MON dynstat_salt_max             =   3.5151081511075E+01
(PID.TID 0000.0001) %MON dynstat_salt_min             =   2.5609098403956E+01
(PID.TID 0000.0001) %MON dynstat_salt_mean            =   3.4999681410491E+01
(PID.TID 0000.0001) %MON dynstat_salt_sd              =   3.2924328207907E-02
(PID.TID 0000.0001) %MON dynstat_salt_del2            =   1.1446371257073E-03
(PID.TID 0000.0001) %MON dynstat_sst_max              =   2.2723630163626E+01
(PID.TID 0000.0001) %MON dynstat_sst_min              =   1.6182142560549E+01
(PID.TID 0000.0001) %MON dynstat_sst_mean             =   2.0109357402339E+01
(PID.TID 0000.0001) %MON dynstat_sst_sd               =   2.4355624421513E-01
(PID.TID 0000.0001) %MON dynstat_sst_del2             =   5.4088384476878E-03
(PID.TID 0000.0001) %MON dynstat_sss_max              =   3.5151081511075E+01
(PID.TID 0000.0001) %MON dynstat_sss_min              =   2.5609098403956E+01
(PID.TID 0000.0001) %MON dynstat_sss_mean             =   3.4971433387546E+01
(PID.TID 0000.0001) %MON dynstat_sss_sd               =   3.9726984957431E-01
(PID.TID 0000.0001) %MON dynstat_sss_del2             =   1.5501938841249E-02
(PID.TID 0000.0001) %MON forcing_qnet_max             =   3.5800175541942E+03
(PID.TID 0000.0001) %MON forcing_qnet_min             =  -9.5560478515625E+03
(PID.TID 0000.0001) %MON forcing_qnet_mean            =  -9.2821139709046E+00
(PID.TID 0000.0001) %MON forcing_qnet_sd              =   5.3501929208389E+02
(PID.TID 0000.0001) %MON forcing_qnet_del2            =   9.8803233760531E+00
(PID.TID 0000.0001) %MON forcing_qsw_max              =   0.0000000000000E+00
(PID.TID 0000.0001) %MON forcing_qsw_min              =  -1.1012631435199E+02
(PID.TID 0000.0001) %MON forcing_qsw_mean             =  -1.3553016778651E+01
(PID.TID 0000.0001) %MON forcing_qsw_sd               =   2.4147558613458E+01
(PID.TID 0000.0001) %MON forcing_qsw_del2             =   1.8731664593134E-01
(PID.TID 0000.0001) %MON forcing_empmr_max            =   6.8172137252986E-03
(PID.TID 0000.0001) %MON forcing_empmr_min            =  -9.7995236515999E-02
(PID.TID 0000.0001) %MON forcing_empmr_mean           =  -4.3613630881546E-04
(PID.TID 0000.0001) %MON forcing_empmr_sd             =   4.3376334625359E-03
(PID.TID 0000.0001) %MON forcing_empmr_del2           =   1.7036372310849E-04
(PID.TID 0000.0001) %MON forcing_fu_max               =   6.6529422419362E-01
(PID.TID 0000.0001) %MON forcing_fu_min               =  -5.7712485426310E-01
(PID.TID 0000.0001) %MON forcing_fu_mean              =  -1.2915519545839E-03
(PID.TID 0000.0001) %MON forcing_fu_sd                =   9.0103131205259E-02
(PID.TID 0000.0001) %MON forcing_fu_del2              =   7.6304367606974E-04
(PID.TID 0000.0001) %MON forcing_fv_max               =   4.4766715891039E-01
(PID.TID 0000.0001) %MON forcing_fv_min               =  -4.0967219484109E-01
(PID.TID 0000.0001) %MON forcing_fv_mean              =  -5.7241095674102E-03
(PID.TID 0000.0001) %MON forcing_fv_sd                =   7.8858453574976E-02
(PID.TID 0000.0001) %MON forcing_fv_del2              =   6.5289271110466E-04
(PID.TID 0000.0001) %MON trAdv_CFL_u_max              =   1.4646406626533E-03
(PID.TID 0000.0001) %MON trAdv_CFL_v_max              =   1.7875910091276E-03
(PID.TID 0000.0001) %MON trAdv_CFL_w_max              =   2.6351892331935E-03
(PID.TID 0000.0001) %MON advcfl_uvel_max              =   1.4461381915827E-03
(PID.TID 0000.0001) %MON advcfl_vvel_max              =   1.3809963111554E-03
(PID.TID 0000.0001) %MON advcfl_wvel_max              =   6.8170599315477E-03
(PID.TID 0000.0001) %MON advcfl_W_hf_max              =   2.6351892331935E-03
(PID.TID 0000.0001) %MON pe_b_mean                    =   1.6991969773178E-05
(PID.TID 0000.0001) %MON ke_max                       =   9.6851298759139E-02
(PID.TID 0000.0001) %MON ke_mean                      =   4.1987181807726E-05
(PID.TID 0000.0001) %MON ke_vol                       =   1.3398142261817E+18
(PID.TID 0000.0001) %MON vort_r_min                   =  -2.6659085325497E-06
(PID.TID 0000.0001) %MON vort_r_max                   =   2.3696185494225E-06
(PID.TID 0000.0001) %MON vort_a_mean                  =  -2.0549865324846E-05
(PID.TID 0000.0001) %MON vort_a_sd                    =   7.5259376688630E-05
(PID.TID 0000.0001) %MON vort_p_mean                  =  -2.4783310473900E-05
(PID.TID 0000.0001) %MON vort_p_sd                    =   1.2810539192172E-04
(PID.TID 0000.0001) %MON surfExpan_theta_mean         =  -3.3767657516186E-07
(PID.TID 0000.0001) %MON surfExpan_salt_mean          =   1.5696161547021E-06
(PID.TID 0000.0001) // =======================================================
(PID.TID 0000.0001) // End MONITOR dynamic field statistics
(PID.TID 0000.0001) // =======================================================
(PID.TID 0000.0001) DEBUG_MSG: LEAVING S/R FORWARD_STEP
(PID.TID 0000.0001) DEBUG_MSG: ENTERED S/R FORWARD_STEP
(PID.TID 0000.0001) DEBUG_MSG: CALLING S/R LOAD_FIELDS_DRIVER
(PID.TID 0000.0001) DEBUG_MSG: ENTERED S/R LOAD_FIELDS_DRIVER
(PID.TID 0000.0001) DEBUG_MSG: CALLING S/R EXTERNAL_FIELDS_LOAD
(PID.TID 0000.0001) DEBUG_MSG: LEAVING S/R LOAD_FIELDS_DRIVER
(PID.TID 0000.0001) DEBUG_MSG: CALLING S/R DO_ATMOSPHERIC_PHYS
(PID.TID 0000.0001) DEBUG_MSG: ENTERED S/R DO_ATMOSPHERIC_PHYS
(PID.TID 0000.0001) DEBUG_MSG: LEAVING S/R DO_ATMOSPHERIC_PHYS
(PID.TID 0000.0001) DEBUG_MSG: CALLING S/R DO_OCEANIC_PHYS
(PID.TID 0000.0001) DEBUG_MSG: ENTERED S/R DO_OCEANIC_PHYS
(PID.TID 0000.0001) DEBUG_MSG: CALLING S/R EXTERNAL_FORCING_SURF
(PID.TID 0000.0001) DEBUG_MSG: CALLING S/R FIND_RHO_2D (xNr)
(PID.TID 0000.0001) DEBUG_MSG:                  ENTERING UPWARD K LOOP (bi=   1, bj=   1)
(PID.TID 0000.0001) DEBUG_MSG: CALLING S/R GRAD_SIGMA
(PID.TID 0000.0001) DEBUG_MSG: CALLING S/R CALC_IVDC
(PID.TID 0000.0001) DEBUG_MSG: CALLING S/R GRAD_SIGMA
(PID.TID 0000.0001) DEBUG_MSG: CALLING S/R CALC_IVDC
(PID.TID 0000.0001) DEBUG_MSG: CALLING S/R GRAD_SIGMA
(PID.TID 0000.0001) DEBUG_MSG: CALLING S/R CALC_IVDC
(PID.TID 0000.0001) DEBUG_MSG: CALLING S/R GRAD_SIGMA
(PID.TID 0000.0001) DEBUG_MSG: CALLING S/R CALC_IVDC
(PID.TID 0000.0001) DEBUG_MSG: CALLING S/R GRAD_SIGMA
(PID.TID 0000.0001) DEBUG_MSG: CALLING S/R CALC_IVDC
(PID.TID 0000.0001) DEBUG_MSG: CALLING S/R GRAD_SIGMA
(PID.TID 0000.0001) DEBUG_MSG: CALLING S/R CALC_IVDC
(PID.TID 0000.0001) DEBUG_MSG: CALLING S/R GRAD_SIGMA
(PID.TID 0000.0001) DEBUG_MSG: CALLING S/R CALC_IVDC
(PID.TID 0000.0001) DEBUG_MSG: CALLING S/R GRAD_SIGMA
(PID.TID 0000.0001) DEBUG_MSG: CALLING S/R CALC_IVDC
(PID.TID 0000.0001) DEBUG_MSG: CALLING S/R GRAD_SIGMA
(PID.TID 0000.0001) DEBUG_MSG: CALLING S/R CALC_IVDC
(PID.TID 0000.0001) DEBUG_MSG: CALLING S/R GRAD_SIGMA
(PID.TID 0000.0001) DEBUG_MSG: CALLING S/R CALC_IVDC
(PID.TID 0000.0001) DEBUG_MSG: CALLING S/R GRAD_SIGMA
(PID.TID 0000.0001) DEBUG_MSG: CALLING S/R CALC_IVDC
(PID.TID 0000.0001) DEBUG_MSG: CALLING S/R GRAD_SIGMA
(PID.TID 0000.0001) DEBUG_MSG: CALLING S/R CALC_IVDC
(PID.TID 0000.0001) DEBUG_MSG: CALLING S/R GRAD_SIGMA
(PID.TID 0000.0001) DEBUG_MSG: CALLING S/R CALC_IVDC
(PID.TID 0000.0001) DEBUG_MSG: CALLING S/R GRAD_SIGMA
(PID.TID 0000.0001) DEBUG_MSG: CALLING S/R CALC_IVDC
(PID.TID 0000.0001) DEBUG_MSG: CALLING S/R GRAD_SIGMA
(PID.TID 0000.0001) DEBUG_MSG: CALLING S/R CALC_IVDC
(PID.TID 0000.0001) DEBUG_MSG: CALLING S/R GRAD_SIGMA
(PID.TID 0000.0001) DEBUG_MSG: CALLING S/R GMREDI_CALC_TENSOR
(PID.TID 0000.0001) DEBUG_MSG: LEAVING S/R DO_OCEANIC_PHYS
(PID.TID 0000.0001) DEBUG_MSG: CALLING S/R DYNAMICS
(PID.TID 0000.0001) DEBUG_MSG: ENTERED S/R DYNAMICS
DEBUG_STATS_RL:                EtaN (DYNAMICS)  min= -1.20144260416635E+00
DEBUG_STATS_RL:                EtaN (DYNAMICS)  max=  3.44222125184843E+00
DEBUG_STATS_RL:                EtaN (DYNAMICS) mean=  3.33940714220578E-02
DEBUG_STATS_RL:                EtaN (DYNAMICS) S.D.=  1.13465029730401E-01
DEBUG_STATS_RL:                Uvel (DYNAMICS)  min= -4.45754393901061E-01
DEBUG_STATS_RL:                Uvel (DYNAMICS)  max=  4.36097451430207E-01
DEBUG_STATS_RL:                Uvel (DYNAMICS) mean= -7.72022630706074E-04
DEBUG_STATS_RL:                Uvel (DYNAMICS) S.D.=  1.95339879367317E-02
DEBUG_STATS_RL:                Vvel (DYNAMICS)  min= -4.15202893686945E-01
DEBUG_STATS_RL:                Vvel (DYNAMICS)  max=  4.60828352902023E-01
DEBUG_STATS_RL:                Vvel (DYNAMICS) mean= -6.29414923379752E-04
DEBUG_STATS_RL:                Vvel (DYNAMICS) S.D.=  2.09665649307076E-02
DEBUG_STATS_RL:                Wvel (DYNAMICS)  min= -2.29155763309563E-04
DEBUG_STATS_RL:                Wvel (DYNAMICS)  max=  1.78638793759856E-04
DEBUG_STATS_RL:                Wvel (DYNAMICS) mean= -3.32296515254024E-07
DEBUG_STATS_RL:                Wvel (DYNAMICS) S.D.=  7.70584784925988E-06
DEBUG_STATS_RL:               Theta (DYNAMICS)  min=  1.61821425605494E+01
DEBUG_STATS_RL:               Theta (DYNAMICS)  max=  2.27236301636263E+01
DEBUG_STATS_RL:               Theta (DYNAMICS) mean=  2.00010930574546E+01
DEBUG_STATS_RL:               Theta (DYNAMICS) S.D.=  8.00103971086630E-02
DEBUG_STATS_RL:                Salt (DYNAMICS)  min=  2.56090984039558E+01
DEBUG_STATS_RL:                Salt (DYNAMICS)  max=  3.51510815110752E+01
DEBUG_STATS_RL:                Salt (DYNAMICS) mean=  3.49975832495719E+01
DEBUG_STATS_RL:                Salt (DYNAMICS) S.D.=  1.06676390108652E-01
DEBUG_STATS_RL:                  Gu (DYNAMICS)  min= -4.25491016863181E-01
DEBUG_STATS_RL:                  Gu (DYNAMICS)  max=  4.11547815993543E-01
DEBUG_STATS_RL:                  Gu (DYNAMICS) mean= -7.61294879214792E-04
DEBUG_STATS_RL:                  Gu (DYNAMICS) S.D.=  1.92296773402504E-02
DEBUG_STATS_RL:                  Gv (DYNAMICS)  min= -4.00905577339701E-01
DEBUG_STATS_RL:                  Gv (DYNAMICS)  max=  4.58103923275430E-01
DEBUG_STATS_RL:                  Gv (DYNAMICS) mean= -6.32780960217842E-04
DEBUG_STATS_RL:                  Gv (DYNAMICS) S.D.=  2.06965836834647E-02
DEBUG_STATS_RL:               GuNm1 (DYNAMICS)  min= -2.71076287211685E-05
DEBUG_STATS_RL:               GuNm1 (DYNAMICS)  max=  2.81786526455240E-05
DEBUG_STATS_RL:               GuNm1 (DYNAMICS) mean=  8.43861334293619E-09
DEBUG_STATS_RL:               GuNm1 (DYNAMICS) S.D.=  1.23111972699902E-06
DEBUG_STATS_RL:               GvNm1 (DYNAMICS)  min= -3.76454080817920E-05
DEBUG_STATS_RL:               GvNm1 (DYNAMICS)  max=  3.87999852548919E-05
DEBUG_STATS_RL:               GvNm1 (DYNAMICS) mean= -3.97133981338220E-09
DEBUG_STATS_RL:               GvNm1 (DYNAMICS) S.D.=  1.44425556486461E-06
DEBUG_STATS_RL:               GtNm1 (DYNAMICS)  min= -3.57482811735174E-06
DEBUG_STATS_RL:               GtNm1 (DYNAMICS)  max=  4.59073342739646E-06
DEBUG_STATS_RL:               GtNm1 (DYNAMICS) mean=  9.05120475973138E-10
DEBUG_STATS_RL:               GtNm1 (DYNAMICS) S.D.=  6.84587308818515E-08
DEBUG_STATS_RL:               GsNm1 (DYNAMICS)  min= -1.65129851045052E-05
DEBUG_STATS_RL:               GsNm1 (DYNAMICS)  max=  1.92928928901535E-06
DEBUG_STATS_RL:               GsNm1 (DYNAMICS) mean= -4.43825008657444E-09
DEBUG_STATS_RL:               GsNm1 (DYNAMICS) S.D.=  1.92767969416796E-07
(PID.TID 0000.0001) DEBUG_MSG: LEAVING S/R DYNAMICS
DEBUG_STATS_RL:    cg2d_b (SOLVE_FOR_PRESSURE)  min= -3.49792305222082E+05
DEBUG_STATS_RL:    cg2d_b (SOLVE_FOR_PRESSURE)  max=  1.34366331664291E+05
DEBUG_STATS_RL:    cg2d_b (SOLVE_FOR_PRESSURE) mean= -3.36751061884596E+03
DEBUG_STATS_RL:    cg2d_b (SOLVE_FOR_PRESSURE) S.D.=  1.09905248467281E+04
 cg2d: Sum(rhs),rhsMax =  -4.25520993832299E+01  6.70081873589451E+01
(PID.TID 0000.0001)  cg2d: iter=     1 ; resid.=  2.45444458888988E-02
(PID.TID 0000.0001)  cg2d: iter=     2 ; resid.=  3.83551730128955E-03
(PID.TID 0000.0001)  cg2d: iter=     3 ; resid.=  1.00697326230845E-03
(PID.TID 0000.0001)  cg2d: iter=     4 ; resid.=  3.29577776714424E-04
(PID.TID 0000.0001)  cg2d: iter=     5 ; resid.=  8.36934785266806E-05
(PID.TID 0000.0001)  cg2d: iter=     6 ; resid.=  1.94404743714048E-05
(PID.TID 0000.0001)  cg2d: iter=     7 ; resid.=  4.72825011596936E-06
(PID.TID 0000.0001)  cg2d: iter=     8 ; resid.=  1.34631190108443E-06
(PID.TID 0000.0001)  cg2d: iter=     9 ; resid.=  3.90682408716127E-07
(PID.TID 0000.0001)  cg2d: iter=    10 ; resid.=  1.04461348554278E-07
(PID.TID 0000.0001)  cg2d: iter=    11 ; resid.=  2.83733368263568E-08
DEBUG_STATS_RL:    cg2d_x (SOLVE_FOR_PRESSURE)  min= -1.14617313758478E+01
DEBUG_STATS_RL:    cg2d_x (SOLVE_FOR_PRESSURE)  max=  3.35483565419011E+01
DEBUG_STATS_RL:    cg2d_x (SOLVE_FOR_PRESSURE) mean=  3.32825725845601E-01
DEBUG_STATS_RL:    cg2d_x (SOLVE_FOR_PRESSURE) S.D.=  1.10780371292221E+00
(PID.TID 0000.0001)      cg2d_init_res =   1.49052725077999E-01
(PID.TID 0000.0001)      cg2d_iters(min,last) =      -1      11
(PID.TID 0000.0001)      cg2d_last_res =   2.83733368263568E-08
(PID.TID 0000.0001) DEBUG_MSG: CALLING S/R UPDATE_ETAH
(PID.TID 0000.0001) DEBUG_MSG: ENTERED S/R CALC_R_STAR
(PID.TID 0000.0001) DEBUG_MSG: LEAVING S/R CALC_R_STAR
(PID.TID 0000.0001) DEBUG_MSG: CALLING S/R DO_STAGGER_FIELDS_EXCH.
(PID.TID 0000.0001) DEBUG_MSG: CALLING S/R THERMODYNAMICS
(PID.TID 0000.0001) DEBUG_MSG: ENTERED S/R THERMODYNAMICS
(PID.TID 0000.0001) DEBUG_MSG: CALLING S/R TEMP_INTEGRATE
(PID.TID 0000.0001) DEBUG_MSG: CALLING S/R SALT_INTEGRATE
DEBUG_STATS_RL:          Uvel (THERMODYNAMICS)  min= -4.43539428767316E-01
DEBUG_STATS_RL:          Uvel (THERMODYNAMICS)  max=  4.27062906234908E-01
DEBUG_STATS_RL:          Uvel (THERMODYNAMICS) mean= -7.56854071941497E-04
DEBUG_STATS_RL:          Uvel (THERMODYNAMICS) S.D.=  1.92013564828744E-02
DEBUG_STATS_RL:          Vvel (THERMODYNAMICS)  min= -4.45962604916697E-01
DEBUG_STATS_RL:          Vvel (THERMODYNAMICS)  max=  4.32457679516580E-01
DEBUG_STATS_RL:          Vvel (THERMODYNAMICS) mean= -6.11240557679125E-04
DEBUG_STATS_RL:          Vvel (THERMODYNAMICS) S.D.=  2.07082602726934E-02
DEBUG_STATS_RL:          Wvel (THERMODYNAMICS)  min= -2.22961345379443E-04
DEBUG_STATS_RL:          Wvel (THERMODYNAMICS)  max=  1.73305033079504E-04
DEBUG_STATS_RL:          Wvel (THERMODYNAMICS) mean= -3.55819512990529E-07
DEBUG_STATS_RL:          Wvel (THERMODYNAMICS) S.D.=  7.68904178301087E-06
DEBUG_STATS_RL:         Theta (THERMODYNAMICS)  min=  1.61814952012665E+01
DEBUG_STATS_RL:         Theta (THERMODYNAMICS)  max=  2.27641847199671E+01
DEBUG_STATS_RL:         Theta (THERMODYNAMICS) mean=  2.00011928996224E+01
DEBUG_STATS_RL:         Theta (THERMODYNAMICS) S.D.=  8.06069348029506E-02
DEBUG_STATS_RL:          Salt (THERMODYNAMICS)  min=  2.55126283957155E+01
DEBUG_STATS_RL:          Salt (THERMODYNAMICS)  max=  3.51510796268881E+01
DEBUG_STATS_RL:          Salt (THERMODYNAMICS) mean=  3.49975515561858E+01
DEBUG_STATS_RL:          Salt (THERMODYNAMICS) S.D.=  1.07814248322313E-01
DEBUG_STATS_RL:         GtNm1 (THERMODYNAMICS)  min= -3.26930289780637E-06
DEBUG_STATS_RL:         GtNm1 (THERMODYNAMICS)  max=  4.59854544476436E-06
DEBUG_STATS_RL:         GtNm1 (THERMODYNAMICS) mean=  7.73489316761263E-10
DEBUG_STATS_RL:         GtNm1 (THERMODYNAMICS) S.D.=  6.52664714222098E-08
DEBUG_STATS_RL:         GsNm1 (THERMODYNAMICS)  min= -1.65211061613223E-05
DEBUG_STATS_RL:         GsNm1 (THERMODYNAMICS)  max=  1.94017774044213E-06
DEBUG_STATS_RL:         GsNm1 (THERMODYNAMICS) mean= -4.43486945813583E-09
DEBUG_STATS_RL:         GsNm1 (THERMODYNAMICS) S.D.=  1.92053480538114E-07
(PID.TID 0000.0001) DEBUG_MSG: LEAVING S/R THERMODYNAMICS
(PID.TID 0000.0001) // =======================================================
(PID.TID 0000.0001) // Begin MONITOR dynamic field statistics
(PID.TID 0000.0001) // =======================================================
(PID.TID 0000.0001) %MON time_tsnumber                =                    49
(PID.TID 0000.0001) %MON time_secondsf                =   4.4100000000000E+04
(PID.TID 0000.0001) %MON dynstat_eta_max              =   3.4198120833644E+00
(PID.TID 0000.0001) %MON dynstat_eta_min              =  -1.1683722119197E+00
(PID.TID 0000.0001) %MON dynstat_eta_mean             =   3.3132181733669E-02
(PID.TID 0000.0001) %MON dynstat_eta_sd               =   1.0734794551436E-01
(PID.TID 0000.0001) %MON dynstat_eta_del2             =   2.3781997328116E-03
(PID.TID 0000.0001) %MON dynstat_uvel_max             =   4.2706290623491E-01
(PID.TID 0000.0001) %MON dynstat_uvel_min             =  -4.4353942876732E-01
(PID.TID 0000.0001) %MON dynstat_uvel_mean            =  -1.6696271580062E-04
(PID.TID 0000.0001) %MON dynstat_uvel_sd              =   6.4618833912993E-03
(PID.TID 0000.0001) %MON dynstat_uvel_del2            =   1.0061676478731E-04
(PID.TID 0000.0001) %MON dynstat_vvel_max             =   4.3245767951658E-01
(PID.TID 0000.0001) %MON dynstat_vvel_min             =  -4.4596260491670E-01
(PID.TID 0000.0001) %MON dynstat_vvel_mean            =   5.8183206604672E-04
(PID.TID 0000.0001) %MON dynstat_vvel_sd              =   6.8351752523338E-03
(PID.TID 0000.0001) %MON dynstat_vvel_del2            =   9.9713966422021E-05
(PID.TID 0000.0001) %MON dynstat_wvel_max             =   1.7330503307950E-04
(PID.TID 0000.0001) %MON dynstat_wvel_min             =  -2.2296134537944E-04
(PID.TID 0000.0001) %MON dynstat_wvel_mean            =  -2.9460395688464E-07
(PID.TID 0000.0001) %MON dynstat_wvel_sd              =   7.1878121067282E-06
(PID.TID 0000.0001) %MON dynstat_wvel_del2            =   7.5813067075688E-08
(PID.TID 0000.0001) %MON dynstat_theta_max            =   2.2764184719967E+01
(PID.TID 0000.0001) %MON dynstat_theta_min            =   1.6181495201267E+01
(PID.TID 0000.0001) %MON dynstat_theta_mean           =   1.9997888433909E+01
(PID.TID 0000.0001) %MON dynstat_theta_sd             =   2.6899086071419E-02
(PID.TID 0000.0001) %MON dynstat_theta_del2           =   4.8150834317942E-04
(PID.TID 0000.0001) %MON dynstat_salt_max             =   3.5151079626888E+01
(PID.TID 0000.0001) %MON dynstat_salt_min             =   2.5512628395715E+01
(PID.TID 0000.0001) %MON dynstat_salt_mean            =   3.4999677835740E+01
(PID.TID 0000.0001) %MON dynstat_salt_sd              =   3.3277028755331E-02
(PID.TID 0000.0001) %MON dynstat_salt_del2            =   1.1565828012818E-03
(PID.TID 0000.0001) %MON dynstat_sst_max              =   2.2764184719967E+01
(PID.TID 0000.0001) %MON dynstat_sst_min              =   1.6181495201267E+01
(PID.TID 0000.0001) %MON dynstat_sst_mean             =   2.0110931876242E+01
(PID.TID 0000.0001) %MON dynstat_sst_sd               =   2.4562960469068E-01
(PID.TID 0000.0001) %MON dynstat_sst_del2             =   5.4450410196999E-03
(PID.TID 0000.0001) %MON dynstat_sss_max              =   3.5151079626888E+01
(PID.TID 0000.0001) %MON dynstat_sss_min              =   2.5512628395715E+01
(PID.TID 0000.0001) %MON dynstat_sss_mean             =   3.4971047113470E+01
(PID.TID 0000.0001) %MON dynstat_sss_sd               =   4.0150072783873E-01
(PID.TID 0000.0001) %MON dynstat_sss_del2             =   1.5663350142932E-02
(PID.TID 0000.0001) %MON forcing_qnet_max             =   3.5291214500520E+03
(PID.TID 0000.0001) %MON forcing_qnet_min             =  -4.1971977428416E+03
(PID.TID 0000.0001) %MON forcing_qnet_mean            =  -8.7385602461491E+00
(PID.TID 0000.0001) %MON forcing_qnet_sd              =   5.1704205201286E+02
(PID.TID 0000.0001) %MON forcing_qnet_del2            =   7.4697267983301E+00
(PID.TID 0000.0001) %MON forcing_qsw_max              =   0.0000000000000E+00
(PID.TID 0000.0001) %MON forcing_qsw_min              =  -1.0833105608146E+02
(PID.TID 0000.0001) %MON forcing_qsw_mean             =  -1.3744804276455E+01
(PID.TID 0000.0001) %MON forcing_qsw_sd               =   2.3831547552309E+01
(PID.TID 0000.0001) %MON forcing_qsw_del2             =   1.8858982473435E-01
(PID.TID 0000.0001) %MON forcing_empmr_max            =   6.7469533532858E-03
(PID.TID 0000.0001) %MON forcing_empmr_min            =  -9.6985809504986E-02
(PID.TID 0000.0001) %MON forcing_empmr_mean           =  -4.3466747240860E-04
(PID.TID 0000.0001) %MON forcing_empmr_sd             =   4.2937312251920E-03
(PID.TID 0000.0001) %MON forcing_empmr_del2           =   1.6863695785205E-04
(PID.TID 0000.0001) %MON forcing_fu_max               =   6.6698748324772E-01
(PID.TID 0000.0001) %MON forcing_fu_min               =  -5.8338212242283E-01
(PID.TID 0000.0001) %MON forcing_fu_mean              =  -1.3135206002295E-03
(PID.TID 0000.0001) %MON forcing_fu_sd                =   9.0183648485163E-02
(PID.TID 0000.0001) %MON forcing_fu_del2              =   7.6433994434297E-04
(PID.TID 0000.0001) %MON forcing_fv_max               =   4.4621010602774E-01
(PID.TID 0000.0001) %MON forcing_fv_min               =  -4.1126022510869E-01
(PID.TID 0000.0001) %MON forcing_fv_mean              =  -5.8488470427991E-03
(PID.TID 0000.0001) %MON forcing_fv_sd                =   7.8701816618545E-02
(PID.TID 0000.0001) %MON forcing_fv_del2              =   6.5175152615006E-04
(PID.TID 0000.0001) %MON trAdv_CFL_u_max              =   1.3854366690400E-03
(PID.TID 0000.0001) %MON trAdv_CFL_v_max              =   1.5919008989920E-03
(PID.TID 0000.0001) %MON trAdv_CFL_w_max              =   2.5694813853305E-03
(PID.TID 0000.0001) %MON advcfl_uvel_max              =   1.3679380373577E-03
(PID.TID 0000.0001) %MON advcfl_vvel_max              =   1.3038636482659E-03
(PID.TID 0000.0001) %MON advcfl_wvel_max              =   6.7468389220860E-03
(PID.TID 0000.0001) %MON advcfl_W_hf_max              =   2.5694813853305E-03
(PID.TID 0000.0001) %MON pe_b_mean                    =   1.6813784862735E-05
(PID.TID 0000.0001) %MON ke_max                       =   1.0231243837069E-01
(PID.TID 0000.0001) %MON ke_mean                      =   4.1028904485692E-05
(PID.TID 0000.0001) %MON ke_vol                       =   1.3398143641854E+18
(PID.TID 0000.0001) %MON vort_r_min                   =  -2.6519853492331E-06
(PID.TID 0000.0001) %MON vort_r_max                   =   1.9242273844694E-06
(PID.TID 0000.0001) %MON vort_a_mean                  =  -2.0549865324846E-05
(PID.TID 0000.0001) %MON vort_a_sd                    =   7.5259388208592E-05
(PID.TID 0000.0001) %MON vort_p_mean                  =  -2.4783307737277E-05
(PID.TID 0000.0001) %MON vort_p_sd                    =   1.2810534760218E-04
(PID.TID 0000.0001) %MON surfExpan_theta_mean         =  -2.8799746388943E-07
(PID.TID 0000.0001) %MON surfExpan_salt_mean          =   1.5703151017683E-06
(PID.TID 0000.0001) // =======================================================
(PID.TID 0000.0001) // End MONITOR dynamic field statistics
(PID.TID 0000.0001) // =======================================================
(PID.TID 0000.0001) DEBUG_MSG: LEAVING S/R FORWARD_STEP
(PID.TID 0000.0001) DEBUG_MSG: ENTERED S/R FORWARD_STEP
(PID.TID 0000.0001) DEBUG_MSG: CALLING S/R LOAD_FIELDS_DRIVER
(PID.TID 0000.0001) DEBUG_MSG: ENTERED S/R LOAD_FIELDS_DRIVER
(PID.TID 0000.0001) DEBUG_MSG: CALLING S/R EXTERNAL_FIELDS_LOAD
(PID.TID 0000.0001) DEBUG_MSG: LEAVING S/R LOAD_FIELDS_DRIVER
(PID.TID 0000.0001) DEBUG_MSG: CALLING S/R DO_ATMOSPHERIC_PHYS
(PID.TID 0000.0001) DEBUG_MSG: ENTERED S/R DO_ATMOSPHERIC_PHYS
(PID.TID 0000.0001) DEBUG_MSG: LEAVING S/R DO_ATMOSPHERIC_PHYS
(PID.TID 0000.0001) DEBUG_MSG: CALLING S/R DO_OCEANIC_PHYS
(PID.TID 0000.0001) DEBUG_MSG: ENTERED S/R DO_OCEANIC_PHYS
(PID.TID 0000.0001) DEBUG_MSG: CALLING S/R EXTERNAL_FORCING_SURF
(PID.TID 0000.0001) DEBUG_MSG: CALLING S/R FIND_RHO_2D (xNr)
(PID.TID 0000.0001) DEBUG_MSG:                  ENTERING UPWARD K LOOP (bi=   1, bj=   1)
(PID.TID 0000.0001) DEBUG_MSG: CALLING S/R GRAD_SIGMA
(PID.TID 0000.0001) DEBUG_MSG: CALLING S/R CALC_IVDC
(PID.TID 0000.0001) DEBUG_MSG: CALLING S/R GRAD_SIGMA
(PID.TID 0000.0001) DEBUG_MSG: CALLING S/R CALC_IVDC
(PID.TID 0000.0001) DEBUG_MSG: CALLING S/R GRAD_SIGMA
(PID.TID 0000.0001) DEBUG_MSG: CALLING S/R CALC_IVDC
(PID.TID 0000.0001) DEBUG_MSG: CALLING S/R GRAD_SIGMA
(PID.TID 0000.0001) DEBUG_MSG: CALLING S/R CALC_IVDC
(PID.TID 0000.0001) DEBUG_MSG: CALLING S/R GRAD_SIGMA
(PID.TID 0000.0001) DEBUG_MSG: CALLING S/R CALC_IVDC
(PID.TID 0000.0001) DEBUG_MSG: CALLING S/R GRAD_SIGMA
(PID.TID 0000.0001) DEBUG_MSG: CALLING S/R CALC_IVDC
(PID.TID 0000.0001) DEBUG_MSG: CALLING S/R GRAD_SIGMA
(PID.TID 0000.0001) DEBUG_MSG: CALLING S/R CALC_IVDC
(PID.TID 0000.0001) DEBUG_MSG: CALLING S/R GRAD_SIGMA
(PID.TID 0000.0001) DEBUG_MSG: CALLING S/R CALC_IVDC
(PID.TID 0000.0001) DEBUG_MSG: CALLING S/R GRAD_SIGMA
(PID.TID 0000.0001) DEBUG_MSG: CALLING S/R CALC_IVDC
(PID.TID 0000.0001) DEBUG_MSG: CALLING S/R GRAD_SIGMA
(PID.TID 0000.0001) DEBUG_MSG: CALLING S/R CALC_IVDC
(PID.TID 0000.0001) DEBUG_MSG: CALLING S/R GRAD_SIGMA
(PID.TID 0000.0001) DEBUG_MSG: CALLING S/R CALC_IVDC
(PID.TID 0000.0001) DEBUG_MSG: CALLING S/R GRAD_SIGMA
(PID.TID 0000.0001) DEBUG_MSG: CALLING S/R CALC_IVDC
(PID.TID 0000.0001) DEBUG_MSG: CALLING S/R GRAD_SIGMA
(PID.TID 0000.0001) DEBUG_MSG: CALLING S/R CALC_IVDC
(PID.TID 0000.0001) DEBUG_MSG: CALLING S/R GRAD_SIGMA
(PID.TID 0000.0001) DEBUG_MSG: CALLING S/R CALC_IVDC
(PID.TID 0000.0001) DEBUG_MSG: CALLING S/R GRAD_SIGMA
(PID.TID 0000.0001) DEBUG_MSG: CALLING S/R CALC_IVDC
(PID.TID 0000.0001) DEBUG_MSG: CALLING S/R GRAD_SIGMA
(PID.TID 0000.0001) DEBUG_MSG: CALLING S/R GMREDI_CALC_TENSOR
(PID.TID 0000.0001) DEBUG_MSG: LEAVING S/R DO_OCEANIC_PHYS
(PID.TID 0000.0001) DEBUG_MSG: CALLING S/R DYNAMICS
(PID.TID 0000.0001) DEBUG_MSG: ENTERED S/R DYNAMICS
DEBUG_STATS_RL:                EtaN (DYNAMICS)  min= -1.16837221191973E+00
DEBUG_STATS_RL:                EtaN (DYNAMICS)  max=  3.41981208336436E+00
DEBUG_STATS_RL:                EtaN (DYNAMICS) mean=  3.39271891964305E-02
DEBUG_STATS_RL:                EtaN (DYNAMICS) S.D.=  1.12925964600721E-01
DEBUG_STATS_RL:                Uvel (DYNAMICS)  min= -4.43539428767316E-01
DEBUG_STATS_RL:                Uvel (DYNAMICS)  max=  4.27062906234908E-01
DEBUG_STATS_RL:                Uvel (DYNAMICS) mean= -7.56854071941497E-04
DEBUG_STATS_RL:                Uvel (DYNAMICS) S.D.=  1.92013564828744E-02
DEBUG_STATS_RL:                Vvel (DYNAMICS)  min= -4.45962604916697E-01
DEBUG_STATS_RL:                Vvel (DYNAMICS)  max=  4.32457679516580E-01
DEBUG_STATS_RL:                Vvel (DYNAMICS) mean= -6.11240557679125E-04
DEBUG_STATS_RL:                Vvel (DYNAMICS) S.D.=  2.07082602726934E-02
DEBUG_STATS_RL:                Wvel (DYNAMICS)  min= -2.22961345379443E-04
DEBUG_STATS_RL:                Wvel (DYNAMICS)  max=  1.73305033079504E-04
DEBUG_STATS_RL:                Wvel (DYNAMICS) mean= -3.55819512990529E-07
DEBUG_STATS_RL:                Wvel (DYNAMICS) S.D.=  7.68904178301087E-06
DEBUG_STATS_RL:               Theta (DYNAMICS)  min=  1.61814952012665E+01
DEBUG_STATS_RL:               Theta (DYNAMICS)  max=  2.27641847199671E+01
DEBUG_STATS_RL:               Theta (DYNAMICS) mean=  2.00011928996224E+01
DEBUG_STATS_RL:               Theta (DYNAMICS) S.D.=  8.06069348029506E-02
DEBUG_STATS_RL:                Salt (DYNAMICS)  min=  2.55126283957155E+01
DEBUG_STATS_RL:                Salt (DYNAMICS)  max=  3.51510796268881E+01
DEBUG_STATS_RL:                Salt (DYNAMICS) mean=  3.49975515561858E+01
DEBUG_STATS_RL:                Salt (DYNAMICS) S.D.=  1.07814248322313E-01
DEBUG_STATS_RL:                  Gu (DYNAMICS)  min= -4.22855883130352E-01
DEBUG_STATS_RL:                  Gu (DYNAMICS)  max=  4.02554638598585E-01
DEBUG_STATS_RL:                  Gu (DYNAMICS) mean= -7.42220250645325E-04
DEBUG_STATS_RL:                  Gu (DYNAMICS) S.D.=  1.88821232596008E-02
DEBUG_STATS_RL:                  Gv (DYNAMICS)  min= -4.12752767259753E-01
DEBUG_STATS_RL:                  Gv (DYNAMICS)  max=  4.40276253339131E-01
DEBUG_STATS_RL:                  Gv (DYNAMICS) mean= -6.15623541245663E-04
DEBUG_STATS_RL:                  Gv (DYNAMICS) S.D.=  2.04556877034740E-02
DEBUG_STATS_RL:               GuNm1 (DYNAMICS)  min= -2.71544738161015E-05
DEBUG_STATS_RL:               GuNm1 (DYNAMICS)  max=  2.86403821384954E-05
DEBUG_STATS_RL:               GuNm1 (DYNAMICS) mean=  1.29994695277934E-08
DEBUG_STATS_RL:               GuNm1 (DYNAMICS) S.D.=  1.23866121384732E-06
DEBUG_STATS_RL:               GvNm1 (DYNAMICS)  min= -3.71576820907920E-05
DEBUG_STATS_RL:               GvNm1 (DYNAMICS)  max=  3.71081422419478E-05
DEBUG_STATS_RL:               GvNm1 (DYNAMICS) mean= -5.00337906497016E-09
DEBUG_STATS_RL:               GvNm1 (DYNAMICS) S.D.=  1.42046980434940E-06
DEBUG_STATS_RL:               GtNm1 (DYNAMICS)  min= -3.26930289780637E-06
DEBUG_STATS_RL:               GtNm1 (DYNAMICS)  max=  4.59854544476436E-06
DEBUG_STATS_RL:               GtNm1 (DYNAMICS) mean=  7.73489316761263E-10
DEBUG_STATS_RL:               GtNm1 (DYNAMICS) S.D.=  6.52664714222098E-08
DEBUG_STATS_RL:               GsNm1 (DYNAMICS)  min= -1.65211061613223E-05
DEBUG_STATS_RL:               GsNm1 (DYNAMICS)  max=  1.94017774044213E-06
DEBUG_STATS_RL:               GsNm1 (DYNAMICS) mean= -4.43486945813583E-09
DEBUG_STATS_RL:               GsNm1 (DYNAMICS) S.D.=  1.92053480538114E-07
(PID.TID 0000.0001) DEBUG_MSG: LEAVING S/R DYNAMICS
DEBUG_STATS_RL:    cg2d_b (SOLVE_FOR_PRESSURE)  min= -3.45579269379734E+05
DEBUG_STATS_RL:    cg2d_b (SOLVE_FOR_PRESSURE)  max=  1.27979722900222E+05
DEBUG_STATS_RL:    cg2d_b (SOLVE_FOR_PRESSURE) mean= -3.40562297629645E+03
DEBUG_STATS_RL:    cg2d_b (SOLVE_FOR_PRESSURE) S.D.=  1.08377142129133E+04
 cg2d: Sum(rhs),rhsMax =  -4.35583233399621E+01  6.62011144449347E+01
(PID.TID 0000.0001)  cg2d: iter=     1 ; resid.=  2.50307661250618E-02
(PID.TID 0000.0001)  cg2d: iter=     2 ; resid.=  3.82042302669521E-03
(PID.TID 0000.0001)  cg2d: iter=     3 ; resid.=  9.94093706969263E-04
(PID.TID 0000.0001)  cg2d: iter=     4 ; resid.=  3.28421284210309E-04
(PID.TID 0000.0001)  cg2d: iter=     5 ; resid.=  8.63456515885596E-05
(PID.TID 0000.0001)  cg2d: iter=     6 ; resid.=  1.97681173875671E-05
(PID.TID 0000.0001)  cg2d: iter=     7 ; resid.=  4.58504639659654E-06
(PID.TID 0000.0001)  cg2d: iter=     8 ; resid.=  1.26869103138010E-06
(PID.TID 0000.0001)  cg2d: iter=     9 ; resid.=  3.65522481465934E-07
(PID.TID 0000.0001)  cg2d: iter=    10 ; resid.=  9.70994843901209E-08
DEBUG_STATS_RL:    cg2d_x (SOLVE_FOR_PRESSURE)  min= -1.09193222642580E+01
DEBUG_STATS_RL:    cg2d_x (SOLVE_FOR_PRESSURE)  max=  3.27864355404795E+01
DEBUG_STATS_RL:    cg2d_x (SOLVE_FOR_PRESSURE) mean=  3.38006888736359E-01
DEBUG_STATS_RL:    cg2d_x (SOLVE_FOR_PRESSURE) S.D.=  1.09646290654494E+00
(PID.TID 0000.0001)      cg2d_init_res =   1.49514420970962E-01
(PID.TID 0000.0001)      cg2d_iters(min,last) =      -1      10
(PID.TID 0000.0001)      cg2d_last_res =   9.70994843901209E-08
(PID.TID 0000.0001) DEBUG_MSG: CALLING S/R UPDATE_ETAH
(PID.TID 0000.0001) DEBUG_MSG: ENTERED S/R CALC_R_STAR
(PID.TID 0000.0001) DEBUG_MSG: LEAVING S/R CALC_R_STAR
(PID.TID 0000.0001) DEBUG_MSG: CALLING S/R DO_STAGGER_FIELDS_EXCH.
(PID.TID 0000.0001) DEBUG_MSG: CALLING S/R THERMODYNAMICS
(PID.TID 0000.0001) DEBUG_MSG: ENTERED S/R THERMODYNAMICS
(PID.TID 0000.0001) DEBUG_MSG: CALLING S/R TEMP_INTEGRATE
(PID.TID 0000.0001) DEBUG_MSG: CALLING S/R SALT_INTEGRATE
DEBUG_STATS_RL:          Uvel (THERMODYNAMICS)  min= -4.39389951857502E-01
DEBUG_STATS_RL:          Uvel (THERMODYNAMICS)  max=  4.16378183561040E-01
DEBUG_STATS_RL:          Uvel (THERMODYNAMICS) mean= -7.38680924564738E-04
DEBUG_STATS_RL:          Uvel (THERMODYNAMICS) S.D.=  1.89010522250983E-02
DEBUG_STATS_RL:          Vvel (THERMODYNAMICS)  min= -4.75378601293819E-01
DEBUG_STATS_RL:          Vvel (THERMODYNAMICS)  max=  4.79003286940481E-01
DEBUG_STATS_RL:          Vvel (THERMODYNAMICS) mean= -5.93436863309425E-04
DEBUG_STATS_RL:          Vvel (THERMODYNAMICS) S.D.=  2.05163805650809E-02
DEBUG_STATS_RL:          Wvel (THERMODYNAMICS)  min= -2.26457063099629E-04
DEBUG_STATS_RL:          Wvel (THERMODYNAMICS)  max=  1.67706863007559E-04
DEBUG_STATS_RL:          Wvel (THERMODYNAMICS) mean= -3.75493298870754E-07
DEBUG_STATS_RL:          Wvel (THERMODYNAMICS) S.D.=  7.68567590971838E-06
DEBUG_STATS_RL:         Theta (THERMODYNAMICS)  min=  1.61801115011723E+01
DEBUG_STATS_RL:         Theta (THERMODYNAMICS)  max=  2.28042201990187E+01
DEBUG_STATS_RL:         Theta (THERMODYNAMICS) mean=  2.00012950330115E+01
DEBUG_STATS_RL:         Theta (THERMODYNAMICS) S.D.=  8.12174967526845E-02
DEBUG_STATS_RL:          Salt (THERMODYNAMICS)  min=  2.54184732307232E+01
DEBUG_STATS_RL:          Salt (THERMODYNAMICS)  max=  3.51510769865664E+01
DEBUG_STATS_RL:          Salt (THERMODYNAMICS) mean=  3.49975216149301E+01
DEBUG_STATS_RL:          Salt (THERMODYNAMICS) S.D.=  1.08927366386459E-01
DEBUG_STATS_RL:         GtNm1 (THERMODYNAMICS)  min= -3.93395277313538E-06
DEBUG_STATS_RL:         GtNm1 (THERMODYNAMICS)  max=  4.60615149932603E-06
DEBUG_STATS_RL:         GtNm1 (THERMODYNAMICS) mean=  6.53924139669763E-10
DEBUG_STATS_RL:         GtNm1 (THERMODYNAMICS) S.D.=  6.43643770273943E-08
DEBUG_STATS_RL:         GsNm1 (THERMODYNAMICS)  min= -1.65238364965051E-05
DEBUG_STATS_RL:         GsNm1 (THERMODYNAMICS)  max=  1.95707871721203E-06
DEBUG_STATS_RL:         GsNm1 (THERMODYNAMICS) mean= -4.43547945795005E-09
DEBUG_STATS_RL:         GsNm1 (THERMODYNAMICS) S.D.=  1.91441286288411E-07
(PID.TID 0000.0001) DEBUG_MSG: LEAVING S/R THERMODYNAMICS
(PID.TID 0000.0001) // =======================================================
(PID.TID 0000.0001) // Begin MONITOR dynamic field statistics
(PID.TID 0000.0001) // =======================================================
(PID.TID 0000.0001) %MON time_tsnumber                =                    50
(PID.TID 0000.0001) %MON time_secondsf                =   4.5000000000000E+04
(PID.TID 0000.0001) %MON dynstat_eta_max              =   3.3421442948462E+00
(PID.TID 0000.0001) %MON dynstat_eta_min              =  -1.1130807516000E+00
(PID.TID 0000.0001) %MON dynstat_eta_mean             =   3.3507160671013E-02
(PID.TID 0000.0001) %MON dynstat_eta_sd               =   1.0599531242303E-01
(PID.TID 0000.0001) %MON dynstat_eta_del2             =   2.3500585345863E-03
(PID.TID 0000.0001) %MON dynstat_uvel_max             =   4.1637818356104E-01
(PID.TID 0000.0001) %MON dynstat_uvel_min             =  -4.3938995185750E-01
(PID.TID 0000.0001) %MON dynstat_uvel_mean            =  -1.6263114010234E-04
(PID.TID 0000.0001) %MON dynstat_uvel_sd              =   6.3703241736826E-03
(PID.TID 0000.0001) %MON dynstat_uvel_del2            =   1.0183458256777E-04
(PID.TID 0000.0001) %MON dynstat_vvel_max             =   4.7900328694048E-01
(PID.TID 0000.0001) %MON dynstat_vvel_min             =  -4.7537860129382E-01
(PID.TID 0000.0001) %MON dynstat_vvel_mean            =   6.2781284925736E-04
(PID.TID 0000.0001) %MON dynstat_vvel_sd              =   6.7972340295904E-03
(PID.TID 0000.0001) %MON dynstat_vvel_del2            =   9.8527176393074E-05
(PID.TID 0000.0001) %MON dynstat_wvel_max             =   1.6770686300756E-04
(PID.TID 0000.0001) %MON dynstat_wvel_min             =  -2.2645706309963E-04
(PID.TID 0000.0001) %MON dynstat_wvel_mean            =  -3.2253023375357E-07
(PID.TID 0000.0001) %MON dynstat_wvel_sd              =   7.2115949413639E-06
(PID.TID 0000.0001) %MON dynstat_wvel_del2            =   7.6564603229335E-08
(PID.TID 0000.0001) %MON dynstat_theta_max            =   2.2804220199019E+01
(PID.TID 0000.0001) %MON dynstat_theta_min            =   1.6180111501172E+01
(PID.TID 0000.0001) %MON dynstat_theta_mean           =   1.9997889033846E+01
(PID.TID 0000.0001) %MON dynstat_theta_sd             =   2.7088338662630E-02
(PID.TID 0000.0001) %MON dynstat_theta_del2           =   4.8423771680962E-04
(PID.TID 0000.0001) %MON dynstat_salt_max             =   3.5151076986566E+01
(PID.TID 0000.0001) %MON dynstat_salt_min             =   2.5418473230723E+01
(PID.TID 0000.0001) %MON dynstat_salt_mean            =   3.4999674317026E+01
(PID.TID 0000.0001) %MON dynstat_salt_sd              =   3.3622011464552E-02
(PID.TID 0000.0001) %MON dynstat_salt_del2            =   1.1681275811613E-03
(PID.TID 0000.0001) %MON dynstat_sst_max              =   2.2804220199019E+01
(PID.TID 0000.0001) %MON dynstat_sst_min              =   1.6180111501172E+01
(PID.TID 0000.0001) %MON dynstat_sst_mean             =   2.0112539019547E+01
(PID.TID 0000.0001) %MON dynstat_sst_sd               =   2.4770759063176E-01
(PID.TID 0000.0001) %MON dynstat_sst_del2             =   5.4865432447481E-03
(PID.TID 0000.0001) %MON dynstat_sss_max              =   3.5151076986566E+01
(PID.TID 0000.0001) %MON dynstat_sss_min              =   2.5418473230723E+01
(PID.TID 0000.0001) %MON dynstat_sss_mean             =   3.4970683861722E+01
(PID.TID 0000.0001) %MON dynstat_sss_sd               =   4.0563864483087E-01
(PID.TID 0000.0001) %MON dynstat_sss_del2             =   1.5819277477322E-02
(PID.TID 0000.0001) %MON forcing_qnet_max             =   3.4811139266455E+03
(PID.TID 0000.0001) %MON forcing_qnet_min             =  -4.1369836238170E+03
(PID.TID 0000.0001) %MON forcing_qnet_mean            =  -8.9154497192605E+00
(PID.TID 0000.0001) %MON forcing_qnet_sd              =   5.1428098229218E+02
(PID.TID 0000.0001) %MON forcing_qnet_del2            =   7.5495342439473E+00
(PID.TID 0000.0001) %MON forcing_qsw_max              =   0.0000000000000E+00
(PID.TID 0000.0001) %MON forcing_qsw_min              =  -1.0702338689555E+02
(PID.TID 0000.0001) %MON forcing_qsw_mean             =  -1.3858472022121E+01
(PID.TID 0000.0001) %MON forcing_qsw_sd               =   2.3718703302061E+01
(PID.TID 0000.0001) %MON forcing_qsw_del2             =   1.8925479399652E-01
(PID.TID 0000.0001) %MON forcing_empmr_max            =   6.6773816943169E-03
(PID.TID 0000.0001) %MON forcing_empmr_min            =  -9.5986455678940E-02
(PID.TID 0000.0001) %MON forcing_empmr_mean           =  -4.3122577794523E-04
(PID.TID 0000.0001) %MON forcing_empmr_sd             =   4.2503774385345E-03
(PID.TID 0000.0001) %MON forcing_empmr_del2           =   1.6693564179439E-04
(PID.TID 0000.0001) %MON forcing_fu_max               =   6.7254344551020E-01
(PID.TID 0000.0001) %MON forcing_fu_min               =  -5.8983561081089E-01
(PID.TID 0000.0001) %MON forcing_fu_mean              =  -1.3009289657642E-03
(PID.TID 0000.0001) %MON forcing_fu_sd                =   9.0250020204120E-02
(PID.TID 0000.0001) %MON forcing_fu_del2              =   7.6511615208769E-04
(PID.TID 0000.0001) %MON forcing_fv_max               =   4.4462670744708E-01
(PID.TID 0000.0001) %MON forcing_fv_min               =  -4.1294360582074E-01
(PID.TID 0000.0001) %MON forcing_fv_mean              =  -5.9662016115182E-03
(PID.TID 0000.0001) %MON forcing_fv_sd                =   7.8539724565454E-02
(PID.TID 0000.0001) %MON forcing_fv_del2              =   6.5036120247465E-04
(PID.TID 0000.0001) %MON trAdv_CFL_u_max              =   1.2920179680086E-03
(PID.TID 0000.0001) %MON trAdv_CFL_v_max              =   1.6384250040942E-03
(PID.TID 0000.0001) %MON trAdv_CFL_w_max              =   2.5068403477107E-03
(PID.TID 0000.0001) %MON advcfl_uvel_max              =   1.2757022369437E-03
(PID.TID 0000.0001) %MON advcfl_vvel_max              =   1.4208984032020E-03
(PID.TID 0000.0001) %MON advcfl_wvel_max              =   6.6773186559262E-03
(PID.TID 0000.0001) %MON advcfl_W_hf_max              =   2.5068403477107E-03
(PID.TID 0000.0001) %MON pe_b_mean                    =   1.6462639968173E-05
(PID.TID 0000.0001) %MON ke_max                       =   1.1102054455695E-01
(PID.TID 0000.0001) %MON ke_mean                      =   4.0274349881063E-05
(PID.TID 0000.0001) %MON ke_vol                       =   1.3398145017243E+18
(PID.TID 0000.0001) %MON vort_r_min                   =  -2.7366228330936E-06
(PID.TID 0000.0001) %MON vort_r_max                   =   1.9461268565918E-06
(PID.TID 0000.0001) %MON vort_a_mean                  =  -2.0549865324846E-05
(PID.TID 0000.0001) %MON vort_a_sd                    =   7.5259399292174E-05
(PID.TID 0000.0001) %MON vort_p_mean                  =  -2.4783304914931E-05
(PID.TID 0000.0001) %MON vort_p_sd                    =   1.2810530412066E-04
(PID.TID 0000.0001) %MON surfExpan_theta_mean         =  -2.4311832593180E-07
(PID.TID 0000.0001) %MON surfExpan_salt_mean          =   1.5716428038849E-06
(PID.TID 0000.0001) // =======================================================
(PID.TID 0000.0001) // End MONITOR dynamic field statistics
(PID.TID 0000.0001) // =======================================================
(PID.TID 0000.0001) DEBUG_MSG: LEAVING S/R FORWARD_STEP
(PID.TID 0000.0001) DEBUG_MSG: ENTERED S/R FORWARD_STEP
(PID.TID 0000.0001) DEBUG_MSG: CALLING S/R LOAD_FIELDS_DRIVER
(PID.TID 0000.0001) DEBUG_MSG: ENTERED S/R LOAD_FIELDS_DRIVER
(PID.TID 0000.0001) DEBUG_MSG: CALLING S/R EXTERNAL_FIELDS_LOAD
(PID.TID 0000.0001) DEBUG_MSG: LEAVING S/R LOAD_FIELDS_DRIVER
(PID.TID 0000.0001) DEBUG_MSG: CALLING S/R DO_ATMOSPHERIC_PHYS
(PID.TID 0000.0001) DEBUG_MSG: ENTERED S/R DO_ATMOSPHERIC_PHYS
(PID.TID 0000.0001) DEBUG_MSG: LEAVING S/R DO_ATMOSPHERIC_PHYS
(PID.TID 0000.0001) DEBUG_MSG: CALLING S/R DO_OCEANIC_PHYS
(PID.TID 0000.0001) DEBUG_MSG: ENTERED S/R DO_OCEANIC_PHYS
(PID.TID 0000.0001) DEBUG_MSG: CALLING S/R EXTERNAL_FORCING_SURF
(PID.TID 0000.0001) DEBUG_MSG: CALLING S/R FIND_RHO_2D (xNr)
(PID.TID 0000.0001) DEBUG_MSG:                  ENTERING UPWARD K LOOP (bi=   1, bj=   1)
(PID.TID 0000.0001) DEBUG_MSG: CALLING S/R GRAD_SIGMA
(PID.TID 0000.0001) DEBUG_MSG: CALLING S/R CALC_IVDC
(PID.TID 0000.0001) DEBUG_MSG: CALLING S/R GRAD_SIGMA
(PID.TID 0000.0001) DEBUG_MSG: CALLING S/R CALC_IVDC
(PID.TID 0000.0001) DEBUG_MSG: CALLING S/R GRAD_SIGMA
(PID.TID 0000.0001) DEBUG_MSG: CALLING S/R CALC_IVDC
(PID.TID 0000.0001) DEBUG_MSG: CALLING S/R GRAD_SIGMA
(PID.TID 0000.0001) DEBUG_MSG: CALLING S/R CALC_IVDC
(PID.TID 0000.0001) DEBUG_MSG: CALLING S/R GRAD_SIGMA
(PID.TID 0000.0001) DEBUG_MSG: CALLING S/R CALC_IVDC
(PID.TID 0000.0001) DEBUG_MSG: CALLING S/R GRAD_SIGMA
(PID.TID 0000.0001) DEBUG_MSG: CALLING S/R CALC_IVDC
(PID.TID 0000.0001) DEBUG_MSG: CALLING S/R GRAD_SIGMA
(PID.TID 0000.0001) DEBUG_MSG: CALLING S/R CALC_IVDC
(PID.TID 0000.0001) DEBUG_MSG: CALLING S/R GRAD_SIGMA
(PID.TID 0000.0001) DEBUG_MSG: CALLING S/R CALC_IVDC
(PID.TID 0000.0001) DEBUG_MSG: CALLING S/R GRAD_SIGMA
(PID.TID 0000.0001) DEBUG_MSG: CALLING S/R CALC_IVDC
(PID.TID 0000.0001) DEBUG_MSG: CALLING S/R GRAD_SIGMA
(PID.TID 0000.0001) DEBUG_MSG: CALLING S/R CALC_IVDC
(PID.TID 0000.0001) DEBUG_MSG: CALLING S/R GRAD_SIGMA
(PID.TID 0000.0001) DEBUG_MSG: CALLING S/R CALC_IVDC
(PID.TID 0000.0001) DEBUG_MSG: CALLING S/R GRAD_SIGMA
(PID.TID 0000.0001) DEBUG_MSG: CALLING S/R CALC_IVDC
(PID.TID 0000.0001) DEBUG_MSG: CALLING S/R GRAD_SIGMA
(PID.TID 0000.0001) DEBUG_MSG: CALLING S/R CALC_IVDC
(PID.TID 0000.0001) DEBUG_MSG: CALLING S/R GRAD_SIGMA
(PID.TID 0000.0001) DEBUG_MSG: CALLING S/R CALC_IVDC
(PID.TID 0000.0001) DEBUG_MSG: CALLING S/R GRAD_SIGMA
(PID.TID 0000.0001) DEBUG_MSG: CALLING S/R CALC_IVDC
(PID.TID 0000.0001) DEBUG_MSG: CALLING S/R GRAD_SIGMA
(PID.TID 0000.0001) DEBUG_MSG: CALLING S/R GMREDI_CALC_TENSOR
(PID.TID 0000.0001) DEBUG_MSG: LEAVING S/R DO_OCEANIC_PHYS
(PID.TID 0000.0001) DEBUG_MSG: CALLING S/R DYNAMICS
(PID.TID 0000.0001) DEBUG_MSG: ENTERED S/R DYNAMICS
DEBUG_STATS_RL:                EtaN (DYNAMICS)  min= -1.11308075160003E+00
DEBUG_STATS_RL:                EtaN (DYNAMICS)  max=  3.34214429484623E+00
DEBUG_STATS_RL:                EtaN (DYNAMICS) mean=  3.44553400317375E-02
DEBUG_STATS_RL:                EtaN (DYNAMICS) S.D.=  1.11769919033869E-01
DEBUG_STATS_RL:                Uvel (DYNAMICS)  min= -4.39389951857502E-01
DEBUG_STATS_RL:                Uvel (DYNAMICS)  max=  4.16378183561040E-01
DEBUG_STATS_RL:                Uvel (DYNAMICS) mean= -7.38680924564738E-04
DEBUG_STATS_RL:                Uvel (DYNAMICS) S.D.=  1.89010522250983E-02
DEBUG_STATS_RL:                Vvel (DYNAMICS)  min= -4.75378601293819E-01
DEBUG_STATS_RL:                Vvel (DYNAMICS)  max=  4.79003286940481E-01
DEBUG_STATS_RL:                Vvel (DYNAMICS) mean= -5.93436863309425E-04
DEBUG_STATS_RL:                Vvel (DYNAMICS) S.D.=  2.05163805650809E-02
DEBUG_STATS_RL:                Wvel (DYNAMICS)  min= -2.26457063099629E-04
DEBUG_STATS_RL:                Wvel (DYNAMICS)  max=  1.67706863007559E-04
DEBUG_STATS_RL:                Wvel (DYNAMICS) mean= -3.75493298870754E-07
DEBUG_STATS_RL:                Wvel (DYNAMICS) S.D.=  7.68567590971838E-06
DEBUG_STATS_RL:               Theta (DYNAMICS)  min=  1.61801115011723E+01
DEBUG_STATS_RL:               Theta (DYNAMICS)  max=  2.28042201990187E+01
DEBUG_STATS_RL:               Theta (DYNAMICS) mean=  2.00012950330115E+01
DEBUG_STATS_RL:               Theta (DYNAMICS) S.D.=  8.12174967526845E-02
DEBUG_STATS_RL:                Salt (DYNAMICS)  min=  2.54184732307232E+01
DEBUG_STATS_RL:                Salt (DYNAMICS)  max=  3.51510769865664E+01
DEBUG_STATS_RL:                Salt (DYNAMICS) mean=  3.49975216149301E+01
DEBUG_STATS_RL:                Salt (DYNAMICS) S.D.=  1.08927366386459E-01
DEBUG_STATS_RL:                  Gu (DYNAMICS)  min= -4.17763803120013E-01
DEBUG_STATS_RL:                  Gu (DYNAMICS)  max=  3.92026186353962E-01
DEBUG_STATS_RL:                  Gu (DYNAMICS) mean= -7.20730438722263E-04
DEBUG_STATS_RL:                  Gu (DYNAMICS) S.D.=  1.85753212418339E-02
DEBUG_STATS_RL:                  Gv (DYNAMICS)  min= -4.43962385001767E-01
DEBUG_STATS_RL:                  Gv (DYNAMICS)  max=  4.84459726284479E-01
DEBUG_STATS_RL:                  Gv (DYNAMICS) mean= -5.98954674588402E-04
DEBUG_STATS_RL:                  Gv (DYNAMICS) S.D.=  2.02778652332887E-02
DEBUG_STATS_RL:               GuNm1 (DYNAMICS)  min= -2.70749073383502E-05
DEBUG_STATS_RL:               GuNm1 (DYNAMICS)  max=  3.20236788077029E-05
DEBUG_STATS_RL:               GuNm1 (DYNAMICS) mean=  1.70051977192047E-08
DEBUG_STATS_RL:               GuNm1 (DYNAMICS) S.D.=  1.25097206928131E-06
DEBUG_STATS_RL:               GvNm1 (DYNAMICS)  min= -3.62913878827437E-05
DEBUG_STATS_RL:               GvNm1 (DYNAMICS)  max=  3.52483500142911E-05
DEBUG_STATS_RL:               GvNm1 (DYNAMICS) mean= -6.18210658730762E-09
DEBUG_STATS_RL:               GvNm1 (DYNAMICS) S.D.=  1.39659316865720E-06
DEBUG_STATS_RL:               GtNm1 (DYNAMICS)  min= -3.93395277313538E-06
DEBUG_STATS_RL:               GtNm1 (DYNAMICS)  max=  4.60615149932603E-06
DEBUG_STATS_RL:               GtNm1 (DYNAMICS) mean=  6.53924139669763E-10
DEBUG_STATS_RL:               GtNm1 (DYNAMICS) S.D.=  6.43643770273943E-08
DEBUG_STATS_RL:               GsNm1 (DYNAMICS)  min= -1.65238364965051E-05
DEBUG_STATS_RL:               GsNm1 (DYNAMICS)  max=  1.95707871721203E-06
DEBUG_STATS_RL:               GsNm1 (DYNAMICS) mean= -4.43547945795005E-09
DEBUG_STATS_RL:               GsNm1 (DYNAMICS) S.D.=  1.91441286288411E-07
(PID.TID 0000.0001) DEBUG_MSG: LEAVING S/R DYNAMICS
DEBUG_STATS_RL:    cg2d_b (SOLVE_FOR_PRESSURE)  min= -3.39432188731015E+05
DEBUG_STATS_RL:    cg2d_b (SOLVE_FOR_PRESSURE)  max=  1.19286049774896E+05
DEBUG_STATS_RL:    cg2d_b (SOLVE_FOR_PRESSURE) mean= -3.44351454653134E+03
DEBUG_STATS_RL:    cg2d_b (SOLVE_FOR_PRESSURE) S.D.=  1.06261424106914E+04
 cg2d: Sum(rhs),rhsMax =  -4.48405743502717E+01  6.50235449968063E+01
(PID.TID 0000.0001)  cg2d: iter=     1 ; resid.=  2.56053969258938E-02
(PID.TID 0000.0001)  cg2d: iter=     2 ; resid.=  3.82325371869102E-03
(PID.TID 0000.0001)  cg2d: iter=     3 ; resid.=  1.00083813710136E-03
(PID.TID 0000.0001)  cg2d: iter=     4 ; resid.=  3.34464545441694E-04
(PID.TID 0000.0001)  cg2d: iter=     5 ; resid.=  8.91720664646693E-05
(PID.TID 0000.0001)  cg2d: iter=     6 ; resid.=  2.01396504505565E-05
(PID.TID 0000.0001)  cg2d: iter=     7 ; resid.=  4.37744950750448E-06
(PID.TID 0000.0001)  cg2d: iter=     8 ; resid.=  1.14563139028774E-06
(PID.TID 0000.0001)  cg2d: iter=     9 ; resid.=  3.24455662400336E-07
(PID.TID 0000.0001)  cg2d: iter=    10 ; resid.=  8.57232120481189E-08
DEBUG_STATS_RL:    cg2d_x (SOLVE_FOR_PRESSURE)  min= -1.01789935914512E+01
DEBUG_STATS_RL:    cg2d_x (SOLVE_FOR_PRESSURE)  max=  3.15149113211587E+01
DEBUG_STATS_RL:    cg2d_x (SOLVE_FOR_PRESSURE) mean=  3.43098621617897E-01
DEBUG_STATS_RL:    cg2d_x (SOLVE_FOR_PRESSURE) S.D.=  1.07939802198122E+00
(PID.TID 0000.0001)      cg2d_init_res =   1.53805512801519E-01
(PID.TID 0000.0001)      cg2d_iters(min,last) =      -1      10
(PID.TID 0000.0001)      cg2d_last_res =   8.57232120481189E-08
(PID.TID 0000.0001) DEBUG_MSG: CALLING S/R UPDATE_ETAH
(PID.TID 0000.0001) DEBUG_MSG: ENTERED S/R CALC_R_STAR
(PID.TID 0000.0001) DEBUG_MSG: LEAVING S/R CALC_R_STAR
(PID.TID 0000.0001) DEBUG_MSG: CALLING S/R DO_STAGGER_FIELDS_EXCH.
(PID.TID 0000.0001) DEBUG_MSG: CALLING S/R THERMODYNAMICS
(PID.TID 0000.0001) DEBUG_MSG: ENTERED S/R THERMODYNAMICS
(PID.TID 0000.0001) DEBUG_MSG: CALLING S/R TEMP_INTEGRATE
(PID.TID 0000.0001) DEBUG_MSG: CALLING S/R SALT_INTEGRATE
DEBUG_STATS_RL:          Uvel (THERMODYNAMICS)  min= -4.32734778850295E-01
DEBUG_STATS_RL:          Uvel (THERMODYNAMICS)  max=  4.04134544843473E-01
DEBUG_STATS_RL:          Uvel (THERMODYNAMICS) mean= -7.17993397480233E-04
DEBUG_STATS_RL:          Uvel (THERMODYNAMICS) S.D.=  1.86402152630925E-02
DEBUG_STATS_RL:          Vvel (THERMODYNAMICS)  min= -5.03160822486676E-01
DEBUG_STATS_RL:          Vvel (THERMODYNAMICS)  max=  5.18388745024079E-01
DEBUG_STATS_RL:          Vvel (THERMODYNAMICS) mean= -5.76300955064226E-04
DEBUG_STATS_RL:          Vvel (THERMODYNAMICS) S.D.=  2.03837426037647E-02
DEBUG_STATS_RL:          Wvel (THERMODYNAMICS)  min= -2.31718176033164E-04
DEBUG_STATS_RL:          Wvel (THERMODYNAMICS)  max=  1.61894549534405E-04
DEBUG_STATS_RL:          Wvel (THERMODYNAMICS) mean= -3.92359406629763E-07
DEBUG_STATS_RL:          Wvel (THERMODYNAMICS) S.D.=  7.69095347411851E-06
DEBUG_STATS_RL:         Theta (THERMODYNAMICS)  min=  1.61780322070293E+01
DEBUG_STATS_RL:         Theta (THERMODYNAMICS)  max=  2.28437329482014E+01
DEBUG_STATS_RL:         Theta (THERMODYNAMICS) mean=  2.00013965290660E+01
DEBUG_STATS_RL:         Theta (THERMODYNAMICS) S.D.=  8.18275748583780E-02
DEBUG_STATS_RL:          Salt (THERMODYNAMICS)  min=  2.53265672327551E+01
DEBUG_STATS_RL:          Salt (THERMODYNAMICS)  max=  3.51510741267165E+01
DEBUG_STATS_RL:          Salt (THERMODYNAMICS) mean=  3.49974922116797E+01
DEBUG_STATS_RL:          Salt (THERMODYNAMICS) S.D.=  1.10015235184819E-01
DEBUG_STATS_RL:         GtNm1 (THERMODYNAMICS)  min= -4.89232990632229E-06
DEBUG_STATS_RL:         GtNm1 (THERMODYNAMICS)  max=  4.61382148947808E-06
DEBUG_STATS_RL:         GtNm1 (THERMODYNAMICS) mean=  5.48186659558391E-10
DEBUG_STATS_RL:         GtNm1 (THERMODYNAMICS) S.D.=  6.59619512847992E-08
DEBUG_STATS_RL:         GsNm1 (THERMODYNAMICS)  min= -1.65209098018571E-05
DEBUG_STATS_RL:         GsNm1 (THERMODYNAMICS)  max=  1.99654532370694E-06
DEBUG_STATS_RL:         GsNm1 (THERMODYNAMICS) mean= -4.43961430748894E-09
DEBUG_STATS_RL:         GsNm1 (THERMODYNAMICS) S.D.=  1.90945677001607E-07
(PID.TID 0000.0001) DEBUG_MSG: LEAVING S/R THERMODYNAMICS
(PID.TID 0000.0001) // =======================================================
(PID.TID 0000.0001) // Begin MONITOR dynamic field statistics
(PID.TID 0000.0001) // =======================================================
(PID.TID 0000.0001) %MON time_tsnumber                =                    51
(PID.TID 0000.0001) %MON time_secondsf                =   4.5900000000000E+04
(PID.TID 0000.0001) %MON dynstat_eta_max              =   3.2125291846901E+00
(PID.TID 0000.0001) %MON dynstat_eta_min              =  -1.0376140166590E+00
(PID.TID 0000.0001) %MON dynstat_eta_mean             =   3.3879967332459E-02
(PID.TID 0000.0001) %MON dynstat_eta_sd               =   1.0406263075430E-01
(PID.TID 0000.0001) %MON dynstat_eta_del2             =   2.2999577338796E-03
(PID.TID 0000.0001) %MON dynstat_uvel_max             =   4.0413454484347E-01
(PID.TID 0000.0001) %MON dynstat_uvel_min             =  -4.3273477885029E-01
(PID.TID 0000.0001) %MON dynstat_uvel_mean            =  -1.5633965908393E-04
(PID.TID 0000.0001) %MON dynstat_uvel_sd              =   6.2909832597006E-03
(PID.TID 0000.0001) %MON dynstat_uvel_del2            =   1.0315697584498E-04
(PID.TID 0000.0001) %MON dynstat_vvel_max             =   5.1838874502408E-01
(PID.TID 0000.0001) %MON dynstat_vvel_min             =  -5.0316082248668E-01
(PID.TID 0000.0001) %MON dynstat_vvel_mean            =   6.7199366385601E-04
(PID.TID 0000.0001) %MON dynstat_vvel_sd              =   6.7770468512904E-03
(PID.TID 0000.0001) %MON dynstat_vvel_del2            =   9.8522641865390E-05
(PID.TID 0000.0001) %MON dynstat_wvel_max             =   1.6189454953441E-04
(PID.TID 0000.0001) %MON dynstat_wvel_min             =  -2.3171817603316E-04
(PID.TID 0000.0001) %MON dynstat_wvel_mean            =  -3.4684283050170E-07
(PID.TID 0000.0001) %MON dynstat_wvel_sd              =   7.2429478604082E-06
(PID.TID 0000.0001) %MON dynstat_wvel_del2            =   7.7254379236303E-08
(PID.TID 0000.0001) %MON dynstat_theta_max            =   2.2843732948201E+01
(PID.TID 0000.0001) %MON dynstat_theta_min            =   1.6178032207029E+01
(PID.TID 0000.0001) %MON dynstat_theta_mean           =   1.9997889622771E+01
(PID.TID 0000.0001) %MON dynstat_theta_sd             =   2.7276647922035E-02
(PID.TID 0000.0001) %MON dynstat_theta_del2           =   4.8690806901503E-04
(PID.TID 0000.0001) %MON dynstat_salt_max             =   3.5151074126716E+01
(PID.TID 0000.0001) %MON dynstat_salt_min             =   2.5326567232755E+01
(PID.TID 0000.0001) %MON dynstat_salt_mean            =   3.4999670828477E+01
(PID.TID 0000.0001) %MON dynstat_salt_sd              =   3.3959222074537E-02
(PID.TID 0000.0001) %MON dynstat_salt_del2            =   1.1793821839059E-03
(PID.TID 0000.0001) %MON dynstat_sst_max              =   2.2843732948201E+01
(PID.TID 0000.0001) %MON dynstat_sst_min              =   1.6178032207029E+01
(PID.TID 0000.0001) %MON dynstat_sst_mean             =   2.0114138318882E+01
(PID.TID 0000.0001) %MON dynstat_sst_sd               =   2.4976853729691E-01
(PID.TID 0000.0001) %MON dynstat_sst_del2             =   5.5267869036038E-03
(PID.TID 0000.0001) %MON dynstat_sss_max              =   3.5151074126716E+01
(PID.TID 0000.0001) %MON dynstat_sss_min              =   2.5326567232755E+01
(PID.TID 0000.0001) %MON dynstat_sss_mean             =   3.4970327965977E+01
(PID.TID 0000.0001) %MON dynstat_sss_sd               =   4.0968245037800E-01
(PID.TID 0000.0001) %MON dynstat_sss_del2             =   1.5971265095940E-02
(PID.TID 0000.0001) %MON forcing_qnet_max             =   3.4325124511719E+03
(PID.TID 0000.0001) %MON forcing_qnet_min             =  -4.0763138400014E+03
(PID.TID 0000.0001) %MON forcing_qnet_mean            =  -8.6864870585306E+00
(PID.TID 0000.0001) %MON forcing_qnet_sd              =   5.1031512592379E+02
(PID.TID 0000.0001) %MON forcing_qnet_del2            =   7.2961806757827E+00
(PID.TID 0000.0001) %MON forcing_qsw_max              =   0.0000000000000E+00
(PID.TID 0000.0001) %MON forcing_qsw_min              =  -1.0527264022975E+02
(PID.TID 0000.0001) %MON forcing_qsw_mean             =  -1.3940826960094E+01
(PID.TID 0000.0001) %MON forcing_qsw_sd               =   2.3592390519426E+01
(PID.TID 0000.0001) %MON forcing_qsw_del2             =   1.8965831135315E-01
(PID.TID 0000.0001) %MON forcing_empmr_max            =   6.6085974685848E-03
(PID.TID 0000.0001) %MON forcing_empmr_min            =  -9.4998016953468E-02
(PID.TID 0000.0001) %MON forcing_empmr_mean           =  -4.2872766066306E-04
(PID.TID 0000.0001) %MON forcing_empmr_sd             =   4.2061538736575E-03
(PID.TID 0000.0001) %MON forcing_empmr_del2           =   1.6509939974784E-04
(PID.TID 0000.0001) %MON forcing_fu_max               =   6.7847361287815E-01
(PID.TID 0000.0001) %MON forcing_fu_min               =  -5.9354041598638E-01
(PID.TID 0000.0001) %MON forcing_fu_mean              =  -1.2952421579276E-03
(PID.TID 0000.0001) %MON forcing_fu_sd                =   9.0200950246719E-02
(PID.TID 0000.0001) %MON forcing_fu_del2              =   7.6491821962636E-04
(PID.TID 0000.0001) %MON forcing_fv_max               =   4.4134864027962E-01
(PID.TID 0000.0001) %MON forcing_fv_min               =  -4.1233691805535E-01
(PID.TID 0000.0001) %MON forcing_fv_mean              =  -6.0895890514736E-03
(PID.TID 0000.0001) %MON forcing_fv_sd                =   7.8367978261303E-02
(PID.TID 0000.0001) %MON forcing_fv_del2              =   6.4912747578951E-04
(PID.TID 0000.0001) %MON trAdv_CFL_u_max              =   1.2318875826642E-03
(PID.TID 0000.0001) %MON trAdv_CFL_v_max              =   1.7237644656340E-03
(PID.TID 0000.0001) %MON trAdv_CFL_w_max              =   2.7558682612837E-03
(PID.TID 0000.0001) %MON advcfl_uvel_max              =   1.2309997979996E-03
(PID.TID 0000.0001) %MON advcfl_vvel_max              =   1.5377300326002E-03
(PID.TID 0000.0001) %MON advcfl_wvel_max              =   6.6085577011108E-03
(PID.TID 0000.0001) %MON advcfl_W_hf_max              =   2.7558682612837E-03
(PID.TID 0000.0001) %MON pe_b_mean                    =   1.5955276644475E-05
(PID.TID 0000.0001) %MON ke_max                       =   1.1989241225543E-01
(PID.TID 0000.0001) %MON ke_mean                      =   3.9711469553752E-05
(PID.TID 0000.0001) %MON ke_vol                       =   1.3398146381741E+18
(PID.TID 0000.0001) %MON vort_r_min                   =  -2.9046840209163E-06
(PID.TID 0000.0001) %MON vort_r_max                   =   2.1160298056520E-06
(PID.TID 0000.0001) %MON vort_a_mean                  =  -2.0549865324846E-05
(PID.TID 0000.0001) %MON vort_a_sd                    =   7.5259409901326E-05
(PID.TID 0000.0001) %MON vort_p_mean                  =  -2.4783302029860E-05
(PID.TID 0000.0001) %MON vort_p_sd                    =   1.2810526352914E-04
(PID.TID 0000.0001) %MON surfExpan_theta_mean         =  -2.0355151149277E-07
(PID.TID 0000.0001) %MON surfExpan_salt_mean          =   1.5734530332452E-06
(PID.TID 0000.0001) // =======================================================
(PID.TID 0000.0001) // End MONITOR dynamic field statistics
(PID.TID 0000.0001) // =======================================================
 Computing Diagnostic #     81  oceTAUX      Counter:       1   Parms: UU      U1      
           Vector  Mate for  oceTAUX      Diagnostic #     82  oceTAUY  exists 
(PID.TID 0000.0001)  MDS_WRITE_FIELD: it,rec,kS,kL,kH=      50    -1  32   1   1 file=oceTAUX.0000000050
 Computing Diagnostic #     82  oceTAUY      Counter:       1   Parms: VV      U1      
           Vector  Mate for  oceTAUY      Diagnostic #     81  oceTAUX  exists 
(PID.TID 0000.0001)  MDS_WRITE_FIELD: it,rec,kS,kL,kH=      50    -1  32   1   1 file=oceTAUY.0000000050
 Computing Diagnostic #     85  oceFWflx     Counter:       1   Parms: SM      U1      
(PID.TID 0000.0001)  MDS_WRITE_FIELD: it,rec,kS,kL,kH=      50    -1  32   1   1 file=oceFWflx.0000000050
 Computing Diagnostic #     86  oceSflux     Counter:       1   Parms: SM      U1      
(PID.TID 0000.0001)  MDS_WRITE_FIELD: it,rec,kS,kL,kH=      50    -1  32   1   1 file=oceSflux.0000000050
 Computing Diagnostic #     87  oceQnet      Counter:       1   Parms: SM      U1      
(PID.TID 0000.0001)  MDS_WRITE_FIELD: it,rec,kS,kL,kH=      50    -1  32   1   1 file=oceQnet.0000000050
 Computing Diagnostic #     88  oceQsw       Counter:       1   Parms: SM      U1      
(PID.TID 0000.0001)  MDS_WRITE_FIELD: it,rec,kS,kL,kH=      50    -1  32   1   1 file=oceQsw.0000000050
 Computing Diagnostic #     27  SALT         Counter:       1   Parms: SMR     MR      
(PID.TID 0000.0001)  MDS_WRITE_FIELD: it,rec,kS,kL,kH=      50    -1  32   1   1 file=SSS.0000000050
 Computing Diagnostic #     26  THETA        Counter:       1   Parms: SMR     MR      
(PID.TID 0000.0001)  MDS_WRITE_FIELD: it,rec,kS,kL,kH=      50    -1  32   1   1 file=SST.0000000050
 Computing Diagnostic #     45  UVELMASS     Counter:       1   Parms: UUr     MR      
           Vector  Mate for  UVELMASS     Diagnostic #     46  VVELMASS exists 
(PID.TID 0000.0001)  MDS_WRITE_FIELD: it,rec,kS,kL,kH=      50    -1  32   1   1 file=UVEL1.0000000050
 Computing Diagnostic #     46  VVELMASS     Counter:       1   Parms: VVr     MR      
           Vector  Mate for  VVELMASS     Diagnostic #     45  UVELMASS exists 
(PID.TID 0000.0001)  MDS_WRITE_FIELD: it,rec,kS,kL,kH=      50    -1  32   1   1 file=VVEL1.0000000050
 Computing Diagnostic #     83  atmPload     Counter:       1   Parms: SM      U1      
(PID.TID 0000.0001)  MDS_WRITE_FIELD: it,rec,kS,kL,kH=      50    -1  32   1   1 file=atmPload.0000000050
(PID.TID 0000.0001)  write diagnostics summary to file: diagnostics_status.0000000051.txt
(PID.TID 0000.0001) DEBUG_MSG: LEAVING S/R FORWARD_STEP
(PID.TID 0000.0001) DEBUG_MSG: ENTERED S/R FORWARD_STEP
(PID.TID 0000.0001) DEBUG_MSG: CALLING S/R LOAD_FIELDS_DRIVER
(PID.TID 0000.0001) DEBUG_MSG: ENTERED S/R LOAD_FIELDS_DRIVER
(PID.TID 0000.0001) DEBUG_MSG: CALLING S/R EXTERNAL_FIELDS_LOAD
(PID.TID 0000.0001) DEBUG_MSG: LEAVING S/R LOAD_FIELDS_DRIVER
(PID.TID 0000.0001) DEBUG_MSG: CALLING S/R DO_ATMOSPHERIC_PHYS
(PID.TID 0000.0001) DEBUG_MSG: ENTERED S/R DO_ATMOSPHERIC_PHYS
(PID.TID 0000.0001) DEBUG_MSG: LEAVING S/R DO_ATMOSPHERIC_PHYS
(PID.TID 0000.0001) DEBUG_MSG: CALLING S/R DO_OCEANIC_PHYS
(PID.TID 0000.0001) DEBUG_MSG: ENTERED S/R DO_OCEANIC_PHYS
(PID.TID 0000.0001) DEBUG_MSG: CALLING S/R EXTERNAL_FORCING_SURF
(PID.TID 0000.0001) DEBUG_MSG: CALLING S/R FIND_RHO_2D (xNr)
(PID.TID 0000.0001) DEBUG_MSG:                  ENTERING UPWARD K LOOP (bi=   1, bj=   1)
(PID.TID 0000.0001) DEBUG_MSG: CALLING S/R GRAD_SIGMA
(PID.TID 0000.0001) DEBUG_MSG: CALLING S/R CALC_IVDC
(PID.TID 0000.0001) DEBUG_MSG: CALLING S/R GRAD_SIGMA
(PID.TID 0000.0001) DEBUG_MSG: CALLING S/R CALC_IVDC
(PID.TID 0000.0001) DEBUG_MSG: CALLING S/R GRAD_SIGMA
(PID.TID 0000.0001) DEBUG_MSG: CALLING S/R CALC_IVDC
(PID.TID 0000.0001) DEBUG_MSG: CALLING S/R GRAD_SIGMA
(PID.TID 0000.0001) DEBUG_MSG: CALLING S/R CALC_IVDC
(PID.TID 0000.0001) DEBUG_MSG: CALLING S/R GRAD_SIGMA
(PID.TID 0000.0001) DEBUG_MSG: CALLING S/R CALC_IVDC
(PID.TID 0000.0001) DEBUG_MSG: CALLING S/R GRAD_SIGMA
(PID.TID 0000.0001) DEBUG_MSG: CALLING S/R CALC_IVDC
(PID.TID 0000.0001) DEBUG_MSG: CALLING S/R GRAD_SIGMA
(PID.TID 0000.0001) DEBUG_MSG: CALLING S/R CALC_IVDC
(PID.TID 0000.0001) DEBUG_MSG: CALLING S/R GRAD_SIGMA
(PID.TID 0000.0001) DEBUG_MSG: CALLING S/R CALC_IVDC
(PID.TID 0000.0001) DEBUG_MSG: CALLING S/R GRAD_SIGMA
(PID.TID 0000.0001) DEBUG_MSG: CALLING S/R CALC_IVDC
(PID.TID 0000.0001) DEBUG_MSG: CALLING S/R GRAD_SIGMA
(PID.TID 0000.0001) DEBUG_MSG: CALLING S/R CALC_IVDC
(PID.TID 0000.0001) DEBUG_MSG: CALLING S/R GRAD_SIGMA
(PID.TID 0000.0001) DEBUG_MSG: CALLING S/R CALC_IVDC
(PID.TID 0000.0001) DEBUG_MSG: CALLING S/R GRAD_SIGMA
(PID.TID 0000.0001) DEBUG_MSG: CALLING S/R CALC_IVDC
(PID.TID 0000.0001) DEBUG_MSG: CALLING S/R GRAD_SIGMA
(PID.TID 0000.0001) DEBUG_MSG: CALLING S/R CALC_IVDC
(PID.TID 0000.0001) DEBUG_MSG: CALLING S/R GRAD_SIGMA
(PID.TID 0000.0001) DEBUG_MSG: CALLING S/R CALC_IVDC
(PID.TID 0000.0001) DEBUG_MSG: CALLING S/R GRAD_SIGMA
(PID.TID 0000.0001) DEBUG_MSG: CALLING S/R CALC_IVDC
(PID.TID 0000.0001) DEBUG_MSG: CALLING S/R GRAD_SIGMA
(PID.TID 0000.0001) DEBUG_MSG: CALLING S/R GMREDI_CALC_TENSOR
(PID.TID 0000.0001) DEBUG_MSG: LEAVING S/R DO_OCEANIC_PHYS
(PID.TID 0000.0001) DEBUG_MSG: CALLING S/R DYNAMICS
(PID.TID 0000.0001) DEBUG_MSG: ENTERED S/R DYNAMICS
DEBUG_STATS_RL:                EtaN (DYNAMICS)  min= -1.03761401665897E+00
DEBUG_STATS_RL:                EtaN (DYNAMICS)  max=  3.21252918469015E+00
DEBUG_STATS_RL:                EtaN (DYNAMICS) mean=  3.49743746944144E-02
DEBUG_STATS_RL:                EtaN (DYNAMICS) S.D.=  1.10030379396960E-01
DEBUG_STATS_RL:                Uvel (DYNAMICS)  min= -4.32734778850295E-01
DEBUG_STATS_RL:                Uvel (DYNAMICS)  max=  4.04134544843473E-01
DEBUG_STATS_RL:                Uvel (DYNAMICS) mean= -7.17993397480233E-04
DEBUG_STATS_RL:                Uvel (DYNAMICS) S.D.=  1.86402152630925E-02
DEBUG_STATS_RL:                Vvel (DYNAMICS)  min= -5.03160822486676E-01
DEBUG_STATS_RL:                Vvel (DYNAMICS)  max=  5.18388745024079E-01
DEBUG_STATS_RL:                Vvel (DYNAMICS) mean= -5.76300955064226E-04
DEBUG_STATS_RL:                Vvel (DYNAMICS) S.D.=  2.03837426037647E-02
DEBUG_STATS_RL:                Wvel (DYNAMICS)  min= -2.31718176033164E-04
DEBUG_STATS_RL:                Wvel (DYNAMICS)  max=  1.61894549534405E-04
DEBUG_STATS_RL:                Wvel (DYNAMICS) mean= -3.92359406629763E-07
DEBUG_STATS_RL:                Wvel (DYNAMICS) S.D.=  7.69095347411851E-06
DEBUG_STATS_RL:               Theta (DYNAMICS)  min=  1.61780322070293E+01
DEBUG_STATS_RL:               Theta (DYNAMICS)  max=  2.28437329482014E+01
DEBUG_STATS_RL:               Theta (DYNAMICS) mean=  2.00013965290660E+01
DEBUG_STATS_RL:               Theta (DYNAMICS) S.D.=  8.18275748583780E-02
DEBUG_STATS_RL:                Salt (DYNAMICS)  min=  2.53265672327551E+01
DEBUG_STATS_RL:                Salt (DYNAMICS)  max=  3.51510741267165E+01
DEBUG_STATS_RL:                Salt (DYNAMICS) mean=  3.49974922116797E+01
DEBUG_STATS_RL:                Salt (DYNAMICS) S.D.=  1.10015235184819E-01
DEBUG_STATS_RL:                  Gu (DYNAMICS)  min= -4.10854842363467E-01
DEBUG_STATS_RL:                  Gu (DYNAMICS)  max=  3.80052227053020E-01
DEBUG_STATS_RL:                  Gu (DYNAMICS) mean= -6.97360763691947E-04
DEBUG_STATS_RL:                  Gu (DYNAMICS) S.D.=  1.83157429638763E-02
DEBUG_STATS_RL:                  Gv (DYNAMICS)  min= -4.73642646423726E-01
DEBUG_STATS_RL:                  Gv (DYNAMICS)  max=  5.21484594993015E-01
DEBUG_STATS_RL:                  Gv (DYNAMICS) mean= -5.82985578398072E-04
DEBUG_STATS_RL:                  Gv (DYNAMICS) S.D.=  2.01563062917957E-02
DEBUG_STATS_RL:               GuNm1 (DYNAMICS)  min= -2.68693373777888E-05
DEBUG_STATS_RL:               GuNm1 (DYNAMICS)  max=  3.62575897244847E-05
DEBUG_STATS_RL:               GuNm1 (DYNAMICS) mean=  2.03628033876220E-08
DEBUG_STATS_RL:               GuNm1 (DYNAMICS) S.D.=  1.26692414511391E-06
DEBUG_STATS_RL:               GvNm1 (DYNAMICS)  min= -3.50573181277002E-05
DEBUG_STATS_RL:               GvNm1 (DYNAMICS)  max=  3.32559410673095E-05
DEBUG_STATS_RL:               GvNm1 (DYNAMICS) mean= -7.43914628044717E-09
DEBUG_STATS_RL:               GvNm1 (DYNAMICS) S.D.=  1.37287402680471E-06
DEBUG_STATS_RL:               GtNm1 (DYNAMICS)  min= -4.89232990632229E-06
DEBUG_STATS_RL:               GtNm1 (DYNAMICS)  max=  4.61382148947808E-06
DEBUG_STATS_RL:               GtNm1 (DYNAMICS) mean=  5.48186659558391E-10
DEBUG_STATS_RL:               GtNm1 (DYNAMICS) S.D.=  6.59619512847992E-08
DEBUG_STATS_RL:               GsNm1 (DYNAMICS)  min= -1.65209098018571E-05
DEBUG_STATS_RL:               GsNm1 (DYNAMICS)  max=  1.99654532370694E-06
DEBUG_STATS_RL:               GsNm1 (DYNAMICS) mean= -4.43961430748894E-09
DEBUG_STATS_RL:               GsNm1 (DYNAMICS) S.D.=  1.90945677001607E-07
(PID.TID 0000.0001) DEBUG_MSG: LEAVING S/R DYNAMICS
DEBUG_STATS_RL:    cg2d_b (SOLVE_FOR_PRESSURE)  min= -3.31399165851414E+05
DEBUG_STATS_RL:    cg2d_b (SOLVE_FOR_PRESSURE)  max=  1.08543932496346E+05
DEBUG_STATS_RL:    cg2d_b (SOLVE_FOR_PRESSURE) mean= -3.48091387781533E+03
DEBUG_STATS_RL:    cg2d_b (SOLVE_FOR_PRESSURE) S.D.=  1.03630529151350E+04
 cg2d: Sum(rhs),rhsMax =  -4.64263067784609E+01  6.34846938152937E+01
(PID.TID 0000.0001)  cg2d: iter=     1 ; resid.=  2.62100289697383E-02
(PID.TID 0000.0001)  cg2d: iter=     2 ; resid.=  3.84426007630347E-03
(PID.TID 0000.0001)  cg2d: iter=     3 ; resid.=  1.02473567419304E-03
(PID.TID 0000.0001)  cg2d: iter=     4 ; resid.=  3.45954649687209E-04
(PID.TID 0000.0001)  cg2d: iter=     5 ; resid.=  9.16449946233274E-05
(PID.TID 0000.0001)  cg2d: iter=     6 ; resid.=  2.05536790995413E-05
(PID.TID 0000.0001)  cg2d: iter=     7 ; resid.=  4.21895012899661E-06
(PID.TID 0000.0001)  cg2d: iter=     8 ; resid.=  1.03962159435027E-06
(PID.TID 0000.0001)  cg2d: iter=     9 ; resid.=  2.80781749220510E-07
(PID.TID 0000.0001)  cg2d: iter=    10 ; resid.=  7.20607764132474E-08
DEBUG_STATS_RL:    cg2d_x (SOLVE_FOR_PRESSURE)  min= -9.26287754818146E+00
DEBUG_STATS_RL:    cg2d_x (SOLVE_FOR_PRESSURE)  max=  2.97744663711689E+01
DEBUG_STATS_RL:    cg2d_x (SOLVE_FOR_PRESSURE) mean=  3.48040251081011E-01
DEBUG_STATS_RL:    cg2d_x (SOLVE_FOR_PRESSURE) S.D.=  1.05721003827874E+00
(PID.TID 0000.0001)      cg2d_init_res =   1.61250588729815E-01
(PID.TID 0000.0001)      cg2d_iters(min,last) =      -1      10
(PID.TID 0000.0001)      cg2d_last_res =   7.20607764132474E-08
(PID.TID 0000.0001) DEBUG_MSG: CALLING S/R UPDATE_ETAH
(PID.TID 0000.0001) DEBUG_MSG: ENTERED S/R CALC_R_STAR
(PID.TID 0000.0001) DEBUG_MSG: LEAVING S/R CALC_R_STAR
(PID.TID 0000.0001) DEBUG_MSG: CALLING S/R DO_STAGGER_FIELDS_EXCH.
(PID.TID 0000.0001) DEBUG_MSG: CALLING S/R THERMODYNAMICS
(PID.TID 0000.0001) DEBUG_MSG: ENTERED S/R THERMODYNAMICS
(PID.TID 0000.0001) DEBUG_MSG: CALLING S/R TEMP_INTEGRATE
(PID.TID 0000.0001) DEBUG_MSG: CALLING S/R SALT_INTEGRATE
DEBUG_STATS_RL:          Uvel (THERMODYNAMICS)  min= -4.24719182643044E-01
DEBUG_STATS_RL:          Uvel (THERMODYNAMICS)  max=  3.90436809471799E-01
DEBUG_STATS_RL:          Uvel (THERMODYNAMICS) mean= -6.95285324274607E-04
DEBUG_STATS_RL:          Uvel (THERMODYNAMICS) S.D.=  1.84223147473426E-02
DEBUG_STATS_RL:          Vvel (THERMODYNAMICS)  min= -5.29035116324862E-01
DEBUG_STATS_RL:          Vvel (THERMODYNAMICS)  max=  5.50364616816912E-01
DEBUG_STATS_RL:          Vvel (THERMODYNAMICS) mean= -5.60114078747855E-04
DEBUG_STATS_RL:          Vvel (THERMODYNAMICS) S.D.=  2.03007878418281E-02
DEBUG_STATS_RL:          Wvel (THERMODYNAMICS)  min= -2.36167430824366E-04
DEBUG_STATS_RL:          Wvel (THERMODYNAMICS)  max=  1.55913413163181E-04
DEBUG_STATS_RL:          Wvel (THERMODYNAMICS) mean= -4.03536969639547E-07
DEBUG_STATS_RL:          Wvel (THERMODYNAMICS) S.D.=  7.69923480855455E-06
DEBUG_STATS_RL:         Theta (THERMODYNAMICS)  min=  1.61752105957312E+01
DEBUG_STATS_RL:         Theta (THERMODYNAMICS)  max=  2.28827305420304E+01
DEBUG_STATS_RL:         Theta (THERMODYNAMICS) mean=  2.00014983378531E+01
DEBUG_STATS_RL:         Theta (THERMODYNAMICS) S.D.=  8.24364239345735E-02
DEBUG_STATS_RL:          Salt (THERMODYNAMICS)  min=  2.52368502760885E+01
DEBUG_STATS_RL:          Salt (THERMODYNAMICS)  max=  3.51510707977847E+01
DEBUG_STATS_RL:          Salt (THERMODYNAMICS) mean=  3.49974638471355E+01
DEBUG_STATS_RL:          Salt (THERMODYNAMICS) S.D.=  1.11078710780080E-01
DEBUG_STATS_RL:         GtNm1 (THERMODYNAMICS)  min= -5.78403572172767E-06
DEBUG_STATS_RL:         GtNm1 (THERMODYNAMICS)  max=  4.62179878478714E-06
DEBUG_STATS_RL:         GtNm1 (THERMODYNAMICS) mean=  4.59936802645898E-10
DEBUG_STATS_RL:         GtNm1 (THERMODYNAMICS) S.D.=  6.86750902299374E-08
DEBUG_STATS_RL:         GsNm1 (THERMODYNAMICS)  min= -1.65117641929967E-05
DEBUG_STATS_RL:         GsNm1 (THERMODYNAMICS)  max=  2.03336412438707E-06
DEBUG_STATS_RL:         GsNm1 (THERMODYNAMICS) mean= -4.44587134734859E-09
DEBUG_STATS_RL:         GsNm1 (THERMODYNAMICS) S.D.=  1.90519535771501E-07
(PID.TID 0000.0001) DEBUG_MSG: LEAVING S/R THERMODYNAMICS
(PID.TID 0000.0001) // =======================================================
(PID.TID 0000.0001) // Begin MONITOR dynamic field statistics
(PID.TID 0000.0001) // =======================================================
(PID.TID 0000.0001) %MON time_tsnumber                =                    52
(PID.TID 0000.0001) %MON time_secondsf                =   4.6800000000000E+04
(PID.TID 0000.0001) %MON dynstat_eta_max              =   3.0351137968812E+00
(PID.TID 0000.0001) %MON dynstat_eta_min              =  -9.4422808044025E-01
(PID.TID 0000.0001) %MON dynstat_eta_mean             =   3.4247930965264E-02
(PID.TID 0000.0001) %MON dynstat_eta_sd               =   1.0161599967428E-01
(PID.TID 0000.0001) %MON dynstat_eta_del2             =   2.2295720335912E-03
(PID.TID 0000.0001) %MON dynstat_uvel_max             =   3.9043680947180E-01
(PID.TID 0000.0001) %MON dynstat_uvel_min             =  -4.2471918264304E-01
(PID.TID 0000.0001) %MON dynstat_uvel_mean            =  -1.4831045331314E-04
(PID.TID 0000.0001) %MON dynstat_uvel_sd              =   6.2250588144978E-03
(PID.TID 0000.0001) %MON dynstat_uvel_del2            =   1.0452268672886E-04
(PID.TID 0000.0001) %MON dynstat_vvel_max             =   5.5036461681691E-01
(PID.TID 0000.0001) %MON dynstat_vvel_min             =  -5.2903511632486E-01
(PID.TID 0000.0001) %MON dynstat_vvel_mean            =   7.1401893702308E-04
(PID.TID 0000.0001) %MON dynstat_vvel_sd              =   6.7705892348659E-03
(PID.TID 0000.0001) %MON dynstat_vvel_del2            =   9.9575454437877E-05
(PID.TID 0000.0001) %MON dynstat_wvel_max             =   1.5591341316318E-04
(PID.TID 0000.0001) %MON dynstat_wvel_min             =  -2.3616743082437E-04
(PID.TID 0000.0001) %MON dynstat_wvel_mean            =  -3.6524052069934E-07
(PID.TID 0000.0001) %MON dynstat_wvel_sd              =   7.2751757456258E-06
(PID.TID 0000.0001) %MON dynstat_wvel_del2            =   7.7836906387601E-08
(PID.TID 0000.0001) %MON dynstat_theta_max            =   2.2882730542030E+01
(PID.TID 0000.0001) %MON dynstat_theta_min            =   1.6175210595731E+01
(PID.TID 0000.0001) %MON dynstat_theta_mean           =   1.9997890218196E+01
(PID.TID 0000.0001) %MON dynstat_theta_sd             =   2.7463960521246E-02
(PID.TID 0000.0001) %MON dynstat_theta_del2           =   4.8958944820773E-04
(PID.TID 0000.0001) %MON dynstat_salt_max             =   3.5151070797785E+01
(PID.TID 0000.0001) %MON dynstat_salt_min             =   2.5236850276088E+01
(PID.TID 0000.0001) %MON dynstat_salt_mean            =   3.4999667398914E+01
(PID.TID 0000.0001) %MON dynstat_salt_sd              =   3.4288876507754E-02
(PID.TID 0000.0001) %MON dynstat_salt_del2            =   1.1903648415301E-03
(PID.TID 0000.0001) %MON dynstat_sst_max              =   2.2882730542030E+01
(PID.TID 0000.0001) %MON dynstat_sst_min              =   1.6175210595731E+01
(PID.TID 0000.0001) %MON dynstat_sst_mean             =   2.0115728905561E+01
(PID.TID 0000.0001) %MON dynstat_sst_sd               =   2.5180793617833E-01
(PID.TID 0000.0001) %MON dynstat_sst_del2             =   5.5666943511948E-03
(PID.TID 0000.0001) %MON dynstat_sss_max              =   3.5151070797785E+01
(PID.TID 0000.0001) %MON dynstat_sss_min              =   2.5236850276088E+01
(PID.TID 0000.0001) %MON dynstat_sss_mean             =   3.4969980942778E+01
(PID.TID 0000.0001) %MON dynstat_sss_sd               =   4.1363497229950E-01
(PID.TID 0000.0001) %MON dynstat_sss_del2             =   1.6119549814028E-02
(PID.TID 0000.0001) %MON forcing_qnet_max             =   3.3856281738281E+03
(PID.TID 0000.0001) %MON forcing_qnet_min             =  -4.0164583692099E+03
(PID.TID 0000.0001) %MON forcing_qnet_mean            =  -8.7515255084404E+00
(PID.TID 0000.0001) %MON forcing_qnet_sd              =   5.0753227254571E+02
(PID.TID 0000.0001) %MON forcing_qnet_del2            =   7.4039729013516E+00
(PID.TID 0000.0001) %MON forcing_qsw_max              =   0.0000000000000E+00
(PID.TID 0000.0001) %MON forcing_qsw_min              =  -1.0308635387669E+02
(PID.TID 0000.0001) %MON forcing_qsw_mean             =  -1.3984610576231E+01
(PID.TID 0000.0001) %MON forcing_qsw_sd               =   2.3459096855376E+01
(PID.TID 0000.0001) %MON forcing_qsw_del2             =   1.8980968491674E-01
(PID.TID 0000.0001) %MON forcing_empmr_max            =   6.5405024215579E-03
(PID.TID 0000.0001) %MON forcing_empmr_min            =  -9.4018802046776E-02
(PID.TID 0000.0001) %MON forcing_empmr_mean           =  -4.2315817772541E-04
(PID.TID 0000.0001) %MON forcing_empmr_sd             =   4.1627286077776E-03
(PID.TID 0000.0001) %MON forcing_empmr_del2           =   1.6332065764634E-04
(PID.TID 0000.0001) %MON forcing_fu_max               =   6.8188853894328E-01
(PID.TID 0000.0001) %MON forcing_fu_min               =  -5.9622584762682E-01
(PID.TID 0000.0001) %MON forcing_fu_mean              =  -1.3123268721916E-03
(PID.TID 0000.0001) %MON forcing_fu_sd                =   9.0095699745422E-02
(PID.TID 0000.0001) %MON forcing_fu_del2              =   7.6420545734702E-04
(PID.TID 0000.0001) %MON forcing_fv_max               =   4.4001045112682E-01
(PID.TID 0000.0001) %MON forcing_fv_min               =  -4.1598308724009E-01
(PID.TID 0000.0001) %MON forcing_fv_mean              =  -6.2078101375629E-03
(PID.TID 0000.0001) %MON forcing_fv_sd                =   7.8283286240132E-02
(PID.TID 0000.0001) %MON forcing_fv_del2              =   6.4868248622235E-04
(PID.TID 0000.0001) %MON trAdv_CFL_u_max              =   1.2782727453618E-03
(PID.TID 0000.0001) %MON trAdv_CFL_v_max              =   1.7910362115041E-03
(PID.TID 0000.0001) %MON trAdv_CFL_w_max              =   3.0453147716931E-03
(PID.TID 0000.0001) %MON advcfl_uvel_max              =   1.2342378327997E-03
(PID.TID 0000.0001) %MON advcfl_vvel_max              =   1.6405918713611E-03
(PID.TID 0000.0001) %MON advcfl_wvel_max              =   6.5404384032540E-03
(PID.TID 0000.0001) %MON advcfl_W_hf_max              =   3.0453147716931E-03
(PID.TID 0000.0001) %MON pe_b_mean                    =   1.5318295210326E-05
(PID.TID 0000.0001) %MON ke_max                       =   1.2977265025972E-01
(PID.TID 0000.0001) %MON ke_mean                      =   3.9317760311210E-05
(PID.TID 0000.0001) %MON ke_vol                       =   1.3398147738335E+18
(PID.TID 0000.0001) %MON vort_r_min                   =  -3.0683221313313E-06
(PID.TID 0000.0001) %MON vort_r_max                   =   2.3831426607340E-06
(PID.TID 0000.0001) %MON vort_a_mean                  =  -2.0549865324846E-05
(PID.TID 0000.0001) %MON vort_a_sd                    =   7.5259420002902E-05
(PID.TID 0000.0001) %MON vort_p_mean                  =  -2.4783299088862E-05
(PID.TID 0000.0001) %MON vort_p_sd                    =   1.2810522737680E-04
(PID.TID 0000.0001) %MON surfExpan_theta_mean         =  -1.6967757398944E-07
(PID.TID 0000.0001) %MON surfExpan_salt_mean          =   1.5756584883935E-06
(PID.TID 0000.0001) // =======================================================
(PID.TID 0000.0001) // End MONITOR dynamic field statistics
(PID.TID 0000.0001) // =======================================================
(PID.TID 0000.0001) DEBUG_MSG: LEAVING S/R FORWARD_STEP
(PID.TID 0000.0001) DEBUG_MSG: ENTERED S/R FORWARD_STEP
(PID.TID 0000.0001) DEBUG_MSG: CALLING S/R LOAD_FIELDS_DRIVER
(PID.TID 0000.0001) DEBUG_MSG: ENTERED S/R LOAD_FIELDS_DRIVER
(PID.TID 0000.0001) DEBUG_MSG: CALLING S/R EXTERNAL_FIELDS_LOAD
(PID.TID 0000.0001) DEBUG_MSG: LEAVING S/R LOAD_FIELDS_DRIVER
(PID.TID 0000.0001) DEBUG_MSG: CALLING S/R DO_ATMOSPHERIC_PHYS
(PID.TID 0000.0001) DEBUG_MSG: ENTERED S/R DO_ATMOSPHERIC_PHYS
(PID.TID 0000.0001) DEBUG_MSG: LEAVING S/R DO_ATMOSPHERIC_PHYS
(PID.TID 0000.0001) DEBUG_MSG: CALLING S/R DO_OCEANIC_PHYS
(PID.TID 0000.0001) DEBUG_MSG: ENTERED S/R DO_OCEANIC_PHYS
(PID.TID 0000.0001) DEBUG_MSG: CALLING S/R EXTERNAL_FORCING_SURF
(PID.TID 0000.0001) DEBUG_MSG: CALLING S/R FIND_RHO_2D (xNr)
(PID.TID 0000.0001) DEBUG_MSG:                  ENTERING UPWARD K LOOP (bi=   1, bj=   1)
(PID.TID 0000.0001) DEBUG_MSG: CALLING S/R GRAD_SIGMA
(PID.TID 0000.0001) DEBUG_MSG: CALLING S/R CALC_IVDC
(PID.TID 0000.0001) DEBUG_MSG: CALLING S/R GRAD_SIGMA
(PID.TID 0000.0001) DEBUG_MSG: CALLING S/R CALC_IVDC
(PID.TID 0000.0001) DEBUG_MSG: CALLING S/R GRAD_SIGMA
(PID.TID 0000.0001) DEBUG_MSG: CALLING S/R CALC_IVDC
(PID.TID 0000.0001) DEBUG_MSG: CALLING S/R GRAD_SIGMA
(PID.TID 0000.0001) DEBUG_MSG: CALLING S/R CALC_IVDC
(PID.TID 0000.0001) DEBUG_MSG: CALLING S/R GRAD_SIGMA
(PID.TID 0000.0001) DEBUG_MSG: CALLING S/R CALC_IVDC
(PID.TID 0000.0001) DEBUG_MSG: CALLING S/R GRAD_SIGMA
(PID.TID 0000.0001) DEBUG_MSG: CALLING S/R CALC_IVDC
(PID.TID 0000.0001) DEBUG_MSG: CALLING S/R GRAD_SIGMA
(PID.TID 0000.0001) DEBUG_MSG: CALLING S/R CALC_IVDC
(PID.TID 0000.0001) DEBUG_MSG: CALLING S/R GRAD_SIGMA
(PID.TID 0000.0001) DEBUG_MSG: CALLING S/R CALC_IVDC
(PID.TID 0000.0001) DEBUG_MSG: CALLING S/R GRAD_SIGMA
(PID.TID 0000.0001) DEBUG_MSG: CALLING S/R CALC_IVDC
(PID.TID 0000.0001) DEBUG_MSG: CALLING S/R GRAD_SIGMA
(PID.TID 0000.0001) DEBUG_MSG: CALLING S/R CALC_IVDC
(PID.TID 0000.0001) DEBUG_MSG: CALLING S/R GRAD_SIGMA
(PID.TID 0000.0001) DEBUG_MSG: CALLING S/R CALC_IVDC
(PID.TID 0000.0001) DEBUG_MSG: CALLING S/R GRAD_SIGMA
(PID.TID 0000.0001) DEBUG_MSG: CALLING S/R CALC_IVDC
(PID.TID 0000.0001) DEBUG_MSG: CALLING S/R GRAD_SIGMA
(PID.TID 0000.0001) DEBUG_MSG: CALLING S/R CALC_IVDC
(PID.TID 0000.0001) DEBUG_MSG: CALLING S/R GRAD_SIGMA
(PID.TID 0000.0001) DEBUG_MSG: CALLING S/R CALC_IVDC
(PID.TID 0000.0001) DEBUG_MSG: CALLING S/R GRAD_SIGMA
(PID.TID 0000.0001) DEBUG_MSG: CALLING S/R CALC_IVDC
(PID.TID 0000.0001) DEBUG_MSG: CALLING S/R GRAD_SIGMA
(PID.TID 0000.0001) DEBUG_MSG: CALLING S/R GMREDI_CALC_TENSOR
(PID.TID 0000.0001) DEBUG_MSG: LEAVING S/R DO_OCEANIC_PHYS
(PID.TID 0000.0001) DEBUG_MSG: CALLING S/R DYNAMICS
(PID.TID 0000.0001) DEBUG_MSG: ENTERED S/R DYNAMICS
DEBUG_STATS_RL:                EtaN (DYNAMICS)  min= -9.44228080440254E-01
DEBUG_STATS_RL:                EtaN (DYNAMICS)  max=  3.03511379688116E+00
DEBUG_STATS_RL:                EtaN (DYNAMICS) mean=  3.54781083861875E-02
DEBUG_STATS_RL:                EtaN (DYNAMICS) S.D.=  1.07768607429121E-01
DEBUG_STATS_RL:                Uvel (DYNAMICS)  min= -4.24719182643044E-01
DEBUG_STATS_RL:                Uvel (DYNAMICS)  max=  3.90436809471799E-01
DEBUG_STATS_RL:                Uvel (DYNAMICS) mean= -6.95285324274607E-04
DEBUG_STATS_RL:                Uvel (DYNAMICS) S.D.=  1.84223147473426E-02
DEBUG_STATS_RL:                Vvel (DYNAMICS)  min= -5.29035116324862E-01
DEBUG_STATS_RL:                Vvel (DYNAMICS)  max=  5.50364616816912E-01
DEBUG_STATS_RL:                Vvel (DYNAMICS) mean= -5.60114078747855E-04
DEBUG_STATS_RL:                Vvel (DYNAMICS) S.D.=  2.03007878418281E-02
DEBUG_STATS_RL:                Wvel (DYNAMICS)  min= -2.36167430824366E-04
DEBUG_STATS_RL:                Wvel (DYNAMICS)  max=  1.55913413163181E-04
DEBUG_STATS_RL:                Wvel (DYNAMICS) mean= -4.03536969639547E-07
DEBUG_STATS_RL:                Wvel (DYNAMICS) S.D.=  7.69923480855455E-06
DEBUG_STATS_RL:               Theta (DYNAMICS)  min=  1.61752105957312E+01
DEBUG_STATS_RL:               Theta (DYNAMICS)  max=  2.28827305420304E+01
DEBUG_STATS_RL:               Theta (DYNAMICS) mean=  2.00014983378531E+01
DEBUG_STATS_RL:               Theta (DYNAMICS) S.D.=  8.24364239345735E-02
DEBUG_STATS_RL:                Salt (DYNAMICS)  min=  2.52368502760885E+01
DEBUG_STATS_RL:                Salt (DYNAMICS)  max=  3.51510707977847E+01
DEBUG_STATS_RL:                Salt (DYNAMICS) mean=  3.49974638471355E+01
DEBUG_STATS_RL:                Salt (DYNAMICS) S.D.=  1.11078710780080E-01
DEBUG_STATS_RL:                  Gu (DYNAMICS)  min= -4.34003836866642E-01
DEBUG_STATS_RL:                  Gu (DYNAMICS)  max=  3.66734358475771E-01
DEBUG_STATS_RL:                  Gu (DYNAMICS) mean= -6.72464505029654E-04
DEBUG_STATS_RL:                  Gu (DYNAMICS) S.D.=  1.81071677635570E-02
DEBUG_STATS_RL:                  Gv (DYNAMICS)  min= -5.01485558250299E-01
DEBUG_STATS_RL:                  Gv (DYNAMICS)  max=  5.51120416801508E-01
DEBUG_STATS_RL:                  Gv (DYNAMICS) mean= -5.68048237699753E-04
DEBUG_STATS_RL:                  Gv (DYNAMICS) S.D.=  2.00814001629627E-02
DEBUG_STATS_RL:               GuNm1 (DYNAMICS)  min= -2.65400535354392E-05
DEBUG_STATS_RL:               GuNm1 (DYNAMICS)  max=  3.98645090585635E-05
DEBUG_STATS_RL:               GuNm1 (DYNAMICS) mean=  2.31354199866414E-08
DEBUG_STATS_RL:               GuNm1 (DYNAMICS) S.D.=  1.28536037849771E-06
DEBUG_STATS_RL:               GvNm1 (DYNAMICS)  min= -3.34950852123745E-05
DEBUG_STATS_RL:               GvNm1 (DYNAMICS)  max=  3.11673443952351E-05
DEBUG_STATS_RL:               GvNm1 (DYNAMICS) mean= -8.78437843249643E-09
DEBUG_STATS_RL:               GvNm1 (DYNAMICS) S.D.=  1.34950399828798E-06
DEBUG_STATS_RL:               GtNm1 (DYNAMICS)  min= -5.78403572172767E-06
DEBUG_STATS_RL:               GtNm1 (DYNAMICS)  max=  4.62179878478714E-06
DEBUG_STATS_RL:               GtNm1 (DYNAMICS) mean=  4.59936802645898E-10
DEBUG_STATS_RL:               GtNm1 (DYNAMICS) S.D.=  6.86750902299374E-08
DEBUG_STATS_RL:               GsNm1 (DYNAMICS)  min= -1.65117641929967E-05
DEBUG_STATS_RL:               GsNm1 (DYNAMICS)  max=  2.03336412438707E-06
DEBUG_STATS_RL:               GsNm1 (DYNAMICS) mean= -4.44587134734859E-09
DEBUG_STATS_RL:               GsNm1 (DYNAMICS) S.D.=  1.90519535771501E-07
(PID.TID 0000.0001) DEBUG_MSG: LEAVING S/R DYNAMICS
DEBUG_STATS_RL:    cg2d_b (SOLVE_FOR_PRESSURE)  min= -3.21549657334627E+05
DEBUG_STATS_RL:    cg2d_b (SOLVE_FOR_PRESSURE)  max=  9.60311567236199E+04
DEBUG_STATS_RL:    cg2d_b (SOLVE_FOR_PRESSURE) mean= -3.51809636872992E+03
DEBUG_STATS_RL:    cg2d_b (SOLVE_FOR_PRESSURE) S.D.=  1.00579965364273E+04
 cg2d: Sum(rhs),rhsMax =  -4.83595164699673E+01  6.15978663973283E+01
(PID.TID 0000.0001)  cg2d: iter=     1 ; resid.=  2.67964669713837E-02
(PID.TID 0000.0001)  cg2d: iter=     2 ; resid.=  3.88430293593405E-03
(PID.TID 0000.0001)  cg2d: iter=     3 ; resid.=  1.06366662050823E-03
(PID.TID 0000.0001)  cg2d: iter=     4 ; resid.=  3.61610362541335E-04
(PID.TID 0000.0001)  cg2d: iter=     5 ; resid.=  9.36480646260459E-05
(PID.TID 0000.0001)  cg2d: iter=     6 ; resid.=  2.08967803309308E-05
(PID.TID 0000.0001)  cg2d: iter=     7 ; resid.=  4.15596074041172E-06
(PID.TID 0000.0001)  cg2d: iter=     8 ; resid.=  1.00748916227217E-06
(PID.TID 0000.0001)  cg2d: iter=     9 ; resid.=  2.69045667759250E-07
(PID.TID 0000.0001)  cg2d: iter=    10 ; resid.=  6.92147887333101E-08
DEBUG_STATS_RL:    cg2d_x (SOLVE_FOR_PRESSURE)  min= -8.19475678115657E+00
DEBUG_STATS_RL:    cg2d_x (SOLVE_FOR_PRESSURE)  max=  2.76127509085868E+01
DEBUG_STATS_RL:    cg2d_x (SOLVE_FOR_PRESSURE) mean=  3.52847985165779E-01
DEBUG_STATS_RL:    cg2d_x (SOLVE_FOR_PRESSURE) S.D.=  1.03079927182477E+00
(PID.TID 0000.0001)      cg2d_init_res =   1.71168765613592E-01
(PID.TID 0000.0001)      cg2d_iters(min,last) =      -1      10
(PID.TID 0000.0001)      cg2d_last_res =   6.92147887333101E-08
(PID.TID 0000.0001) DEBUG_MSG: CALLING S/R UPDATE_ETAH
(PID.TID 0000.0001) DEBUG_MSG: ENTERED S/R CALC_R_STAR
(PID.TID 0000.0001) DEBUG_MSG: LEAVING S/R CALC_R_STAR
(PID.TID 0000.0001) DEBUG_MSG: CALLING S/R DO_STAGGER_FIELDS_EXCH.
(PID.TID 0000.0001) DEBUG_MSG: CALLING S/R THERMODYNAMICS
(PID.TID 0000.0001) DEBUG_MSG: ENTERED S/R THERMODYNAMICS
(PID.TID 0000.0001) DEBUG_MSG: CALLING S/R TEMP_INTEGRATE
(PID.TID 0000.0001) DEBUG_MSG: CALLING S/R SALT_INTEGRATE
DEBUG_STATS_RL:          Uvel (THERMODYNAMICS)  min= -4.47567496028232E-01
DEBUG_STATS_RL:          Uvel (THERMODYNAMICS)  max=  3.75402893444313E-01
DEBUG_STATS_RL:          Uvel (THERMODYNAMICS) mean= -6.70920299153736E-04
DEBUG_STATS_RL:          Uvel (THERMODYNAMICS) S.D.=  1.82487319623616E-02
DEBUG_STATS_RL:          Vvel (THERMODYNAMICS)  min= -5.52744413992857E-01
DEBUG_STATS_RL:          Vvel (THERMODYNAMICS)  max=  5.75928906974980E-01
DEBUG_STATS_RL:          Vvel (THERMODYNAMICS) mean= -5.45254576133287E-04
DEBUG_STATS_RL:          Vvel (THERMODYNAMICS) S.D.=  2.02557980639708E-02
DEBUG_STATS_RL:          Wvel (THERMODYNAMICS)  min= -2.39795107269891E-04
DEBUG_STATS_RL:          Wvel (THERMODYNAMICS)  max=  1.49877824458038E-04
DEBUG_STATS_RL:          Wvel (THERMODYNAMICS) mean= -4.12825930395728E-07
DEBUG_STATS_RL:          Wvel (THERMODYNAMICS) S.D.=  7.70459831851618E-06
DEBUG_STATS_RL:         Theta (THERMODYNAMICS)  min=  1.61717292363139E+01
DEBUG_STATS_RL:         Theta (THERMODYNAMICS)  max=  2.29212211381482E+01
DEBUG_STATS_RL:         Theta (THERMODYNAMICS) mean=  2.00015982927003E+01
DEBUG_STATS_RL:         Theta (THERMODYNAMICS) S.D.=  8.30377402057981E-02
DEBUG_STATS_RL:          Salt (THERMODYNAMICS)  min=  2.51492617215526E+01
DEBUG_STATS_RL:          Salt (THERMODYNAMICS)  max=  3.51510667752183E+01
DEBUG_STATS_RL:          Salt (THERMODYNAMICS) mean=  3.49974351895173E+01
DEBUG_STATS_RL:          Salt (THERMODYNAMICS) S.D.=  1.12118107438821E-01
DEBUG_STATS_RL:         GtNm1 (THERMODYNAMICS)  min= -6.59544680594414E-06
DEBUG_STATS_RL:         GtNm1 (THERMODYNAMICS)  max=  4.63031551497664E-06
DEBUG_STATS_RL:         GtNm1 (THERMODYNAMICS) mean=  3.86178952961243E-10
DEBUG_STATS_RL:         GtNm1 (THERMODYNAMICS) S.D.=  7.23164427029401E-08
DEBUG_STATS_RL:         GsNm1 (THERMODYNAMICS)  min= -1.64965481755948E-05
DEBUG_STATS_RL:         GsNm1 (THERMODYNAMICS)  max=  2.06676942193223E-06
DEBUG_STATS_RL:         GsNm1 (THERMODYNAMICS) mean= -4.45666502332793E-09
DEBUG_STATS_RL:         GsNm1 (THERMODYNAMICS) S.D.=  1.90183923880675E-07
(PID.TID 0000.0001) DEBUG_MSG: LEAVING S/R THERMODYNAMICS
(PID.TID 0000.0001) // =======================================================
(PID.TID 0000.0001) // Begin MONITOR dynamic field statistics
(PID.TID 0000.0001) // =======================================================
(PID.TID 0000.0001) %MON time_tsnumber                =                    53
(PID.TID 0000.0001) %MON time_secondsf                =   4.7700000000000E+04
(PID.TID 0000.0001) %MON dynstat_eta_max              =   2.8147554412406E+00
(PID.TID 0000.0001) %MON dynstat_eta_min              =  -8.3534726822648E-01
(PID.TID 0000.0001) %MON dynstat_eta_mean             =   3.4613761154305E-02
(PID.TID 0000.0001) %MON dynstat_eta_sd               =   9.8746886922239E-02
(PID.TID 0000.0001) %MON dynstat_eta_del2             =   2.1411988296205E-03
(PID.TID 0000.0001) %MON dynstat_uvel_max             =   3.7540289344431E-01
(PID.TID 0000.0001) %MON dynstat_uvel_min             =  -4.4756749602823E-01
(PID.TID 0000.0001) %MON dynstat_uvel_mean            =  -1.3877032811013E-04
(PID.TID 0000.0001) %MON dynstat_uvel_sd              =   6.1729939218794E-03
(PID.TID 0000.0001) %MON dynstat_uvel_del2            =   1.0586963326061E-04
(PID.TID 0000.0001) %MON dynstat_vvel_max             =   5.7592890697498E-01
(PID.TID 0000.0001) %MON dynstat_vvel_min             =  -5.5274441399286E-01
(PID.TID 0000.0001) %MON dynstat_vvel_mean            =   7.5354479909425E-04
(PID.TID 0000.0001) %MON dynstat_vvel_sd              =   6.7733885039075E-03
(PID.TID 0000.0001) %MON dynstat_vvel_del2            =   1.0147144825835E-04
(PID.TID 0000.0001) %MON dynstat_wvel_max             =   1.4987782445804E-04
(PID.TID 0000.0001) %MON dynstat_wvel_min             =  -2.3979510726989E-04
(PID.TID 0000.0001) %MON dynstat_wvel_mean            =  -3.7995919609869E-07
(PID.TID 0000.0001) %MON dynstat_wvel_sd              =   7.3022067459371E-06
(PID.TID 0000.0001) %MON dynstat_wvel_del2            =   7.8268273554626E-08
(PID.TID 0000.0001) %MON dynstat_theta_max            =   2.2921221138148E+01
(PID.TID 0000.0001) %MON dynstat_theta_min            =   1.6171729236314E+01
(PID.TID 0000.0001) %MON dynstat_theta_mean           =   1.9997890909762E+01
(PID.TID 0000.0001) %MON dynstat_theta_sd             =   2.7648729302179E-02
(PID.TID 0000.0001) %MON dynstat_theta_del2           =   4.9223283388249E-04
(PID.TID 0000.0001) %MON dynstat_salt_max             =   3.5151066775218E+01
(PID.TID 0000.0001) %MON dynstat_salt_min             =   2.5149261721553E+01
(PID.TID 0000.0001) %MON dynstat_salt_mean            =   3.4999663997908E+01
(PID.TID 0000.0001) %MON dynstat_salt_sd              =   3.4611036677792E-02
(PID.TID 0000.0001) %MON dynstat_salt_del2            =   1.2010782300442E-03
(PID.TID 0000.0001) %MON dynstat_sst_max              =   2.2921221138148E+01
(PID.TID 0000.0001) %MON dynstat_sst_min              =   1.6171729236314E+01
(PID.TID 0000.0001) %MON dynstat_sst_mean             =   2.0117255445088E+01
(PID.TID 0000.0001) %MON dynstat_sst_sd               =   2.5383194490395E-01
(PID.TID 0000.0001) %MON dynstat_sst_del2             =   5.6057122395684E-03
(PID.TID 0000.0001) %MON dynstat_sss_max              =   3.5151066775218E+01
(PID.TID 0000.0001) %MON dynstat_sss_min              =   2.5149261721553E+01
(PID.TID 0000.0001) %MON dynstat_sss_mean             =   3.4969619827983E+01
(PID.TID 0000.0001) %MON dynstat_sss_sd               =   4.1749575918777E-01
(PID.TID 0000.0001) %MON dynstat_sss_del2             =   1.6264167429154E-02
(PID.TID 0000.0001) %MON forcing_qnet_max             =   3.3382165527344E+03
(PID.TID 0000.0001) %MON forcing_qnet_min             =  -3.9574682617188E+03
(PID.TID 0000.0001) %MON forcing_qnet_mean            =  -1.0331982439985E+01
(PID.TID 0000.0001) %MON forcing_qnet_sd              =   5.0326394582653E+02
(PID.TID 0000.0001) %MON forcing_qnet_del2            =   7.0634311708148E+00
(PID.TID 0000.0001) %MON forcing_qsw_max              =   0.0000000000000E+00
(PID.TID 0000.0001) %MON forcing_qsw_min              =  -9.7792415807800E+01
(PID.TID 0000.0001) %MON forcing_qsw_mean             =  -1.4236029137527E+01
(PID.TID 0000.0001) %MON forcing_qsw_sd               =   2.3417576820367E+01
(PID.TID 0000.0001) %MON forcing_qsw_del2             =   1.9535213097973E-01
(PID.TID 0000.0001) %MON forcing_empmr_max            =   6.4730956219137E-03
(PID.TID 0000.0001) %MON forcing_empmr_min            =  -9.3050494790077E-02
(PID.TID 0000.0001) %MON forcing_empmr_mean           =  -4.2070471739802E-04
(PID.TID 0000.0001) %MON forcing_empmr_sd             =   4.1205049612140E-03
(PID.TID 0000.0001) %MON forcing_empmr_del2           =   1.6162120274219E-04
(PID.TID 0000.0001) %MON forcing_fu_max               =   6.8072868779555E-01
(PID.TID 0000.0001) %MON forcing_fu_min               =  -5.9942719555200E-01
(PID.TID 0000.0001) %MON forcing_fu_mean              =  -1.3152238108363E-03
(PID.TID 0000.0001) %MON forcing_fu_sd                =   8.9940200190074E-02
(PID.TID 0000.0001) %MON forcing_fu_del2              =   7.6278562511775E-04
(PID.TID 0000.0001) %MON forcing_fv_max               =   4.3736916911964E-01
(PID.TID 0000.0001) %MON forcing_fv_min               =  -4.1751136031427E-01
(PID.TID 0000.0001) %MON forcing_fv_mean              =  -6.3331216883674E-03
(PID.TID 0000.0001) %MON forcing_fv_sd                =   7.8140898061568E-02
(PID.TID 0000.0001) %MON forcing_fv_del2              =   6.4803429851272E-04
(PID.TID 0000.0001) %MON trAdv_CFL_u_max              =   1.3270362363315E-03
(PID.TID 0000.0001) %MON trAdv_CFL_v_max              =   1.8972046069102E-03
(PID.TID 0000.0001) %MON trAdv_CFL_w_max              =   3.2693721362470E-03
(PID.TID 0000.0001) %MON advcfl_uvel_max              =   1.3006352406591E-03
(PID.TID 0000.0001) %MON advcfl_vvel_max              =   1.8794661051877E-03
(PID.TID 0000.0001) %MON advcfl_wvel_max              =   6.4730778984402E-03
(PID.TID 0000.0001) %MON advcfl_W_hf_max              =   3.2693721362470E-03
(PID.TID 0000.0001) %MON pe_b_mean                    =   1.4586035773296E-05
(PID.TID 0000.0001) %MON ke_max                       =   1.3972013057535E-01
(PID.TID 0000.0001) %MON ke_mean                      =   3.9064502252719E-05
(PID.TID 0000.0001) %MON ke_vol                       =   1.3398149077306E+18
(PID.TID 0000.0001) %MON vort_r_min                   =  -3.2262414848224E-06
(PID.TID 0000.0001) %MON vort_r_max                   =   2.6003524679628E-06
(PID.TID 0000.0001) %MON vort_a_mean                  =  -2.0549865324846E-05
(PID.TID 0000.0001) %MON vort_a_sd                    =   7.5259429560181E-05
(PID.TID 0000.0001) %MON vort_p_mean                  =  -2.4783296126405E-05
(PID.TID 0000.0001) %MON vort_p_sd                    =   1.2810519719899E-04
(PID.TID 0000.0001) %MON surfExpan_theta_mean         =  -1.4162585570181E-07
(PID.TID 0000.0001) %MON surfExpan_salt_mean          =   1.5783187201695E-06
(PID.TID 0000.0001) // =======================================================
(PID.TID 0000.0001) // End MONITOR dynamic field statistics
(PID.TID 0000.0001) // =======================================================
(PID.TID 0000.0001) DEBUG_MSG: LEAVING S/R FORWARD_STEP
(PID.TID 0000.0001) DEBUG_MSG: ENTERED S/R FORWARD_STEP
(PID.TID 0000.0001) DEBUG_MSG: CALLING S/R LOAD_FIELDS_DRIVER
(PID.TID 0000.0001) DEBUG_MSG: ENTERED S/R LOAD_FIELDS_DRIVER
(PID.TID 0000.0001) DEBUG_MSG: CALLING S/R EXTERNAL_FIELDS_LOAD
(PID.TID 0000.0001) DEBUG_MSG: LEAVING S/R LOAD_FIELDS_DRIVER
(PID.TID 0000.0001) DEBUG_MSG: CALLING S/R DO_ATMOSPHERIC_PHYS
(PID.TID 0000.0001) DEBUG_MSG: ENTERED S/R DO_ATMOSPHERIC_PHYS
(PID.TID 0000.0001) DEBUG_MSG: LEAVING S/R DO_ATMOSPHERIC_PHYS
(PID.TID 0000.0001) DEBUG_MSG: CALLING S/R DO_OCEANIC_PHYS
(PID.TID 0000.0001) DEBUG_MSG: ENTERED S/R DO_OCEANIC_PHYS
(PID.TID 0000.0001) DEBUG_MSG: CALLING S/R EXTERNAL_FORCING_SURF
(PID.TID 0000.0001) DEBUG_MSG: CALLING S/R FIND_RHO_2D (xNr)
(PID.TID 0000.0001) DEBUG_MSG:                  ENTERING UPWARD K LOOP (bi=   1, bj=   1)
(PID.TID 0000.0001) DEBUG_MSG: CALLING S/R GRAD_SIGMA
(PID.TID 0000.0001) DEBUG_MSG: CALLING S/R CALC_IVDC
(PID.TID 0000.0001) DEBUG_MSG: CALLING S/R GRAD_SIGMA
(PID.TID 0000.0001) DEBUG_MSG: CALLING S/R CALC_IVDC
(PID.TID 0000.0001) DEBUG_MSG: CALLING S/R GRAD_SIGMA
(PID.TID 0000.0001) DEBUG_MSG: CALLING S/R CALC_IVDC
(PID.TID 0000.0001) DEBUG_MSG: CALLING S/R GRAD_SIGMA
(PID.TID 0000.0001) DEBUG_MSG: CALLING S/R CALC_IVDC
(PID.TID 0000.0001) DEBUG_MSG: CALLING S/R GRAD_SIGMA
(PID.TID 0000.0001) DEBUG_MSG: CALLING S/R CALC_IVDC
(PID.TID 0000.0001) DEBUG_MSG: CALLING S/R GRAD_SIGMA
(PID.TID 0000.0001) DEBUG_MSG: CALLING S/R CALC_IVDC
(PID.TID 0000.0001) DEBUG_MSG: CALLING S/R GRAD_SIGMA
(PID.TID 0000.0001) DEBUG_MSG: CALLING S/R CALC_IVDC
(PID.TID 0000.0001) DEBUG_MSG: CALLING S/R GRAD_SIGMA
(PID.TID 0000.0001) DEBUG_MSG: CALLING S/R CALC_IVDC
(PID.TID 0000.0001) DEBUG_MSG: CALLING S/R GRAD_SIGMA
(PID.TID 0000.0001) DEBUG_MSG: CALLING S/R CALC_IVDC
(PID.TID 0000.0001) DEBUG_MSG: CALLING S/R GRAD_SIGMA
(PID.TID 0000.0001) DEBUG_MSG: CALLING S/R CALC_IVDC
(PID.TID 0000.0001) DEBUG_MSG: CALLING S/R GRAD_SIGMA
(PID.TID 0000.0001) DEBUG_MSG: CALLING S/R CALC_IVDC
(PID.TID 0000.0001) DEBUG_MSG: CALLING S/R GRAD_SIGMA
(PID.TID 0000.0001) DEBUG_MSG: CALLING S/R CALC_IVDC
(PID.TID 0000.0001) DEBUG_MSG: CALLING S/R GRAD_SIGMA
(PID.TID 0000.0001) DEBUG_MSG: CALLING S/R CALC_IVDC
(PID.TID 0000.0001) DEBUG_MSG: CALLING S/R GRAD_SIGMA
(PID.TID 0000.0001) DEBUG_MSG: CALLING S/R CALC_IVDC
(PID.TID 0000.0001) DEBUG_MSG: CALLING S/R GRAD_SIGMA
(PID.TID 0000.0001) DEBUG_MSG: CALLING S/R CALC_IVDC
(PID.TID 0000.0001) DEBUG_MSG: CALLING S/R GRAD_SIGMA
(PID.TID 0000.0001) DEBUG_MSG: CALLING S/R GMREDI_CALC_TENSOR
(PID.TID 0000.0001) DEBUG_MSG: LEAVING S/R DO_OCEANIC_PHYS
(PID.TID 0000.0001) DEBUG_MSG: CALLING S/R DYNAMICS
(PID.TID 0000.0001) DEBUG_MSG: ENTERED S/R DYNAMICS
DEBUG_STATS_RL:                EtaN (DYNAMICS)  min= -8.35347268226482E-01
DEBUG_STATS_RL:                EtaN (DYNAMICS)  max=  2.81475544124059E+00
DEBUG_STATS_RL:                EtaN (DYNAMICS) mean=  3.59681936089297E-02
DEBUG_STATS_RL:                EtaN (DYNAMICS) S.D.=  1.05076378490527E-01
DEBUG_STATS_RL:                Uvel (DYNAMICS)  min= -4.47567496028232E-01
DEBUG_STATS_RL:                Uvel (DYNAMICS)  max=  3.75402893444313E-01
DEBUG_STATS_RL:                Uvel (DYNAMICS) mean= -6.70920299153736E-04
DEBUG_STATS_RL:                Uvel (DYNAMICS) S.D.=  1.82487319623616E-02
DEBUG_STATS_RL:                Vvel (DYNAMICS)  min= -5.52744413992857E-01
DEBUG_STATS_RL:                Vvel (DYNAMICS)  max=  5.75928906974980E-01
DEBUG_STATS_RL:                Vvel (DYNAMICS) mean= -5.45254576133287E-04
DEBUG_STATS_RL:                Vvel (DYNAMICS) S.D.=  2.02557980639708E-02
DEBUG_STATS_RL:                Wvel (DYNAMICS)  min= -2.39795107269891E-04
DEBUG_STATS_RL:                Wvel (DYNAMICS)  max=  1.49877824458038E-04
DEBUG_STATS_RL:                Wvel (DYNAMICS) mean= -4.12825930395728E-07
DEBUG_STATS_RL:                Wvel (DYNAMICS) S.D.=  7.70459831851618E-06
DEBUG_STATS_RL:               Theta (DYNAMICS)  min=  1.61717292363139E+01
DEBUG_STATS_RL:               Theta (DYNAMICS)  max=  2.29212211381482E+01
DEBUG_STATS_RL:               Theta (DYNAMICS) mean=  2.00015982927003E+01
DEBUG_STATS_RL:               Theta (DYNAMICS) S.D.=  8.30377402057981E-02
DEBUG_STATS_RL:                Salt (DYNAMICS)  min=  2.51492617215526E+01
DEBUG_STATS_RL:                Salt (DYNAMICS)  max=  3.51510667752183E+01
DEBUG_STATS_RL:                Salt (DYNAMICS) mean=  3.49974351895173E+01
DEBUG_STATS_RL:                Salt (DYNAMICS) S.D.=  1.12118107438821E-01
DEBUG_STATS_RL:                  Gu (DYNAMICS)  min= -4.57739897452705E-01
DEBUG_STATS_RL:                  Gu (DYNAMICS)  max=  3.81521095933225E-01
DEBUG_STATS_RL:                  Gu (DYNAMICS) mean= -6.46562016019840E-04
DEBUG_STATS_RL:                  Gu (DYNAMICS) S.D.=  1.79505080090304E-02
DEBUG_STATS_RL:                  Gv (DYNAMICS)  min= -5.27200234194838E-01
DEBUG_STATS_RL:                  Gv (DYNAMICS)  max=  5.73243225173656E-01
DEBUG_STATS_RL:                  Gv (DYNAMICS) mean= -5.54387464733931E-04
DEBUG_STATS_RL:                  Gv (DYNAMICS) S.D.=  2.00422508325366E-02
DEBUG_STATS_RL:               GuNm1 (DYNAMICS)  min= -2.60912451090306E-05
DEBUG_STATS_RL:               GuNm1 (DYNAMICS)  max=  4.28088951616480E-05
DEBUG_STATS_RL:               GuNm1 (DYNAMICS) mean=  2.52383097134420E-08
DEBUG_STATS_RL:               GuNm1 (DYNAMICS) S.D.=  1.30475792012278E-06
DEBUG_STATS_RL:               GvNm1 (DYNAMICS)  min= -3.16120937565819E-05
DEBUG_STATS_RL:               GvNm1 (DYNAMICS)  max=  2.90193636085550E-05
DEBUG_STATS_RL:               GvNm1 (DYNAMICS) mean= -1.01295538067240E-08
DEBUG_STATS_RL:               GvNm1 (DYNAMICS) S.D.=  1.32713130976062E-06
DEBUG_STATS_RL:               GtNm1 (DYNAMICS)  min= -6.59544680594414E-06
DEBUG_STATS_RL:               GtNm1 (DYNAMICS)  max=  4.63031551497664E-06
DEBUG_STATS_RL:               GtNm1 (DYNAMICS) mean=  3.86178952961243E-10
DEBUG_STATS_RL:               GtNm1 (DYNAMICS) S.D.=  7.23164427029401E-08
DEBUG_STATS_RL:               GsNm1 (DYNAMICS)  min= -1.64965481755948E-05
DEBUG_STATS_RL:               GsNm1 (DYNAMICS)  max=  2.06676942193223E-06
DEBUG_STATS_RL:               GsNm1 (DYNAMICS) mean= -4.45666502332793E-09
DEBUG_STATS_RL:               GsNm1 (DYNAMICS) S.D.=  1.90183923880675E-07
(PID.TID 0000.0001) DEBUG_MSG: LEAVING S/R DYNAMICS
DEBUG_STATS_RL:    cg2d_b (SOLVE_FOR_PRESSURE)  min= -3.09973262368624E+05
DEBUG_STATS_RL:    cg2d_b (SOLVE_FOR_PRESSURE)  max=  8.20404730335490E+04
DEBUG_STATS_RL:    cg2d_b (SOLVE_FOR_PRESSURE) mean= -3.55508710877404E+03
DEBUG_STATS_RL:    cg2d_b (SOLVE_FOR_PRESSURE) S.D.=  9.72211613639421E+03
 cg2d: Sum(rhs),rhsMax =  -5.06930336529948E+01  5.93802268688356E+01
(PID.TID 0000.0001)  cg2d: iter=     1 ; resid.=  2.73184811063009E-02
(PID.TID 0000.0001)  cg2d: iter=     2 ; resid.=  3.92535862965432E-03
(PID.TID 0000.0001)  cg2d: iter=     3 ; resid.=  1.10571888931534E-03
(PID.TID 0000.0001)  cg2d: iter=     4 ; resid.=  3.77660500091354E-04
(PID.TID 0000.0001)  cg2d: iter=     5 ; resid.=  9.49183629104978E-05
(PID.TID 0000.0001)  cg2d: iter=     6 ; resid.=  2.10351389526194E-05
(PID.TID 0000.0001)  cg2d: iter=     7 ; resid.=  4.15688070359976E-06
(PID.TID 0000.0001)  cg2d: iter=     8 ; resid.=  1.04177409387686E-06
(PID.TID 0000.0001)  cg2d: iter=     9 ; resid.=  2.93660761399260E-07
(PID.TID 0000.0001)  cg2d: iter=    10 ; resid.=  7.96721000067432E-08
DEBUG_STATS_RL:    cg2d_x (SOLVE_FOR_PRESSURE)  min= -6.99970211793193E+00
DEBUG_STATS_RL:    cg2d_x (SOLVE_FOR_PRESSURE)  max=  2.59576683581216E+01
DEBUG_STATS_RL:    cg2d_x (SOLVE_FOR_PRESSURE) mean=  3.57509614634449E-01
DEBUG_STATS_RL:    cg2d_x (SOLVE_FOR_PRESSURE) S.D.=  1.00115599913018E+00
(PID.TID 0000.0001)      cg2d_init_res =   1.82973144731253E-01
(PID.TID 0000.0001)      cg2d_iters(min,last) =      -1      10
(PID.TID 0000.0001)      cg2d_last_res =   7.96721000067432E-08
(PID.TID 0000.0001) DEBUG_MSG: CALLING S/R UPDATE_ETAH
(PID.TID 0000.0001) DEBUG_MSG: ENTERED S/R CALC_R_STAR
(PID.TID 0000.0001) DEBUG_MSG: LEAVING S/R CALC_R_STAR
(PID.TID 0000.0001) DEBUG_MSG: CALLING S/R DO_STAGGER_FIELDS_EXCH.
(PID.TID 0000.0001) DEBUG_MSG: CALLING S/R THERMODYNAMICS
(PID.TID 0000.0001) DEBUG_MSG: ENTERED S/R THERMODYNAMICS
(PID.TID 0000.0001) DEBUG_MSG: CALLING S/R TEMP_INTEGRATE
(PID.TID 0000.0001) DEBUG_MSG: CALLING S/R SALT_INTEGRATE
DEBUG_STATS_RL:          Uvel (THERMODYNAMICS)  min= -4.70843755294787E-01
DEBUG_STATS_RL:          Uvel (THERMODYNAMICS)  max=  4.51544991177946E-01
DEBUG_STATS_RL:          Uvel (THERMODYNAMICS) mean= -6.45413261437749E-04
DEBUG_STATS_RL:          Uvel (THERMODYNAMICS) S.D.=  1.81184816275106E-02
DEBUG_STATS_RL:          Vvel (THERMODYNAMICS)  min= -5.74050860798188E-01
DEBUG_STATS_RL:          Vvel (THERMODYNAMICS)  max=  6.36742137088225E-01
DEBUG_STATS_RL:          Vvel (THERMODYNAMICS) mean= -5.32007262890017E-04
DEBUG_STATS_RL:          Vvel (THERMODYNAMICS) S.D.=  2.02366667384127E-02
DEBUG_STATS_RL:          Wvel (THERMODYNAMICS)  min= -2.42602270149138E-04
DEBUG_STATS_RL:          Wvel (THERMODYNAMICS)  max=  1.43802369187761E-04
DEBUG_STATS_RL:          Wvel (THERMODYNAMICS) mean= -4.17850694568868E-07
DEBUG_STATS_RL:          Wvel (THERMODYNAMICS) S.D.=  7.70316258980364E-06
DEBUG_STATS_RL:         Theta (THERMODYNAMICS)  min=  1.61676948505595E+01
DEBUG_STATS_RL:         Theta (THERMODYNAMICS)  max=  2.29592228527702E+01
DEBUG_STATS_RL:         Theta (THERMODYNAMICS) mean=  2.00016974791780E+01
DEBUG_STATS_RL:         Theta (THERMODYNAMICS) S.D.=  8.36427497436851E-02
DEBUG_STATS_RL:          Salt (THERMODYNAMICS)  min=  2.50637452606781E+01
DEBUG_STATS_RL:          Salt (THERMODYNAMICS)  max=  3.51510615562369E+01
DEBUG_STATS_RL:          Salt (THERMODYNAMICS) mean=  3.49974069065052E+01
DEBUG_STATS_RL:          Salt (THERMODYNAMICS) S.D.=  1.13135161360813E-01
DEBUG_STATS_RL:         GtNm1 (THERMODYNAMICS)  min= -7.31514982658245E-06
DEBUG_STATS_RL:         GtNm1 (THERMODYNAMICS)  max=  4.63951959514627E-06
DEBUG_STATS_RL:         GtNm1 (THERMODYNAMICS) mean=  3.26938390673158E-10
DEBUG_STATS_RL:         GtNm1 (THERMODYNAMICS) S.D.=  7.57447682257282E-08
DEBUG_STATS_RL:         GsNm1 (THERMODYNAMICS)  min= -1.64750053457477E-05
DEBUG_STATS_RL:         GsNm1 (THERMODYNAMICS)  max=  2.09666341697133E-06
DEBUG_STATS_RL:         GsNm1 (THERMODYNAMICS) mean= -4.47101759762721E-09
DEBUG_STATS_RL:         GsNm1 (THERMODYNAMICS) S.D.=  1.89933283051571E-07
(PID.TID 0000.0001) DEBUG_MSG: LEAVING S/R THERMODYNAMICS
(PID.TID 0000.0001) // =======================================================
(PID.TID 0000.0001) // Begin MONITOR dynamic field statistics
(PID.TID 0000.0001) // =======================================================
(PID.TID 0000.0001) %MON time_tsnumber                =                    54
(PID.TID 0000.0001) %MON time_secondsf                =   4.8600000000000E+04
(PID.TID 0000.0001) %MON dynstat_eta_max              =   2.6460416248849E+00
(PID.TID 0000.0001) %MON dynstat_eta_min              =  -7.1352721945874E-01
(PID.TID 0000.0001) %MON dynstat_eta_mean             =   3.4977704749537E-02
(PID.TID 0000.0001) %MON dynstat_eta_sd               =   9.5560819108061E-02
(PID.TID 0000.0001) %MON dynstat_eta_del2             =   2.0377162367880E-03
(PID.TID 0000.0001) %MON dynstat_uvel_max             =   4.5154499117795E-01
(PID.TID 0000.0001) %MON dynstat_uvel_min             =  -4.7084375529479E-01
(PID.TID 0000.0001) %MON dynstat_uvel_mean            =  -1.2796872147552E-04
(PID.TID 0000.0001) %MON dynstat_uvel_sd              =   6.1345387661058E-03
(PID.TID 0000.0001) %MON dynstat_uvel_del2            =   1.0713954222166E-04
(PID.TID 0000.0001) %MON dynstat_vvel_max             =   6.3674213708822E-01
(PID.TID 0000.0001) %MON dynstat_vvel_min             =  -5.7405086079819E-01
(PID.TID 0000.0001) %MON dynstat_vvel_mean            =   7.9025439016337E-04
(PID.TID 0000.0001) %MON dynstat_vvel_sd              =   6.7811454953944E-03
(PID.TID 0000.0001) %MON dynstat_vvel_del2            =   1.0394861406559E-04
(PID.TID 0000.0001) %MON dynstat_wvel_max             =   1.4380236918776E-04
(PID.TID 0000.0001) %MON dynstat_wvel_min             =  -2.4260227014914E-04
(PID.TID 0000.0001) %MON dynstat_wvel_mean            =  -3.8973625207015E-07
(PID.TID 0000.0001) %MON dynstat_wvel_sd              =   7.3197120523054E-06
(PID.TID 0000.0001) %MON dynstat_wvel_del2            =   7.8527930408979E-08
(PID.TID 0000.0001) %MON dynstat_theta_max            =   2.2959222852770E+01
(PID.TID 0000.0001) %MON dynstat_theta_min            =   1.6167694850560E+01
(PID.TID 0000.0001) %MON dynstat_theta_mean           =   1.9997891636841E+01
(PID.TID 0000.0001) %MON dynstat_theta_sd             =   2.7834035496943E-02
(PID.TID 0000.0001) %MON dynstat_theta_del2           =   4.9491466666554E-04
(PID.TID 0000.0001) %MON dynstat_salt_max             =   3.5151061556237E+01
(PID.TID 0000.0001) %MON dynstat_salt_min             =   2.5063745260678E+01
(PID.TID 0000.0001) %MON dynstat_salt_mean            =   3.4999660638017E+01
(PID.TID 0000.0001) %MON dynstat_salt_sd              =   3.4926167397481E-02
(PID.TID 0000.0001) %MON dynstat_salt_del2            =   1.2115369024517E-03
(PID.TID 0000.0001) %MON dynstat_sst_max              =   2.2959222852770E+01
(PID.TID 0000.0001) %MON dynstat_sst_min              =   1.6167694850560E+01
(PID.TID 0000.0001) %MON dynstat_sst_mean             =   2.0118810461418E+01
(PID.TID 0000.0001) %MON dynstat_sst_sd               =   2.5585713732413E-01
(PID.TID 0000.0001) %MON dynstat_sst_del2             =   5.6462653690037E-03
(PID.TID 0000.0001) %MON dynstat_sss_max              =   3.5151061556237E+01
(PID.TID 0000.0001) %MON dynstat_sss_min              =   2.5063745260678E+01
(PID.TID 0000.0001) %MON dynstat_sss_mean             =   3.4969276686348E+01
(PID.TID 0000.0001) %MON dynstat_sss_sd               =   4.2127396972469E-01
(PID.TID 0000.0001) %MON dynstat_sss_del2             =   1.6405366256883E-02
(PID.TID 0000.0001) %MON forcing_qnet_max             =   3.2925410156250E+03
(PID.TID 0000.0001) %MON forcing_qnet_min             =  -3.9004707031250E+03
(PID.TID 0000.0001) %MON forcing_qnet_mean            =  -1.0887147661052E+01
(PID.TID 0000.0001) %MON forcing_qnet_sd              =   5.0085573539701E+02
(PID.TID 0000.0001) %MON forcing_qnet_del2            =   7.0895930967254E+00
(PID.TID 0000.0001) %MON forcing_qsw_max              =   0.0000000000000E+00
(PID.TID 0000.0001) %MON forcing_qsw_min              =  -9.8439092878308E+01
(PID.TID 0000.0001) %MON forcing_qsw_mean             =  -1.4377657676759E+01
(PID.TID 0000.0001) %MON forcing_qsw_sd               =   2.3519593409954E+01
(PID.TID 0000.0001) %MON forcing_qsw_del2             =   1.9649743588881E-01
(PID.TID 0000.0001) %MON forcing_empmr_max            =   6.4063784666359E-03
(PID.TID 0000.0001) %MON forcing_empmr_min            =  -9.2091426253319E-02
(PID.TID 0000.0001) %MON forcing_empmr_mean           =  -4.1853513451680E-04
(PID.TID 0000.0001) %MON forcing_empmr_sd             =   4.0787258232827E-03
(PID.TID 0000.0001) %MON forcing_empmr_del2           =   1.5995080321703E-04
(PID.TID 0000.0001) %MON forcing_fu_max               =   6.7681790758007E-01
(PID.TID 0000.0001) %MON forcing_fu_min               =  -6.0277755049765E-01
(PID.TID 0000.0001) %MON forcing_fu_mean              =  -1.3343363479092E-03
(PID.TID 0000.0001) %MON forcing_fu_sd                =   8.9715341588096E-02
(PID.TID 0000.0001) %MON forcing_fu_del2              =   7.5990843295323E-04
(PID.TID 0000.0001) %MON forcing_fv_max               =   4.3356383669412E-01
(PID.TID 0000.0001) %MON forcing_fv_min               =  -4.1836055530873E-01
(PID.TID 0000.0001) %MON forcing_fv_mean              =  -6.4529754253261E-03
(PID.TID 0000.0001) %MON forcing_fv_sd                =   7.7952019037953E-02
(PID.TID 0000.0001) %MON forcing_fv_del2              =   6.4702530240180E-04
(PID.TID 0000.0001) %MON trAdv_CFL_u_max              =   1.4581313865146E-03
(PID.TID 0000.0001) %MON trAdv_CFL_v_max              =   2.1002759719186E-03
(PID.TID 0000.0001) %MON trAdv_CFL_w_max              =   3.4264513979292E-03
(PID.TID 0000.0001) %MON advcfl_uvel_max              =   1.5057971698655E-03
(PID.TID 0000.0001) %MON advcfl_vvel_max              =   2.0779218579040E-03
(PID.TID 0000.0001) %MON advcfl_wvel_max              =   6.4063600871874E-03
(PID.TID 0000.0001) %MON advcfl_W_hf_max              =   3.4264513979292E-03
(PID.TID 0000.0001) %MON pe_b_mean                    =   1.3795056824309E-05
(PID.TID 0000.0001) %MON ke_max                       =   1.4968446011320E-01
(PID.TID 0000.0001) %MON ke_mean                      =   3.8920869405450E-05
(PID.TID 0000.0001) %MON ke_vol                       =   1.3398150408514E+18
(PID.TID 0000.0001) %MON vort_r_min                   =  -3.3770201566826E-06
(PID.TID 0000.0001) %MON vort_r_max                   =   2.7661589649377E-06
(PID.TID 0000.0001) %MON vort_a_mean                  =  -2.0549865324846E-05
(PID.TID 0000.0001) %MON vort_a_sd                    =   7.5259438532764E-05
(PID.TID 0000.0001) %MON vort_p_mean                  =  -2.4783293141361E-05
(PID.TID 0000.0001) %MON vort_p_sd                    =   1.2810517378164E-04
(PID.TID 0000.0001) %MON surfExpan_theta_mean         =  -1.1956757500704E-07
(PID.TID 0000.0001) %MON surfExpan_salt_mean          =   1.5811583139988E-06
(PID.TID 0000.0001) // =======================================================
(PID.TID 0000.0001) // End MONITOR dynamic field statistics
(PID.TID 0000.0001) // =======================================================
(PID.TID 0000.0001) DEBUG_MSG: LEAVING S/R FORWARD_STEP
(PID.TID 0000.0001) DEBUG_MSG: ENTERED S/R FORWARD_STEP
(PID.TID 0000.0001) DEBUG_MSG: CALLING S/R LOAD_FIELDS_DRIVER
(PID.TID 0000.0001) DEBUG_MSG: ENTERED S/R LOAD_FIELDS_DRIVER
(PID.TID 0000.0001) DEBUG_MSG: CALLING S/R EXTERNAL_FIELDS_LOAD
(PID.TID 0000.0001) DEBUG_MSG: LEAVING S/R LOAD_FIELDS_DRIVER
(PID.TID 0000.0001) DEBUG_MSG: CALLING S/R DO_ATMOSPHERIC_PHYS
(PID.TID 0000.0001) DEBUG_MSG: ENTERED S/R DO_ATMOSPHERIC_PHYS
(PID.TID 0000.0001) DEBUG_MSG: LEAVING S/R DO_ATMOSPHERIC_PHYS
(PID.TID 0000.0001) DEBUG_MSG: CALLING S/R DO_OCEANIC_PHYS
(PID.TID 0000.0001) DEBUG_MSG: ENTERED S/R DO_OCEANIC_PHYS
(PID.TID 0000.0001) DEBUG_MSG: CALLING S/R EXTERNAL_FORCING_SURF
(PID.TID 0000.0001) DEBUG_MSG: CALLING S/R FIND_RHO_2D (xNr)
(PID.TID 0000.0001) DEBUG_MSG:                  ENTERING UPWARD K LOOP (bi=   1, bj=   1)
(PID.TID 0000.0001) DEBUG_MSG: CALLING S/R GRAD_SIGMA
(PID.TID 0000.0001) DEBUG_MSG: CALLING S/R CALC_IVDC
(PID.TID 0000.0001) DEBUG_MSG: CALLING S/R GRAD_SIGMA
(PID.TID 0000.0001) DEBUG_MSG: CALLING S/R CALC_IVDC
(PID.TID 0000.0001) DEBUG_MSG: CALLING S/R GRAD_SIGMA
(PID.TID 0000.0001) DEBUG_MSG: CALLING S/R CALC_IVDC
(PID.TID 0000.0001) DEBUG_MSG: CALLING S/R GRAD_SIGMA
(PID.TID 0000.0001) DEBUG_MSG: CALLING S/R CALC_IVDC
(PID.TID 0000.0001) DEBUG_MSG: CALLING S/R GRAD_SIGMA
(PID.TID 0000.0001) DEBUG_MSG: CALLING S/R CALC_IVDC
(PID.TID 0000.0001) DEBUG_MSG: CALLING S/R GRAD_SIGMA
(PID.TID 0000.0001) DEBUG_MSG: CALLING S/R CALC_IVDC
(PID.TID 0000.0001) DEBUG_MSG: CALLING S/R GRAD_SIGMA
(PID.TID 0000.0001) DEBUG_MSG: CALLING S/R CALC_IVDC
(PID.TID 0000.0001) DEBUG_MSG: CALLING S/R GRAD_SIGMA
(PID.TID 0000.0001) DEBUG_MSG: CALLING S/R CALC_IVDC
(PID.TID 0000.0001) DEBUG_MSG: CALLING S/R GRAD_SIGMA
(PID.TID 0000.0001) DEBUG_MSG: CALLING S/R CALC_IVDC
(PID.TID 0000.0001) DEBUG_MSG: CALLING S/R GRAD_SIGMA
(PID.TID 0000.0001) DEBUG_MSG: CALLING S/R CALC_IVDC
(PID.TID 0000.0001) DEBUG_MSG: CALLING S/R GRAD_SIGMA
(PID.TID 0000.0001) DEBUG_MSG: CALLING S/R CALC_IVDC
(PID.TID 0000.0001) DEBUG_MSG: CALLING S/R GRAD_SIGMA
(PID.TID 0000.0001) DEBUG_MSG: CALLING S/R CALC_IVDC
(PID.TID 0000.0001) DEBUG_MSG: CALLING S/R GRAD_SIGMA
(PID.TID 0000.0001) DEBUG_MSG: CALLING S/R CALC_IVDC
(PID.TID 0000.0001) DEBUG_MSG: CALLING S/R GRAD_SIGMA
(PID.TID 0000.0001) DEBUG_MSG: CALLING S/R CALC_IVDC
(PID.TID 0000.0001) DEBUG_MSG: CALLING S/R GRAD_SIGMA
(PID.TID 0000.0001) DEBUG_MSG: CALLING S/R CALC_IVDC
(PID.TID 0000.0001) DEBUG_MSG: CALLING S/R GRAD_SIGMA
(PID.TID 0000.0001) DEBUG_MSG: CALLING S/R GMREDI_CALC_TENSOR
(PID.TID 0000.0001) DEBUG_MSG: LEAVING S/R DO_OCEANIC_PHYS
(PID.TID 0000.0001) DEBUG_MSG: CALLING S/R DYNAMICS
(PID.TID 0000.0001) DEBUG_MSG: ENTERED S/R DYNAMICS
DEBUG_STATS_RL:                EtaN (DYNAMICS)  min= -7.13527219458739E-01
DEBUG_STATS_RL:                EtaN (DYNAMICS)  max=  2.64604162488485E+00
DEBUG_STATS_RL:                EtaN (DYNAMICS) mean=  3.64433856064205E-02
DEBUG_STATS_RL:                EtaN (DYNAMICS) S.D.=  1.02054638184512E-01
DEBUG_STATS_RL:                Uvel (DYNAMICS)  min= -4.70843755294787E-01
DEBUG_STATS_RL:                Uvel (DYNAMICS)  max=  4.51544991177946E-01
DEBUG_STATS_RL:                Uvel (DYNAMICS) mean= -6.45413261437749E-04
DEBUG_STATS_RL:                Uvel (DYNAMICS) S.D.=  1.81184816275106E-02
DEBUG_STATS_RL:                Vvel (DYNAMICS)  min= -5.74050860798188E-01
DEBUG_STATS_RL:                Vvel (DYNAMICS)  max=  6.36742137088225E-01
DEBUG_STATS_RL:                Vvel (DYNAMICS) mean= -5.32007262890017E-04
DEBUG_STATS_RL:                Vvel (DYNAMICS) S.D.=  2.02366667384127E-02
DEBUG_STATS_RL:                Wvel (DYNAMICS)  min= -2.42602270149138E-04
DEBUG_STATS_RL:                Wvel (DYNAMICS)  max=  1.43802369187761E-04
DEBUG_STATS_RL:                Wvel (DYNAMICS) mean= -4.17850694568868E-07
DEBUG_STATS_RL:                Wvel (DYNAMICS) S.D.=  7.70316258980364E-06
DEBUG_STATS_RL:               Theta (DYNAMICS)  min=  1.61676948505595E+01
DEBUG_STATS_RL:               Theta (DYNAMICS)  max=  2.29592228527702E+01
DEBUG_STATS_RL:               Theta (DYNAMICS) mean=  2.00016974791780E+01
DEBUG_STATS_RL:               Theta (DYNAMICS) S.D.=  8.36427497436851E-02
DEBUG_STATS_RL:                Salt (DYNAMICS)  min=  2.50637452606781E+01
DEBUG_STATS_RL:                Salt (DYNAMICS)  max=  3.51510615562369E+01
DEBUG_STATS_RL:                Salt (DYNAMICS) mean=  3.49974069065052E+01
DEBUG_STATS_RL:                Salt (DYNAMICS) S.D.=  1.13135161360813E-01
DEBUG_STATS_RL:                  Gu (DYNAMICS)  min= -4.81880594967404E-01
DEBUG_STATS_RL:                  Gu (DYNAMICS)  max=  4.67458938050430E-01
DEBUG_STATS_RL:                  Gu (DYNAMICS) mean= -6.20040460658853E-04
DEBUG_STATS_RL:                  Gu (DYNAMICS) S.D.=  1.78435905601020E-02
DEBUG_STATS_RL:                  Gv (DYNAMICS)  min= -5.51930827670525E-01
DEBUG_STATS_RL:                  Gv (DYNAMICS)  max=  6.23816939419957E-01
DEBUG_STATS_RL:                  Gv (DYNAMICS) mean= -5.42208388904736E-04
DEBUG_STATS_RL:                  Gv (DYNAMICS) S.D.=  2.00269564521609E-02
DEBUG_STATS_RL:               GuNm1 (DYNAMICS)  min= -2.55288835825415E-05
DEBUG_STATS_RL:               GuNm1 (DYNAMICS)  max=  4.50674271120991E-05
DEBUG_STATS_RL:               GuNm1 (DYNAMICS) mean=  2.67278855857962E-08
DEBUG_STATS_RL:               GuNm1 (DYNAMICS) S.D.=  1.32435815043181E-06
DEBUG_STATS_RL:               GvNm1 (DYNAMICS)  min= -2.94454807350729E-05
DEBUG_STATS_RL:               GvNm1 (DYNAMICS)  max=  2.68484933781517E-05
DEBUG_STATS_RL:               GvNm1 (DYNAMICS) mean= -1.13858886092882E-08
DEBUG_STATS_RL:               GvNm1 (DYNAMICS) S.D.=  1.30555134283237E-06
DEBUG_STATS_RL:               GtNm1 (DYNAMICS)  min= -7.31514982658245E-06
DEBUG_STATS_RL:               GtNm1 (DYNAMICS)  max=  4.63951959514627E-06
DEBUG_STATS_RL:               GtNm1 (DYNAMICS) mean=  3.26938390673158E-10
DEBUG_STATS_RL:               GtNm1 (DYNAMICS) S.D.=  7.57447682257282E-08
DEBUG_STATS_RL:               GsNm1 (DYNAMICS)  min= -1.64750053457477E-05
DEBUG_STATS_RL:               GsNm1 (DYNAMICS)  max=  2.09666341697133E-06
DEBUG_STATS_RL:               GsNm1 (DYNAMICS) mean= -4.47101759762721E-09
DEBUG_STATS_RL:               GsNm1 (DYNAMICS) S.D.=  1.89933283051571E-07
(PID.TID 0000.0001) DEBUG_MSG: LEAVING S/R DYNAMICS
DEBUG_STATS_RL:    cg2d_b (SOLVE_FOR_PRESSURE)  min= -2.96778578890762E+05
DEBUG_STATS_RL:    cg2d_b (SOLVE_FOR_PRESSURE)  max=  6.78686344630808E+04
DEBUG_STATS_RL:    cg2d_b (SOLVE_FOR_PRESSURE) mean= -3.59179778596307E+03
DEBUG_STATS_RL:    cg2d_b (SOLVE_FOR_PRESSURE) S.D.=  9.36795066875276E+03
 cg2d: Sum(rhs),rhsMax =  -5.34935717843717E+01  5.68525788633564E+01
(PID.TID 0000.0001)  cg2d: iter=     1 ; resid.=  2.77982557021103E-02
(PID.TID 0000.0001)  cg2d: iter=     2 ; resid.=  3.97401725786945E-03
(PID.TID 0000.0001)  cg2d: iter=     3 ; resid.=  1.14650247733198E-03
(PID.TID 0000.0001)  cg2d: iter=     4 ; resid.=  3.92726579897220E-04
(PID.TID 0000.0001)  cg2d: iter=     5 ; resid.=  9.61320582301990E-05
(PID.TID 0000.0001)  cg2d: iter=     6 ; resid.=  2.10837146622412E-05
(PID.TID 0000.0001)  cg2d: iter=     7 ; resid.=  4.20722081172365E-06
(PID.TID 0000.0001)  cg2d: iter=     8 ; resid.=  1.10417654730459E-06
(PID.TID 0000.0001)  cg2d: iter=     9 ; resid.=  3.26389454607084E-07
(PID.TID 0000.0001)  cg2d: iter=    10 ; resid.=  8.93452309853653E-08
DEBUG_STATS_RL:    cg2d_x (SOLVE_FOR_PRESSURE)  min= -6.58049860968208E+00
DEBUG_STATS_RL:    cg2d_x (SOLVE_FOR_PRESSURE)  max=  2.48546068383778E+01
DEBUG_STATS_RL:    cg2d_x (SOLVE_FOR_PRESSURE) mean=  3.62017497855069E-01
DEBUG_STATS_RL:    cg2d_x (SOLVE_FOR_PRESSURE) S.D.=  9.69430159905822E-01
(PID.TID 0000.0001)      cg2d_init_res =   1.96369948776343E-01
(PID.TID 0000.0001)      cg2d_iters(min,last) =      -1      10
(PID.TID 0000.0001)      cg2d_last_res =   8.93452309853653E-08
(PID.TID 0000.0001) DEBUG_MSG: CALLING S/R UPDATE_ETAH
(PID.TID 0000.0001) DEBUG_MSG: ENTERED S/R CALC_R_STAR
(PID.TID 0000.0001) DEBUG_MSG: LEAVING S/R CALC_R_STAR
(PID.TID 0000.0001) DEBUG_MSG: CALLING S/R DO_STAGGER_FIELDS_EXCH.
(PID.TID 0000.0001) DEBUG_MSG: CALLING S/R THERMODYNAMICS
(PID.TID 0000.0001) DEBUG_MSG: ENTERED S/R THERMODYNAMICS
(PID.TID 0000.0001) DEBUG_MSG: CALLING S/R TEMP_INTEGRATE
(PID.TID 0000.0001) DEBUG_MSG: CALLING S/R SALT_INTEGRATE
DEBUG_STATS_RL:          Uvel (THERMODYNAMICS)  min= -4.94340359474989E-01
DEBUG_STATS_RL:          Uvel (THERMODYNAMICS)  max=  5.28522578346712E-01
DEBUG_STATS_RL:          Uvel (THERMODYNAMICS) mean= -6.19162280894558E-04
DEBUG_STATS_RL:          Uvel (THERMODYNAMICS) S.D.=  1.80281972083276E-02
DEBUG_STATS_RL:          Vvel (THERMODYNAMICS)  min= -5.94152815345267E-01
DEBUG_STATS_RL:          Vvel (THERMODYNAMICS)  max=  6.84674587616543E-01
DEBUG_STATS_RL:          Vvel (THERMODYNAMICS) mean= -5.20594582119984E-04
DEBUG_STATS_RL:          Vvel (THERMODYNAMICS) S.D.=  2.02310593758149E-02
DEBUG_STATS_RL:          Wvel (THERMODYNAMICS)  min= -2.44599884420737E-04
DEBUG_STATS_RL:          Wvel (THERMODYNAMICS)  max=  1.37764727220347E-04
DEBUG_STATS_RL:          Wvel (THERMODYNAMICS) mean= -4.18661613860904E-07
DEBUG_STATS_RL:          Wvel (THERMODYNAMICS) S.D.=  7.69351195550957E-06
DEBUG_STATS_RL:         Theta (THERMODYNAMICS)  min=  1.61629659079901E+01
DEBUG_STATS_RL:         Theta (THERMODYNAMICS)  max=  2.29967327933215E+01
DEBUG_STATS_RL:         Theta (THERMODYNAMICS) mean=  2.00017967407555E+01
DEBUG_STATS_RL:         Theta (THERMODYNAMICS) S.D.=  8.42453490308188E-02
DEBUG_STATS_RL:          Salt (THERMODYNAMICS)  min=  2.49802442493296E+01
DEBUG_STATS_RL:          Salt (THERMODYNAMICS)  max=  3.51510543955536E+01
DEBUG_STATS_RL:          Salt (THERMODYNAMICS) mean=  3.49973794173198E+01
DEBUG_STATS_RL:          Salt (THERMODYNAMICS) S.D.=  1.14130100427205E-01
DEBUG_STATS_RL:         GtNm1 (THERMODYNAMICS)  min= -7.93311535815340E-06
DEBUG_STATS_RL:         GtNm1 (THERMODYNAMICS)  max=  4.64963332825338E-06
DEBUG_STATS_RL:         GtNm1 (THERMODYNAMICS) mean=  2.83427501484017E-10
DEBUG_STATS_RL:         GtNm1 (THERMODYNAMICS) S.D.=  7.94276706335243E-08
DEBUG_STATS_RL:         GsNm1 (THERMODYNAMICS)  min= -1.64475966961061E-05
DEBUG_STATS_RL:         GsNm1 (THERMODYNAMICS)  max=  2.12204065499778E-06
DEBUG_STATS_RL:         GsNm1 (THERMODYNAMICS) mean= -4.48525565231858E-09
DEBUG_STATS_RL:         GsNm1 (THERMODYNAMICS) S.D.=  1.89692260510278E-07
(PID.TID 0000.0001) DEBUG_MSG: LEAVING S/R THERMODYNAMICS
(PID.TID 0000.0001) // =======================================================
(PID.TID 0000.0001) // Begin MONITOR dynamic field statistics
(PID.TID 0000.0001) // =======================================================
(PID.TID 0000.0001) %MON time_tsnumber                =                    55
(PID.TID 0000.0001) %MON time_secondsf                =   4.9500000000000E+04
(PID.TID 0000.0001) %MON dynstat_eta_max              =   2.5335990635035E+00
(PID.TID 0000.0001) %MON dynstat_eta_min              =  -6.7079496211138E-01
(PID.TID 0000.0001) %MON dynstat_eta_mean             =   3.5338892869149E-02
(PID.TID 0000.0001) %MON dynstat_eta_sd               =   9.2178950438040E-02
(PID.TID 0000.0001) %MON dynstat_eta_del2             =   1.9225214356103E-03
(PID.TID 0000.0001) %MON dynstat_uvel_max             =   5.2852257834671E-01
(PID.TID 0000.0001) %MON dynstat_uvel_min             =  -4.9434035947499E-01
(PID.TID 0000.0001) %MON dynstat_uvel_mean            =  -1.1615411702863E-04
(PID.TID 0000.0001) %MON dynstat_uvel_sd              =   6.1087592373200E-03
(PID.TID 0000.0001) %MON dynstat_uvel_del2            =   1.0828224379366E-04
(PID.TID 0000.0001) %MON dynstat_vvel_max             =   6.8467458761654E-01
(PID.TID 0000.0001) %MON dynstat_vvel_min             =  -5.9415281534527E-01
(PID.TID 0000.0001) %MON dynstat_vvel_mean            =   8.2386515216339E-04
(PID.TID 0000.0001) %MON dynstat_vvel_sd              =   6.7898429493830E-03
(PID.TID 0000.0001) %MON dynstat_vvel_del2            =   1.0672964698921E-04
(PID.TID 0000.0001) %MON dynstat_wvel_max             =   1.3776472722035E-04
(PID.TID 0000.0001) %MON dynstat_wvel_min             =  -2.4459988442074E-04
(PID.TID 0000.0001) %MON dynstat_wvel_mean            =  -3.9394395921247E-07
(PID.TID 0000.0001) %MON dynstat_wvel_sd              =   7.3258904603618E-06
(PID.TID 0000.0001) %MON dynstat_wvel_del2            =   7.8610056680266E-08
(PID.TID 0000.0001) %MON dynstat_theta_max            =   2.2996732793321E+01
(PID.TID 0000.0001) %MON dynstat_theta_min            =   1.6162965907990E+01
(PID.TID 0000.0001) %MON dynstat_theta_mean           =   1.9997892315835E+01
(PID.TID 0000.0001) %MON dynstat_theta_sd             =   2.8018353973658E-02
(PID.TID 0000.0001) %MON dynstat_theta_del2           =   4.9755692406407E-04
(PID.TID 0000.0001) %MON dynstat_salt_max             =   3.5151054395554E+01
(PID.TID 0000.0001) %MON dynstat_salt_min             =   2.4980244249330E+01
(PID.TID 0000.0001) %MON dynstat_salt_mean            =   3.4999657310694E+01
(PID.TID 0000.0001) %MON dynstat_salt_sd              =   3.5234310738488E-02
(PID.TID 0000.0001) %MON dynstat_salt_del2            =   1.2217445436556E-03
(PID.TID 0000.0001) %MON dynstat_sst_max              =   2.2996732793321E+01
(PID.TID 0000.0001) %MON dynstat_sst_min              =   1.6162965907990E+01
(PID.TID 0000.0001) %MON dynstat_sst_mean             =   2.0120376135441E+01
(PID.TID 0000.0001) %MON dynstat_sst_sd               =   2.5785785633316E-01
(PID.TID 0000.0001) %MON dynstat_sst_del2             =   5.6860840154973E-03
(PID.TID 0000.0001) %MON dynstat_sss_max              =   3.5151054395554E+01
(PID.TID 0000.0001) %MON dynstat_sss_min              =   2.4980244249330E+01
(PID.TID 0000.0001) %MON dynstat_sss_mean             =   3.4968947703302E+01
(PID.TID 0000.0001) %MON dynstat_sss_sd               =   4.2496951576104E-01
(PID.TID 0000.0001) %MON dynstat_sss_del2             =   1.6543154730738E-02
(PID.TID 0000.0001) %MON forcing_qnet_max             =   3.2463415527344E+03
(PID.TID 0000.0001) %MON forcing_qnet_min             =  -3.8430231933594E+03
(PID.TID 0000.0001) %MON forcing_qnet_mean            =  -1.0028182166738E+01
(PID.TID 0000.0001) %MON forcing_qnet_sd              =   4.9731329281208E+02
(PID.TID 0000.0001) %MON forcing_qnet_del2            =   6.8352221336838E+00
(PID.TID 0000.0001) %MON forcing_qsw_max              =   0.0000000000000E+00
(PID.TID 0000.0001) %MON forcing_qsw_min              =  -9.9891744081089E+01
(PID.TID 0000.0001) %MON forcing_qsw_mean             =  -1.4479251697568E+01
(PID.TID 0000.0001) %MON forcing_qsw_sd               =   2.3623284910066E+01
(PID.TID 0000.0001) %MON forcing_qsw_del2             =   1.9744499655828E-01
(PID.TID 0000.0001) %MON forcing_empmr_max            =   6.3403490930796E-03
(PID.TID 0000.0001) %MON forcing_empmr_min            =  -9.1143250465393E-02
(PID.TID 0000.0001) %MON forcing_empmr_mean           =  -4.1536633755334E-04
(PID.TID 0000.0001) %MON forcing_empmr_sd             =   4.0375405987784E-03
(PID.TID 0000.0001) %MON forcing_empmr_del2           =   1.5831086630232E-04
(PID.TID 0000.0001) %MON forcing_fu_max               =   6.6947385939043E-01
(PID.TID 0000.0001) %MON forcing_fu_min               =  -6.0462033036834E-01
(PID.TID 0000.0001) %MON forcing_fu_mean              =  -1.3449600064585E-03
(PID.TID 0000.0001) %MON forcing_fu_sd                =   8.9491092129040E-02
(PID.TID 0000.0001) %MON forcing_fu_del2              =   7.5740777711747E-04
(PID.TID 0000.0001) %MON forcing_fv_max               =   4.2980006057448E-01
(PID.TID 0000.0001) %MON forcing_fv_min               =  -4.1916211136102E-01
(PID.TID 0000.0001) %MON forcing_fv_mean              =  -6.5457616888263E-03
(PID.TID 0000.0001) %MON forcing_fv_sd                =   7.7704849227623E-02
(PID.TID 0000.0001) %MON forcing_fv_del2              =   6.4553099301621E-04
(PID.TID 0000.0001) %MON trAdv_CFL_u_max              =   1.7092958132549E-03
(PID.TID 0000.0001) %MON trAdv_CFL_v_max              =   2.2618209337708E-03
(PID.TID 0000.0001) %MON trAdv_CFL_w_max              =   3.5155621157461E-03
(PID.TID 0000.0001) %MON advcfl_uvel_max              =   1.7624994590425E-03
(PID.TID 0000.0001) %MON advcfl_vvel_max              =   2.2343429283096E-03
(PID.TID 0000.0001) %MON advcfl_wvel_max              =   6.3404000323752E-03
(PID.TID 0000.0001) %MON advcfl_W_hf_max              =   3.5155621157461E-03
(PID.TID 0000.0001) %MON pe_b_mean                    =   1.2983078256844E-05
(PID.TID 0000.0001) %MON ke_max                       =   1.7727672108607E-01
(PID.TID 0000.0001) %MON ke_mean                      =   3.8854523135717E-05
(PID.TID 0000.0001) %MON ke_vol                       =   1.3398151732856E+18
(PID.TID 0000.0001) %MON vort_r_min                   =  -3.5191867270700E-06
(PID.TID 0000.0001) %MON vort_r_max                   =   2.8801803799808E-06
(PID.TID 0000.0001) %MON vort_a_mean                  =  -2.0549865324846E-05
(PID.TID 0000.0001) %MON vort_a_sd                    =   7.5259446875092E-05
(PID.TID 0000.0001) %MON vort_p_mean                  =  -2.4783290149401E-05
(PID.TID 0000.0001) %MON vort_p_sd                    =   1.2810515763528E-04
(PID.TID 0000.0001) %MON surfExpan_theta_mean         =  -1.0368973289164E-07
(PID.TID 0000.0001) %MON surfExpan_salt_mean          =   1.5840018338613E-06
(PID.TID 0000.0001) // =======================================================
(PID.TID 0000.0001) // End MONITOR dynamic field statistics
(PID.TID 0000.0001) // =======================================================
 Computing Diagnostic #     81  oceTAUX      Counter:       1   Parms: UU      U1      
           Vector  Mate for  oceTAUX      Diagnostic #     82  oceTAUY  exists 
(PID.TID 0000.0001)  MDS_WRITE_FIELD: it,rec,kS,kL,kH=      54    -1  32   1   1 file=oceTAUX.0000000054
 Computing Diagnostic #     82  oceTAUY      Counter:       1   Parms: VV      U1      
           Vector  Mate for  oceTAUY      Diagnostic #     81  oceTAUX  exists 
(PID.TID 0000.0001)  MDS_WRITE_FIELD: it,rec,kS,kL,kH=      54    -1  32   1   1 file=oceTAUY.0000000054
 Computing Diagnostic #     85  oceFWflx     Counter:       1   Parms: SM      U1      
(PID.TID 0000.0001)  MDS_WRITE_FIELD: it,rec,kS,kL,kH=      54    -1  32   1   1 file=oceFWflx.0000000054
 Computing Diagnostic #     86  oceSflux     Counter:       1   Parms: SM      U1      
(PID.TID 0000.0001)  MDS_WRITE_FIELD: it,rec,kS,kL,kH=      54    -1  32   1   1 file=oceSflux.0000000054
 Computing Diagnostic #     87  oceQnet      Counter:       1   Parms: SM      U1      
(PID.TID 0000.0001)  MDS_WRITE_FIELD: it,rec,kS,kL,kH=      54    -1  32   1   1 file=oceQnet.0000000054
 Computing Diagnostic #     88  oceQsw       Counter:       1   Parms: SM      U1      
(PID.TID 0000.0001)  MDS_WRITE_FIELD: it,rec,kS,kL,kH=      54    -1  32   1   1 file=oceQsw.0000000054
 Computing Diagnostic #     27  SALT         Counter:       1   Parms: SMR     MR      
(PID.TID 0000.0001)  MDS_WRITE_FIELD: it,rec,kS,kL,kH=      54    -1  32   1   1 file=SSS.0000000054
 Computing Diagnostic #     26  THETA        Counter:       1   Parms: SMR     MR      
(PID.TID 0000.0001)  MDS_WRITE_FIELD: it,rec,kS,kL,kH=      54    -1  32   1   1 file=SST.0000000054
 Computing Diagnostic #     45  UVELMASS     Counter:       1   Parms: UUr     MR      
           Vector  Mate for  UVELMASS     Diagnostic #     46  VVELMASS exists 
(PID.TID 0000.0001)  MDS_WRITE_FIELD: it,rec,kS,kL,kH=      54    -1  32   1   1 file=UVEL1.0000000054
 Computing Diagnostic #     46  VVELMASS     Counter:       1   Parms: VVr     MR      
           Vector  Mate for  VVELMASS     Diagnostic #     45  UVELMASS exists 
(PID.TID 0000.0001)  MDS_WRITE_FIELD: it,rec,kS,kL,kH=      54    -1  32   1   1 file=VVEL1.0000000054
 Computing Diagnostic #     83  atmPload     Counter:       1   Parms: SM      U1      
(PID.TID 0000.0001)  MDS_WRITE_FIELD: it,rec,kS,kL,kH=      54    -1  32   1   1 file=atmPload.0000000054
(PID.TID 0000.0001)  write diagnostics summary to file: diagnostics_status.0000000055.txt
(PID.TID 0000.0001) DEBUG_MSG: LEAVING S/R FORWARD_STEP
(PID.TID 0000.0001) DEBUG_MSG: ENTERED S/R FORWARD_STEP
(PID.TID 0000.0001) DEBUG_MSG: CALLING S/R LOAD_FIELDS_DRIVER
(PID.TID 0000.0001) DEBUG_MSG: ENTERED S/R LOAD_FIELDS_DRIVER
(PID.TID 0000.0001) DEBUG_MSG: CALLING S/R EXTERNAL_FIELDS_LOAD
(PID.TID 0000.0001) DEBUG_MSG: LEAVING S/R LOAD_FIELDS_DRIVER
(PID.TID 0000.0001) DEBUG_MSG: CALLING S/R DO_ATMOSPHERIC_PHYS
(PID.TID 0000.0001) DEBUG_MSG: ENTERED S/R DO_ATMOSPHERIC_PHYS
(PID.TID 0000.0001) DEBUG_MSG: LEAVING S/R DO_ATMOSPHERIC_PHYS
(PID.TID 0000.0001) DEBUG_MSG: CALLING S/R DO_OCEANIC_PHYS
(PID.TID 0000.0001) DEBUG_MSG: ENTERED S/R DO_OCEANIC_PHYS
(PID.TID 0000.0001) DEBUG_MSG: CALLING S/R EXTERNAL_FORCING_SURF
(PID.TID 0000.0001) DEBUG_MSG: CALLING S/R FIND_RHO_2D (xNr)
(PID.TID 0000.0001) DEBUG_MSG:                  ENTERING UPWARD K LOOP (bi=   1, bj=   1)
(PID.TID 0000.0001) DEBUG_MSG: CALLING S/R GRAD_SIGMA
(PID.TID 0000.0001) DEBUG_MSG: CALLING S/R CALC_IVDC
(PID.TID 0000.0001) DEBUG_MSG: CALLING S/R GRAD_SIGMA
(PID.TID 0000.0001) DEBUG_MSG: CALLING S/R CALC_IVDC
(PID.TID 0000.0001) DEBUG_MSG: CALLING S/R GRAD_SIGMA
(PID.TID 0000.0001) DEBUG_MSG: CALLING S/R CALC_IVDC
(PID.TID 0000.0001) DEBUG_MSG: CALLING S/R GRAD_SIGMA
(PID.TID 0000.0001) DEBUG_MSG: CALLING S/R CALC_IVDC
(PID.TID 0000.0001) DEBUG_MSG: CALLING S/R GRAD_SIGMA
(PID.TID 0000.0001) DEBUG_MSG: CALLING S/R CALC_IVDC
(PID.TID 0000.0001) DEBUG_MSG: CALLING S/R GRAD_SIGMA
(PID.TID 0000.0001) DEBUG_MSG: CALLING S/R CALC_IVDC
(PID.TID 0000.0001) DEBUG_MSG: CALLING S/R GRAD_SIGMA
(PID.TID 0000.0001) DEBUG_MSG: CALLING S/R CALC_IVDC
(PID.TID 0000.0001) DEBUG_MSG: CALLING S/R GRAD_SIGMA
(PID.TID 0000.0001) DEBUG_MSG: CALLING S/R CALC_IVDC
(PID.TID 0000.0001) DEBUG_MSG: CALLING S/R GRAD_SIGMA
(PID.TID 0000.0001) DEBUG_MSG: CALLING S/R CALC_IVDC
(PID.TID 0000.0001) DEBUG_MSG: CALLING S/R GRAD_SIGMA
(PID.TID 0000.0001) DEBUG_MSG: CALLING S/R CALC_IVDC
(PID.TID 0000.0001) DEBUG_MSG: CALLING S/R GRAD_SIGMA
(PID.TID 0000.0001) DEBUG_MSG: CALLING S/R CALC_IVDC
(PID.TID 0000.0001) DEBUG_MSG: CALLING S/R GRAD_SIGMA
(PID.TID 0000.0001) DEBUG_MSG: CALLING S/R CALC_IVDC
(PID.TID 0000.0001) DEBUG_MSG: CALLING S/R GRAD_SIGMA
(PID.TID 0000.0001) DEBUG_MSG: CALLING S/R CALC_IVDC
(PID.TID 0000.0001) DEBUG_MSG: CALLING S/R GRAD_SIGMA
(PID.TID 0000.0001) DEBUG_MSG: CALLING S/R CALC_IVDC
(PID.TID 0000.0001) DEBUG_MSG: CALLING S/R GRAD_SIGMA
(PID.TID 0000.0001) DEBUG_MSG: CALLING S/R CALC_IVDC
(PID.TID 0000.0001) DEBUG_MSG: CALLING S/R GRAD_SIGMA
(PID.TID 0000.0001) DEBUG_MSG: CALLING S/R GMREDI_CALC_TENSOR
(PID.TID 0000.0001) DEBUG_MSG: LEAVING S/R DO_OCEANIC_PHYS
(PID.TID 0000.0001) DEBUG_MSG: CALLING S/R DYNAMICS
(PID.TID 0000.0001) DEBUG_MSG: ENTERED S/R DYNAMICS
DEBUG_STATS_RL:                EtaN (DYNAMICS)  min= -6.70794962111384E-01
DEBUG_STATS_RL:                EtaN (DYNAMICS)  max=  2.53359906350349E+00
DEBUG_STATS_RL:                EtaN (DYNAMICS) mean=  3.69029050493049E-02
DEBUG_STATS_RL:                EtaN (DYNAMICS) S.D.=  9.88206076915844E-02
DEBUG_STATS_RL:                Uvel (DYNAMICS)  min= -4.94340359474989E-01
DEBUG_STATS_RL:                Uvel (DYNAMICS)  max=  5.28522578346712E-01
DEBUG_STATS_RL:                Uvel (DYNAMICS) mean= -6.19162280894558E-04
DEBUG_STATS_RL:                Uvel (DYNAMICS) S.D.=  1.80281972083276E-02
DEBUG_STATS_RL:                Vvel (DYNAMICS)  min= -5.94152815345267E-01
DEBUG_STATS_RL:                Vvel (DYNAMICS)  max=  6.84674587616543E-01
DEBUG_STATS_RL:                Vvel (DYNAMICS) mean= -5.20594582119984E-04
DEBUG_STATS_RL:                Vvel (DYNAMICS) S.D.=  2.02310593758149E-02
DEBUG_STATS_RL:                Wvel (DYNAMICS)  min= -2.44599884420737E-04
DEBUG_STATS_RL:                Wvel (DYNAMICS)  max=  1.37764727220347E-04
DEBUG_STATS_RL:                Wvel (DYNAMICS) mean= -4.18661613860904E-07
DEBUG_STATS_RL:                Wvel (DYNAMICS) S.D.=  7.69351195550957E-06
DEBUG_STATS_RL:               Theta (DYNAMICS)  min=  1.61629659079901E+01
DEBUG_STATS_RL:               Theta (DYNAMICS)  max=  2.29967327933215E+01
DEBUG_STATS_RL:               Theta (DYNAMICS) mean=  2.00017967407555E+01
DEBUG_STATS_RL:               Theta (DYNAMICS) S.D.=  8.42453490308188E-02
DEBUG_STATS_RL:                Salt (DYNAMICS)  min=  2.49802442493296E+01
DEBUG_STATS_RL:                Salt (DYNAMICS)  max=  3.51510543955536E+01
DEBUG_STATS_RL:                Salt (DYNAMICS) mean=  3.49973794173198E+01
DEBUG_STATS_RL:                Salt (DYNAMICS) S.D.=  1.14130100427205E-01
DEBUG_STATS_RL:                  Gu (DYNAMICS)  min= -5.06200786509448E-01
DEBUG_STATS_RL:                  Gu (DYNAMICS)  max=  5.43446981887340E-01
DEBUG_STATS_RL:                  Gu (DYNAMICS) mean= -5.93265353566175E-04
DEBUG_STATS_RL:                  Gu (DYNAMICS) S.D.=  1.77829908049709E-02
DEBUG_STATS_RL:                  Gv (DYNAMICS)  min= -5.74070649087880E-01
DEBUG_STATS_RL:                  Gv (DYNAMICS)  max=  6.67654722327954E-01
DEBUG_STATS_RL:                  Gv (DYNAMICS) mean= -5.31887878882039E-04
DEBUG_STATS_RL:                  Gv (DYNAMICS) S.D.=  2.00238069849086E-02
DEBUG_STATS_RL:               GuNm1 (DYNAMICS)  min= -2.48606537262981E-05
DEBUG_STATS_RL:               GuNm1 (DYNAMICS)  max=  4.66292345011528E-05
DEBUG_STATS_RL:               GuNm1 (DYNAMICS) mean=  2.76480983129057E-08
DEBUG_STATS_RL:               GuNm1 (DYNAMICS) S.D.=  1.34301998980149E-06
DEBUG_STATS_RL:               GvNm1 (DYNAMICS)  min= -2.70117223866686E-05
DEBUG_STATS_RL:               GvNm1 (DYNAMICS)  max=  2.46902230587612E-05
DEBUG_STATS_RL:               GvNm1 (DYNAMICS) mean= -1.26272398005245E-08
DEBUG_STATS_RL:               GvNm1 (DYNAMICS) S.D.=  1.28555502973131E-06
DEBUG_STATS_RL:               GtNm1 (DYNAMICS)  min= -7.93311535815340E-06
DEBUG_STATS_RL:               GtNm1 (DYNAMICS)  max=  4.64963332825338E-06
DEBUG_STATS_RL:               GtNm1 (DYNAMICS) mean=  2.83427501484017E-10
DEBUG_STATS_RL:               GtNm1 (DYNAMICS) S.D.=  7.94276706335243E-08
DEBUG_STATS_RL:               GsNm1 (DYNAMICS)  min= -1.64475966961061E-05
DEBUG_STATS_RL:               GsNm1 (DYNAMICS)  max=  2.12204065499778E-06
DEBUG_STATS_RL:               GsNm1 (DYNAMICS) mean= -4.48525565231858E-09
DEBUG_STATS_RL:               GsNm1 (DYNAMICS) S.D.=  1.89692260510278E-07
(PID.TID 0000.0001) DEBUG_MSG: LEAVING S/R DYNAMICS
DEBUG_STATS_RL:    cg2d_b (SOLVE_FOR_PRESSURE)  min= -2.82091477261313E+05
DEBUG_STATS_RL:    cg2d_b (SOLVE_FOR_PRESSURE)  max=  7.34684086994085E+04
DEBUG_STATS_RL:    cg2d_b (SOLVE_FOR_PRESSURE) mean= -3.62834576388997E+03
DEBUG_STATS_RL:    cg2d_b (SOLVE_FOR_PRESSURE) S.D.=  9.00836375356123E+03
 cg2d: Sum(rhs),rhsMax =  -5.68513747104016E+01  5.40390348172084E+01
(PID.TID 0000.0001)  cg2d: iter=     1 ; resid.=  2.82972987030113E-02
(PID.TID 0000.0001)  cg2d: iter=     2 ; resid.=  4.02190962646423E-03
(PID.TID 0000.0001)  cg2d: iter=     3 ; resid.=  1.17353908697878E-03
(PID.TID 0000.0001)  cg2d: iter=     4 ; resid.=  4.03715084274955E-04
(PID.TID 0000.0001)  cg2d: iter=     5 ; resid.=  9.78361137923773E-05
(PID.TID 0000.0001)  cg2d: iter=     6 ; resid.=  2.11760024848593E-05
(PID.TID 0000.0001)  cg2d: iter=     7 ; resid.=  4.26238803803035E-06
(PID.TID 0000.0001)  cg2d: iter=     8 ; resid.=  1.14945601499731E-06
(PID.TID 0000.0001)  cg2d: iter=     9 ; resid.=  3.48434455259345E-07
(PID.TID 0000.0001)  cg2d: iter=    10 ; resid.=  9.45544747698431E-08
DEBUG_STATS_RL:    cg2d_x (SOLVE_FOR_PRESSURE)  min= -6.34460984989874E+00
DEBUG_STATS_RL:    cg2d_x (SOLVE_FOR_PRESSURE)  max=  2.36269070937640E+01
DEBUG_STATS_RL:    cg2d_x (SOLVE_FOR_PRESSURE) mean=  3.66379068796324E-01
DEBUG_STATS_RL:    cg2d_x (SOLVE_FOR_PRESSURE) S.D.=  9.36791664141903E-01
(PID.TID 0000.0001)      cg2d_init_res =   2.11273233336321E-01
(PID.TID 0000.0001)      cg2d_iters(min,last) =      -1      10
(PID.TID 0000.0001)      cg2d_last_res =   9.45544747698431E-08
(PID.TID 0000.0001) DEBUG_MSG: CALLING S/R UPDATE_ETAH
(PID.TID 0000.0001) DEBUG_MSG: ENTERED S/R CALC_R_STAR
(PID.TID 0000.0001) DEBUG_MSG: LEAVING S/R CALC_R_STAR
(PID.TID 0000.0001) DEBUG_MSG: CALLING S/R DO_STAGGER_FIELDS_EXCH.
(PID.TID 0000.0001) DEBUG_MSG: CALLING S/R THERMODYNAMICS
(PID.TID 0000.0001) DEBUG_MSG: ENTERED S/R THERMODYNAMICS
(PID.TID 0000.0001) DEBUG_MSG: CALLING S/R TEMP_INTEGRATE
(PID.TID 0000.0001) DEBUG_MSG: CALLING S/R SALT_INTEGRATE
DEBUG_STATS_RL:          Uvel (THERMODYNAMICS)  min= -5.17811454606414E-01
DEBUG_STATS_RL:          Uvel (THERMODYNAMICS)  max=  5.94758432485682E-01
DEBUG_STATS_RL:          Uvel (THERMODYNAMICS) mean= -5.92551130102872E-04
DEBUG_STATS_RL:          Uvel (THERMODYNAMICS) S.D.=  1.79739961062277E-02
DEBUG_STATS_RL:          Vvel (THERMODYNAMICS)  min= -6.11498119402894E-01
DEBUG_STATS_RL:          Vvel (THERMODYNAMICS)  max=  7.19484819188000E-01
DEBUG_STATS_RL:          Vvel (THERMODYNAMICS) mean= -5.11400269016552E-04
DEBUG_STATS_RL:          Vvel (THERMODYNAMICS) S.D.=  2.02275255125571E-02
DEBUG_STATS_RL:          Wvel (THERMODYNAMICS)  min= -2.45807117510173E-04
DEBUG_STATS_RL:          Wvel (THERMODYNAMICS)  max=  1.35540913607573E-04
DEBUG_STATS_RL:          Wvel (THERMODYNAMICS) mean= -4.16514408537509E-07
DEBUG_STATS_RL:          Wvel (THERMODYNAMICS) S.D.=  7.67377950741218E-06
DEBUG_STATS_RL:         Theta (THERMODYNAMICS)  min=  1.61577107445857E+01
DEBUG_STATS_RL:         Theta (THERMODYNAMICS)  max=  2.30337686818252E+01
DEBUG_STATS_RL:         Theta (THERMODYNAMICS) mean=  2.00018957900447E+01
DEBUG_STATS_RL:         Theta (THERMODYNAMICS) S.D.=  8.48439584087951E-02
DEBUG_STATS_RL:          Salt (THERMODYNAMICS)  min=  2.48987061005527E+01
DEBUG_STATS_RL:          Salt (THERMODYNAMICS)  max=  3.51510466604496E+01
DEBUG_STATS_RL:          Salt (THERMODYNAMICS) mean=  3.49973524498970E+01
DEBUG_STATS_RL:          Salt (THERMODYNAMICS) S.D.=  1.15103379040784E-01
DEBUG_STATS_RL:         GtNm1 (THERMODYNAMICS)  min= -8.44115567667557E-06
DEBUG_STATS_RL:         GtNm1 (THERMODYNAMICS)  max=  4.66060941574191E-06
DEBUG_STATS_RL:         GtNm1 (THERMODYNAMICS) mean=  2.55322781353641E-10
DEBUG_STATS_RL:         GtNm1 (THERMODYNAMICS) S.D.=  8.30099643972124E-08
DEBUG_STATS_RL:         GsNm1 (THERMODYNAMICS)  min= -1.64141792099729E-05
DEBUG_STATS_RL:         GsNm1 (THERMODYNAMICS)  max=  2.14273665329491E-06
DEBUG_STATS_RL:         GsNm1 (THERMODYNAMICS) mean= -4.50136621004688E-09
DEBUG_STATS_RL:         GsNm1 (THERMODYNAMICS) S.D.=  1.89501601033408E-07
(PID.TID 0000.0001) DEBUG_MSG: LEAVING S/R THERMODYNAMICS
(PID.TID 0000.0001) // =======================================================
(PID.TID 0000.0001) // Begin MONITOR dynamic field statistics
(PID.TID 0000.0001) // =======================================================
(PID.TID 0000.0001) %MON time_tsnumber                =                    56
(PID.TID 0000.0001) %MON time_secondsf                =   5.0400000000000E+04
(PID.TID 0000.0001) %MON dynstat_eta_max              =   2.4084512805859E+00
(PID.TID 0000.0001) %MON dynstat_eta_min              =  -6.4674923076660E-01
(PID.TID 0000.0001) %MON dynstat_eta_mean             =   3.5698480227210E-02
(PID.TID 0000.0001) %MON dynstat_eta_sd               =   8.8726087003019E-02
(PID.TID 0000.0001) %MON dynstat_eta_del2             =   1.7995189348772E-03
(PID.TID 0000.0001) %MON dynstat_uvel_max             =   5.9475843248568E-01
(PID.TID 0000.0001) %MON dynstat_uvel_min             =  -5.1781145460641E-01
(PID.TID 0000.0001) %MON dynstat_uvel_mean            =  -1.0358297561554E-04
(PID.TID 0000.0001) %MON dynstat_uvel_sd              =   6.0945824380507E-03
(PID.TID 0000.0001) %MON dynstat_uvel_del2            =   1.0925610147469E-04
(PID.TID 0000.0001) %MON dynstat_vvel_max             =   7.1948481918800E-01
(PID.TID 0000.0001) %MON dynstat_vvel_min             =  -6.1149811940289E-01
(PID.TID 0000.0001) %MON dynstat_vvel_mean            =   8.5409167972436E-04
(PID.TID 0000.0001) %MON dynstat_vvel_sd              =   6.7960721505469E-03
(PID.TID 0000.0001) %MON dynstat_vvel_del2            =   1.0955281402803E-04
(PID.TID 0000.0001) %MON dynstat_wvel_max             =   1.3554091360757E-04
(PID.TID 0000.0001) %MON dynstat_wvel_min             =  -2.4580711751017E-04
(PID.TID 0000.0001) %MON dynstat_wvel_mean            =  -3.9451182185055E-07
(PID.TID 0000.0001) %MON dynstat_wvel_sd              =   7.3191476375389E-06
(PID.TID 0000.0001) %MON dynstat_wvel_del2            =   7.8520041013181E-08
(PID.TID 0000.0001) %MON dynstat_theta_max            =   2.3033768681825E+01
(PID.TID 0000.0001) %MON dynstat_theta_min            =   1.6157710744586E+01
(PID.TID 0000.0001) %MON dynstat_theta_mean           =   1.9997892972131E+01
(PID.TID 0000.0001) %MON dynstat_theta_sd             =   2.8201173630756E-02
(PID.TID 0000.0001) %MON dynstat_theta_del2           =   5.0013510371919E-04
(PID.TID 0000.0001) %MON dynstat_salt_max             =   3.5151046660450E+01
(PID.TID 0000.0001) %MON dynstat_salt_min             =   2.4898706100553E+01
(PID.TID 0000.0001) %MON dynstat_salt_mean            =   3.4999654008253E+01
(PID.TID 0000.0001) %MON dynstat_salt_sd              =   3.5535577291064E-02
(PID.TID 0000.0001) %MON dynstat_salt_del2            =   1.2317044245266E-03
(PID.TID 0000.0001) %MON dynstat_sst_max              =   2.3033768681825E+01
(PID.TID 0000.0001) %MON dynstat_sst_min              =   1.6157710744586E+01
(PID.TID 0000.0001) %MON dynstat_sst_mean             =   2.0121940084728E+01
(PID.TID 0000.0001) %MON dynstat_sst_sd               =   2.5977793125318E-01
(PID.TID 0000.0001) %MON dynstat_sst_del2             =   5.7200905492988E-03
(PID.TID 0000.0001) %MON dynstat_sss_max              =   3.5151046660450E+01
(PID.TID 0000.0001) %MON dynstat_sss_min              =   2.4898706100553E+01
(PID.TID 0000.0001) %MON dynstat_sss_mean             =   3.4968626506674E+01
(PID.TID 0000.0001) %MON dynstat_sss_sd               =   4.2858185190235E-01
(PID.TID 0000.0001) %MON dynstat_sss_del2             =   1.6677490451521E-02
(PID.TID 0000.0001) %MON forcing_qnet_max             =   3.2029453125000E+03
(PID.TID 0000.0001) %MON forcing_qnet_min             =  -3.7875163574219E+03
(PID.TID 0000.0001) %MON forcing_qnet_mean            =  -9.6006547323895E+00
(PID.TID 0000.0001) %MON forcing_qnet_sd              =   4.9475504012995E+02
(PID.TID 0000.0001) %MON forcing_qnet_del2            =   6.7598880180960E+00
(PID.TID 0000.0001) %MON forcing_qsw_max              =   0.0000000000000E+00
(PID.TID 0000.0001) %MON forcing_qsw_min              =  -1.0090058827817E+02
(PID.TID 0000.0001) %MON forcing_qsw_mean             =  -1.4540856645694E+01
(PID.TID 0000.0001) %MON forcing_qsw_sd               =   2.3726078853189E+01
(PID.TID 0000.0001) %MON forcing_qsw_del2             =   1.9818227012265E-01
(PID.TID 0000.0001) %MON forcing_empmr_max            =   6.2751076184213E-03
(PID.TID 0000.0001) %MON forcing_empmr_min            =  -9.0203478932381E-02
(PID.TID 0000.0001) %MON forcing_empmr_mean           =  -4.1352546176972E-04
(PID.TID 0000.0001) %MON forcing_empmr_sd             =   3.9965717152545E-03
(PID.TID 0000.0001) %MON forcing_empmr_del2           =   1.5667949663045E-04
(PID.TID 0000.0001) %MON forcing_fu_max               =   6.6602136180875E-01
(PID.TID 0000.0001) %MON forcing_fu_min               =  -6.0733098524606E-01
(PID.TID 0000.0001) %MON forcing_fu_mean              =  -1.3367424345830E-03
(PID.TID 0000.0001) %MON forcing_fu_sd                =   8.9256270628250E-02
(PID.TID 0000.0001) %MON forcing_fu_del2              =   7.5460163236577E-04
(PID.TID 0000.0001) %MON forcing_fv_max               =   4.2723717070918E-01
(PID.TID 0000.0001) %MON forcing_fv_min               =  -4.2066331674153E-01
(PID.TID 0000.0001) %MON forcing_fv_mean              =  -6.6501484217658E-03
(PID.TID 0000.0001) %MON forcing_fv_sd                =   7.7438660567092E-02
(PID.TID 0000.0001) %MON forcing_fv_del2              =   6.4394261501841E-04
(PID.TID 0000.0001) %MON trAdv_CFL_u_max              =   1.9268018304644E-03
(PID.TID 0000.0001) %MON trAdv_CFL_v_max              =   2.3808687100416E-03
(PID.TID 0000.0001) %MON trAdv_CFL_w_max              =   3.5380935517429E-03
(PID.TID 0000.0001) %MON advcfl_uvel_max              =   1.9833805753315E-03
(PID.TID 0000.0001) %MON advcfl_vvel_max              =   2.3479414116640E-03
(PID.TID 0000.0001) %MON advcfl_wvel_max              =   6.2750246213830E-03
(PID.TID 0000.0001) %MON advcfl_W_hf_max              =   3.5380935517429E-03
(PID.TID 0000.0001) %MON pe_b_mean                    =   1.2184977730812E-05
(PID.TID 0000.0001) %MON ke_max                       =   2.0791951763754E-01
(PID.TID 0000.0001) %MON ke_mean                      =   3.8836615576205E-05
(PID.TID 0000.0001) %MON ke_vol                       =   1.3398153047172E+18
(PID.TID 0000.0001) %MON vort_r_min                   =  -3.6512463390695E-06
(PID.TID 0000.0001) %MON vort_r_max                   =   2.9430153909306E-06
(PID.TID 0000.0001) %MON vort_a_mean                  =  -2.0549865324846E-05
(PID.TID 0000.0001) %MON vort_a_sd                    =   7.5259454538883E-05
(PID.TID 0000.0001) %MON vort_p_mean                  =  -2.4783287174060E-05
(PID.TID 0000.0001) %MON vort_p_sd                    =   1.2810514888388E-04
(PID.TID 0000.0001) %MON surfExpan_theta_mean         =  -9.3719954782687E-08
(PID.TID 0000.0001) %MON surfExpan_salt_mean          =   1.5866835986479E-06
(PID.TID 0000.0001) // =======================================================
(PID.TID 0000.0001) // End MONITOR dynamic field statistics
(PID.TID 0000.0001) // =======================================================
(PID.TID 0000.0001) DEBUG_MSG: LEAVING S/R FORWARD_STEP
(PID.TID 0000.0001) DEBUG_MSG: ENTERED S/R FORWARD_STEP
(PID.TID 0000.0001) DEBUG_MSG: CALLING S/R LOAD_FIELDS_DRIVER
(PID.TID 0000.0001) DEBUG_MSG: ENTERED S/R LOAD_FIELDS_DRIVER
(PID.TID 0000.0001) DEBUG_MSG: CALLING S/R EXTERNAL_FIELDS_LOAD
(PID.TID 0000.0001) DEBUG_MSG: LEAVING S/R LOAD_FIELDS_DRIVER
(PID.TID 0000.0001) DEBUG_MSG: CALLING S/R DO_ATMOSPHERIC_PHYS
(PID.TID 0000.0001) DEBUG_MSG: ENTERED S/R DO_ATMOSPHERIC_PHYS
(PID.TID 0000.0001) DEBUG_MSG: LEAVING S/R DO_ATMOSPHERIC_PHYS
(PID.TID 0000.0001) DEBUG_MSG: CALLING S/R DO_OCEANIC_PHYS
(PID.TID 0000.0001) DEBUG_MSG: ENTERED S/R DO_OCEANIC_PHYS
(PID.TID 0000.0001) DEBUG_MSG: CALLING S/R EXTERNAL_FORCING_SURF
(PID.TID 0000.0001) DEBUG_MSG: CALLING S/R FIND_RHO_2D (xNr)
(PID.TID 0000.0001) DEBUG_MSG:                  ENTERING UPWARD K LOOP (bi=   1, bj=   1)
(PID.TID 0000.0001) DEBUG_MSG: CALLING S/R GRAD_SIGMA
(PID.TID 0000.0001) DEBUG_MSG: CALLING S/R CALC_IVDC
(PID.TID 0000.0001) DEBUG_MSG: CALLING S/R GRAD_SIGMA
(PID.TID 0000.0001) DEBUG_MSG: CALLING S/R CALC_IVDC
(PID.TID 0000.0001) DEBUG_MSG: CALLING S/R GRAD_SIGMA
(PID.TID 0000.0001) DEBUG_MSG: CALLING S/R CALC_IVDC
(PID.TID 0000.0001) DEBUG_MSG: CALLING S/R GRAD_SIGMA
(PID.TID 0000.0001) DEBUG_MSG: CALLING S/R CALC_IVDC
(PID.TID 0000.0001) DEBUG_MSG: CALLING S/R GRAD_SIGMA
(PID.TID 0000.0001) DEBUG_MSG: CALLING S/R CALC_IVDC
(PID.TID 0000.0001) DEBUG_MSG: CALLING S/R GRAD_SIGMA
(PID.TID 0000.0001) DEBUG_MSG: CALLING S/R CALC_IVDC
(PID.TID 0000.0001) DEBUG_MSG: CALLING S/R GRAD_SIGMA
(PID.TID 0000.0001) DEBUG_MSG: CALLING S/R CALC_IVDC
(PID.TID 0000.0001) DEBUG_MSG: CALLING S/R GRAD_SIGMA
(PID.TID 0000.0001) DEBUG_MSG: CALLING S/R CALC_IVDC
(PID.TID 0000.0001) DEBUG_MSG: CALLING S/R GRAD_SIGMA
(PID.TID 0000.0001) DEBUG_MSG: CALLING S/R CALC_IVDC
(PID.TID 0000.0001) DEBUG_MSG: CALLING S/R GRAD_SIGMA
(PID.TID 0000.0001) DEBUG_MSG: CALLING S/R CALC_IVDC
(PID.TID 0000.0001) DEBUG_MSG: CALLING S/R GRAD_SIGMA
(PID.TID 0000.0001) DEBUG_MSG: CALLING S/R CALC_IVDC
(PID.TID 0000.0001) DEBUG_MSG: CALLING S/R GRAD_SIGMA
(PID.TID 0000.0001) DEBUG_MSG: CALLING S/R CALC_IVDC
(PID.TID 0000.0001) DEBUG_MSG: CALLING S/R GRAD_SIGMA
(PID.TID 0000.0001) DEBUG_MSG: CALLING S/R CALC_IVDC
(PID.TID 0000.0001) DEBUG_MSG: CALLING S/R GRAD_SIGMA
(PID.TID 0000.0001) DEBUG_MSG: CALLING S/R CALC_IVDC
(PID.TID 0000.0001) DEBUG_MSG: CALLING S/R GRAD_SIGMA
(PID.TID 0000.0001) DEBUG_MSG: CALLING S/R CALC_IVDC
(PID.TID 0000.0001) DEBUG_MSG: CALLING S/R GRAD_SIGMA
(PID.TID 0000.0001) DEBUG_MSG: CALLING S/R GMREDI_CALC_TENSOR
(PID.TID 0000.0001) DEBUG_MSG: LEAVING S/R DO_OCEANIC_PHYS
(PID.TID 0000.0001) DEBUG_MSG: CALLING S/R DYNAMICS
(PID.TID 0000.0001) DEBUG_MSG: ENTERED S/R DYNAMICS
DEBUG_STATS_RL:                EtaN (DYNAMICS)  min= -6.46749230766596E-01
DEBUG_STATS_RL:                EtaN (DYNAMICS)  max=  2.40845128058585E+00
DEBUG_STATS_RL:                EtaN (DYNAMICS) mean=  3.73475097429418E-02
DEBUG_STATS_RL:                EtaN (DYNAMICS) S.D.=  9.54935439068107E-02
DEBUG_STATS_RL:                Uvel (DYNAMICS)  min= -5.17811454606414E-01
DEBUG_STATS_RL:                Uvel (DYNAMICS)  max=  5.94758432485682E-01
DEBUG_STATS_RL:                Uvel (DYNAMICS) mean= -5.92551130102872E-04
DEBUG_STATS_RL:                Uvel (DYNAMICS) S.D.=  1.79739961062277E-02
DEBUG_STATS_RL:                Vvel (DYNAMICS)  min= -6.11498119402894E-01
DEBUG_STATS_RL:                Vvel (DYNAMICS)  max=  7.19484819188000E-01
DEBUG_STATS_RL:                Vvel (DYNAMICS) mean= -5.11400269016552E-04
DEBUG_STATS_RL:                Vvel (DYNAMICS) S.D.=  2.02275255125571E-02
DEBUG_STATS_RL:                Wvel (DYNAMICS)  min= -2.45807117510173E-04
DEBUG_STATS_RL:                Wvel (DYNAMICS)  max=  1.35540913607573E-04
DEBUG_STATS_RL:                Wvel (DYNAMICS) mean= -4.16514408537509E-07
DEBUG_STATS_RL:                Wvel (DYNAMICS) S.D.=  7.67377950741218E-06
DEBUG_STATS_RL:               Theta (DYNAMICS)  min=  1.61577107445857E+01
DEBUG_STATS_RL:               Theta (DYNAMICS)  max=  2.30337686818252E+01
DEBUG_STATS_RL:               Theta (DYNAMICS) mean=  2.00018957900447E+01
DEBUG_STATS_RL:               Theta (DYNAMICS) S.D.=  8.48439584087951E-02
DEBUG_STATS_RL:                Salt (DYNAMICS)  min=  2.48987061005527E+01
DEBUG_STATS_RL:                Salt (DYNAMICS)  max=  3.51510466604496E+01
DEBUG_STATS_RL:                Salt (DYNAMICS) mean=  3.49973524498970E+01
DEBUG_STATS_RL:                Salt (DYNAMICS) S.D.=  1.15103379040784E-01
DEBUG_STATS_RL:                  Gu (DYNAMICS)  min= -5.30441651485209E-01
DEBUG_STATS_RL:                  Gu (DYNAMICS)  max=  6.08455504806963E-01
DEBUG_STATS_RL:                  Gu (DYNAMICS) mean= -5.66708828362414E-04
DEBUG_STATS_RL:                  Gu (DYNAMICS) S.D.=  1.77625019524701E-02
DEBUG_STATS_RL:                  Gv (DYNAMICS)  min= -5.93026061155356E-01
DEBUG_STATS_RL:                  Gv (DYNAMICS)  max=  6.98835953391916E-01
DEBUG_STATS_RL:                  Gv (DYNAMICS) mean= -5.23540802530892E-04
DEBUG_STATS_RL:                  Gv (DYNAMICS) S.D.=  2.00223023228060E-02
DEBUG_STATS_RL:               GuNm1 (DYNAMICS)  min= -2.40958238309950E-05
DEBUG_STATS_RL:               GuNm1 (DYNAMICS)  max=  4.74958233063939E-05
DEBUG_STATS_RL:               GuNm1 (DYNAMICS) mean=  2.79538638352865E-08
DEBUG_STATS_RL:               GuNm1 (DYNAMICS) S.D.=  1.36006194595716E-06
DEBUG_STATS_RL:               GvNm1 (DYNAMICS)  min= -2.62813372805193E-05
DEBUG_STATS_RL:               GvNm1 (DYNAMICS)  max=  2.29092607840557E-05
DEBUG_STATS_RL:               GvNm1 (DYNAMICS) mean= -1.36947932035609E-08
DEBUG_STATS_RL:               GvNm1 (DYNAMICS) S.D.=  1.26724134400166E-06
DEBUG_STATS_RL:               GtNm1 (DYNAMICS)  min= -8.44115567667557E-06
DEBUG_STATS_RL:               GtNm1 (DYNAMICS)  max=  4.66060941574191E-06
DEBUG_STATS_RL:               GtNm1 (DYNAMICS) mean=  2.55322781353641E-10
DEBUG_STATS_RL:               GtNm1 (DYNAMICS) S.D.=  8.30099643972124E-08
DEBUG_STATS_RL:               GsNm1 (DYNAMICS)  min= -1.64141792099729E-05
DEBUG_STATS_RL:               GsNm1 (DYNAMICS)  max=  2.14273665329491E-06
DEBUG_STATS_RL:               GsNm1 (DYNAMICS) mean= -4.50136621004688E-09
DEBUG_STATS_RL:               GsNm1 (DYNAMICS) S.D.=  1.89501601033408E-07
(PID.TID 0000.0001) DEBUG_MSG: LEAVING S/R DYNAMICS
DEBUG_STATS_RL:    cg2d_b (SOLVE_FOR_PRESSURE)  min= -2.66053363768521E+05
DEBUG_STATS_RL:    cg2d_b (SOLVE_FOR_PRESSURE)  max=  7.79365833713989E+04
DEBUG_STATS_RL:    cg2d_b (SOLVE_FOR_PRESSURE) mean= -3.66463629480626E+03
DEBUG_STATS_RL:    cg2d_b (SOLVE_FOR_PRESSURE) S.D.=  8.65655543721084E+03
 cg2d: Sum(rhs),rhsMax =  -6.08813667815019E+01  5.09666833167181E+01
(PID.TID 0000.0001)  cg2d: iter=     1 ; resid.=  2.88602286218351E-02
(PID.TID 0000.0001)  cg2d: iter=     2 ; resid.=  4.08134237794984E-03
(PID.TID 0000.0001)  cg2d: iter=     3 ; resid.=  1.18867357566371E-03
(PID.TID 0000.0001)  cg2d: iter=     4 ; resid.=  4.10876818741355E-04
(PID.TID 0000.0001)  cg2d: iter=     5 ; resid.=  1.00712840191200E-04
(PID.TID 0000.0001)  cg2d: iter=     6 ; resid.=  2.15663771821638E-05
(PID.TID 0000.0001)  cg2d: iter=     7 ; resid.=  4.32367866596107E-06
(PID.TID 0000.0001)  cg2d: iter=     8 ; resid.=  1.15590814353797E-06
(PID.TID 0000.0001)  cg2d: iter=     9 ; resid.=  3.55585064246841E-07
(PID.TID 0000.0001)  cg2d: iter=    10 ; resid.=  9.66781254693097E-08
DEBUG_STATS_RL:    cg2d_x (SOLVE_FOR_PRESSURE)  min= -6.72056902982382E+00
DEBUG_STATS_RL:    cg2d_x (SOLVE_FOR_PRESSURE)  max=  2.22863499206292E+01
DEBUG_STATS_RL:    cg2d_x (SOLVE_FOR_PRESSURE) mean=  3.70590849560748E-01
DEBUG_STATS_RL:    cg2d_x (SOLVE_FOR_PRESSURE) S.D.=  9.04485972172073E-01
(PID.TID 0000.0001)      cg2d_init_res =   2.27736336845355E-01
(PID.TID 0000.0001)      cg2d_iters(min,last) =      -1      10
(PID.TID 0000.0001)      cg2d_last_res =   9.66781254693097E-08
(PID.TID 0000.0001) DEBUG_MSG: CALLING S/R UPDATE_ETAH
(PID.TID 0000.0001) DEBUG_MSG: ENTERED S/R CALC_R_STAR
(PID.TID 0000.0001) DEBUG_MSG: LEAVING S/R CALC_R_STAR
(PID.TID 0000.0001) DEBUG_MSG: CALLING S/R DO_STAGGER_FIELDS_EXCH.
(PID.TID 0000.0001) DEBUG_MSG: CALLING S/R THERMODYNAMICS
(PID.TID 0000.0001) DEBUG_MSG: ENTERED S/R THERMODYNAMICS
(PID.TID 0000.0001) DEBUG_MSG: CALLING S/R TEMP_INTEGRATE
(PID.TID 0000.0001) DEBUG_MSG: CALLING S/R SALT_INTEGRATE
DEBUG_STATS_RL:          Uvel (THERMODYNAMICS)  min= -5.40982581965916E-01
DEBUG_STATS_RL:          Uvel (THERMODYNAMICS)  max=  6.49422344024268E-01
DEBUG_STATS_RL:          Uvel (THERMODYNAMICS) mean= -5.66082772595369E-04
DEBUG_STATS_RL:          Uvel (THERMODYNAMICS) S.D.=  1.79499524303456E-02
DEBUG_STATS_RL:          Vvel (THERMODYNAMICS)  min= -6.25547143167392E-01
DEBUG_STATS_RL:          Vvel (THERMODYNAMICS)  max=  7.41177177992144E-01
DEBUG_STATS_RL:          Vvel (THERMODYNAMICS) mean= -5.04509381823278E-04
DEBUG_STATS_RL:          Vvel (THERMODYNAMICS) S.D.=  2.02163775050452E-02
DEBUG_STATS_RL:          Wvel (THERMODYNAMICS)  min= -2.46252093051795E-04
DEBUG_STATS_RL:          Wvel (THERMODYNAMICS)  max=  1.36267109687145E-04
DEBUG_STATS_RL:          Wvel (THERMODYNAMICS) mean= -4.10550019743068E-07
DEBUG_STATS_RL:          Wvel (THERMODYNAMICS) S.D.=  7.64528623650656E-06
DEBUG_STATS_RL:         Theta (THERMODYNAMICS)  min=  1.61519970531397E+01
DEBUG_STATS_RL:         Theta (THERMODYNAMICS)  max=  2.30703479693288E+01
DEBUG_STATS_RL:         Theta (THERMODYNAMICS) mean=  2.00019967870156E+01
DEBUG_STATS_RL:         Theta (THERMODYNAMICS) S.D.=  8.54316830167739E-02
DEBUG_STATS_RL:          Salt (THERMODYNAMICS)  min=  2.48190771408324E+01
DEBUG_STATS_RL:          Salt (THERMODYNAMICS)  max=  3.51510372752323E+01
DEBUG_STATS_RL:          Salt (THERMODYNAMICS) mean=  3.49973262039379E+01
DEBUG_STATS_RL:          Salt (THERMODYNAMICS) S.D.=  1.16054846074585E-01
DEBUG_STATS_RL:         GtNm1 (THERMODYNAMICS)  min= -8.83313878728536E-06
DEBUG_STATS_RL:         GtNm1 (THERMODYNAMICS)  max=  4.67248122562930E-06
DEBUG_STATS_RL:         GtNm1 (THERMODYNAMICS) mean=  2.41737934529105E-10
DEBUG_STATS_RL:         GtNm1 (THERMODYNAMICS) S.D.=  8.63280125243861E-08
DEBUG_STATS_RL:         GsNm1 (THERMODYNAMICS)  min= -1.63755687784337E-05
DEBUG_STATS_RL:         GsNm1 (THERMODYNAMICS)  max=  2.15861169060292E-06
DEBUG_STATS_RL:         GsNm1 (THERMODYNAMICS) mean= -4.51653896423133E-09
DEBUG_STATS_RL:         GsNm1 (THERMODYNAMICS) S.D.=  1.89302569788298E-07
(PID.TID 0000.0001) DEBUG_MSG: LEAVING S/R THERMODYNAMICS
(PID.TID 0000.0001) // =======================================================
(PID.TID 0000.0001) // Begin MONITOR dynamic field statistics
(PID.TID 0000.0001) // =======================================================
(PID.TID 0000.0001) %MON time_tsnumber                =                    57
(PID.TID 0000.0001) %MON time_secondsf                =   5.1300000000000E+04
(PID.TID 0000.0001) %MON dynstat_eta_max              =   2.2717991728742E+00
(PID.TID 0000.0001) %MON dynstat_eta_min              =  -6.8507330521687E-01
(PID.TID 0000.0001) %MON dynstat_eta_mean             =   3.6055534621872E-02
(PID.TID 0000.0001) %MON dynstat_eta_sd               =   8.5332883558715E-02
(PID.TID 0000.0001) %MON dynstat_eta_del2             =   1.6731195722307E-03
(PID.TID 0000.0001) %MON dynstat_uvel_max             =   6.4942234402427E-01
(PID.TID 0000.0001) %MON dynstat_uvel_min             =  -5.4098258196592E-01
(PID.TID 0000.0001) %MON dynstat_uvel_mean            =  -9.0540898707926E-05
(PID.TID 0000.0001) %MON dynstat_uvel_sd              =   6.0903598677097E-03
(PID.TID 0000.0001) %MON dynstat_uvel_del2            =   1.1002782846792E-04
(PID.TID 0000.0001) %MON dynstat_vvel_max             =   7.4117717799214E-01
(PID.TID 0000.0001) %MON dynstat_vvel_min             =  -6.2554714316739E-01
(PID.TID 0000.0001) %MON dynstat_vvel_mean            =   8.8072053415731E-04
(PID.TID 0000.0001) %MON dynstat_vvel_sd              =   6.7971901563718E-03
(PID.TID 0000.0001) %MON dynstat_vvel_del2            =   1.1218755000786E-04
(PID.TID 0000.0001) %MON dynstat_wvel_max             =   1.3626710968715E-04
(PID.TID 0000.0001) %MON dynstat_wvel_min             =  -2.4625209305180E-04
(PID.TID 0000.0001) %MON dynstat_wvel_mean            =  -3.9037204825872E-07
(PID.TID 0000.0001) %MON dynstat_wvel_sd              =   7.3013002305513E-06
(PID.TID 0000.0001) %MON dynstat_wvel_del2            =   7.8282892401722E-08
(PID.TID 0000.0001) %MON dynstat_theta_max            =   2.3070347969329E+01
(PID.TID 0000.0001) %MON dynstat_theta_min            =   1.6151997053140E+01
(PID.TID 0000.0001) %MON dynstat_theta_mean           =   1.9997893770238E+01
(PID.TID 0000.0001) %MON dynstat_theta_sd             =   2.8381295811068E-02
(PID.TID 0000.0001) %MON dynstat_theta_del2           =   5.0281110271728E-04
(PID.TID 0000.0001) %MON dynstat_salt_max             =   3.5151037275232E+01
(PID.TID 0000.0001) %MON dynstat_salt_min             =   2.4819077140832E+01
(PID.TID 0000.0001) %MON dynstat_salt_mean            =   3.4999650742782E+01
(PID.TID 0000.0001) %MON dynstat_salt_sd              =   3.5829968186726E-02
(PID.TID 0000.0001) %MON dynstat_salt_del2            =   1.2414247549722E-03
(PID.TID 0000.0001) %MON dynstat_sst_max              =   2.3070347969329E+01
(PID.TID 0000.0001) %MON dynstat_sst_min              =   1.6151997053140E+01
(PID.TID 0000.0001) %MON dynstat_sst_mean             =   2.0123401641082E+01
(PID.TID 0000.0001) %MON dynstat_sst_sd               =   2.6173394887116E-01
(PID.TID 0000.0001) %MON dynstat_sst_del2             =   5.7579031214298E-03
(PID.TID 0000.0001) %MON dynstat_sss_max              =   3.5151037275232E+01
(PID.TID 0000.0001) %MON dynstat_sss_min              =   2.4819077140832E+01
(PID.TID 0000.0001) %MON dynstat_sss_mean             =   3.4968273799392E+01
(PID.TID 0000.0001) %MON dynstat_sss_sd               =   4.3211009479581E-01
(PID.TID 0000.0001) %MON dynstat_sss_del2             =   1.6808561602614E-02
(PID.TID 0000.0001) %MON forcing_qnet_max             =   3.1579179687500E+03
(PID.TID 0000.0001) %MON forcing_qnet_min             =  -3.7339106445312E+03
(PID.TID 0000.0001) %MON forcing_qnet_mean            =  -1.1957100871325E+01
(PID.TID 0000.0001) %MON forcing_qnet_sd              =   4.9247864147532E+02
(PID.TID 0000.0001) %MON forcing_qnet_del2            =   6.7085489602119E+00
(PID.TID 0000.0001) %MON forcing_qsw_max              =   0.0000000000000E+00
(PID.TID 0000.0001) %MON forcing_qsw_min              =  -1.0203501729650E+02
(PID.TID 0000.0001) %MON forcing_qsw_mean             =  -1.4876470957379E+01
(PID.TID 0000.0001) %MON forcing_qsw_sd               =   2.4379566603227E+01
(PID.TID 0000.0001) %MON forcing_qsw_del2             =   1.9974352812551E-01
(PID.TID 0000.0001) %MON forcing_empmr_max            =   6.2104561366141E-03
(PID.TID 0000.0001) %MON forcing_empmr_min            =  -8.9274607598782E-02
(PID.TID 0000.0001) %MON forcing_empmr_mean           =  -4.1061255386137E-04
(PID.TID 0000.0001) %MON forcing_empmr_sd             =   3.9561086849491E-03
(PID.TID 0000.0001) %MON forcing_empmr_del2           =   1.5506624861952E-04
(PID.TID 0000.0001) %MON forcing_fu_max               =   6.6165164133107E-01
(PID.TID 0000.0001) %MON forcing_fu_min               =  -6.0990600630208E-01
(PID.TID 0000.0001) %MON forcing_fu_mean              =  -1.3357494049243E-03
(PID.TID 0000.0001) %MON forcing_fu_sd                =   8.9072054839343E-02
(PID.TID 0000.0001) %MON forcing_fu_del2              =   7.5214781941702E-04
(PID.TID 0000.0001) %MON forcing_fv_max               =   4.2474478550923E-01
(PID.TID 0000.0001) %MON forcing_fv_min               =  -4.2105296128324E-01
(PID.TID 0000.0001) %MON forcing_fv_mean              =  -6.7180629587785E-03
(PID.TID 0000.0001) %MON forcing_fv_sd                =   7.7179301885053E-02
(PID.TID 0000.0001) %MON forcing_fv_del2              =   6.4213538240428E-04
(PID.TID 0000.0001) %MON trAdv_CFL_u_max              =   2.1078367328902E-03
(PID.TID 0000.0001) %MON trAdv_CFL_v_max              =   2.4571875545842E-03
(PID.TID 0000.0001) %MON trAdv_CFL_w_max              =   3.4956945055283E-03
(PID.TID 0000.0001) %MON advcfl_uvel_max              =   2.1656719635581E-03
(PID.TID 0000.0001) %MON advcfl_vvel_max              =   2.4187314911689E-03
(PID.TID 0000.0001) %MON advcfl_wvel_max              =   6.2104074851326E-03
(PID.TID 0000.0001) %MON advcfl_W_hf_max              =   3.4956945055283E-03
(PID.TID 0000.0001) %MON pe_b_mean                    =   1.1432302876223E-05
(PID.TID 0000.0001) %MON ke_max                       =   2.3301739649125E-01
(PID.TID 0000.0001) %MON ke_mean                      =   3.8840341992134E-05
(PID.TID 0000.0001) %MON ke_vol                       =   1.3398154355663E+18
(PID.TID 0000.0001) %MON vort_r_min                   =  -3.7717051676145E-06
(PID.TID 0000.0001) %MON vort_r_max                   =   2.9562380662288E-06
(PID.TID 0000.0001) %MON vort_a_mean                  =  -2.0549865324846E-05
(PID.TID 0000.0001) %MON vort_a_sd                    =   7.5259461477817E-05
(PID.TID 0000.0001) %MON vort_p_mean                  =  -2.4783284222386E-05
(PID.TID 0000.0001) %MON vort_p_sd                    =   1.2810514717933E-04
(PID.TID 0000.0001) %MON surfExpan_theta_mean         =  -8.9473438437846E-08
(PID.TID 0000.0001) %MON surfExpan_salt_mean          =   1.5890767301398E-06
(PID.TID 0000.0001) // =======================================================
(PID.TID 0000.0001) // End MONITOR dynamic field statistics
(PID.TID 0000.0001) // =======================================================
(PID.TID 0000.0001) DEBUG_MSG: LEAVING S/R FORWARD_STEP
(PID.TID 0000.0001) DEBUG_MSG: ENTERED S/R FORWARD_STEP
(PID.TID 0000.0001) DEBUG_MSG: CALLING S/R LOAD_FIELDS_DRIVER
(PID.TID 0000.0001) DEBUG_MSG: ENTERED S/R LOAD_FIELDS_DRIVER
(PID.TID 0000.0001) DEBUG_MSG: CALLING S/R EXTERNAL_FIELDS_LOAD
(PID.TID 0000.0001) DEBUG_MSG: LEAVING S/R LOAD_FIELDS_DRIVER
(PID.TID 0000.0001) DEBUG_MSG: CALLING S/R DO_ATMOSPHERIC_PHYS
(PID.TID 0000.0001) DEBUG_MSG: ENTERED S/R DO_ATMOSPHERIC_PHYS
(PID.TID 0000.0001) DEBUG_MSG: LEAVING S/R DO_ATMOSPHERIC_PHYS
(PID.TID 0000.0001) DEBUG_MSG: CALLING S/R DO_OCEANIC_PHYS
(PID.TID 0000.0001) DEBUG_MSG: ENTERED S/R DO_OCEANIC_PHYS
(PID.TID 0000.0001) DEBUG_MSG: CALLING S/R EXTERNAL_FORCING_SURF
(PID.TID 0000.0001) DEBUG_MSG: CALLING S/R FIND_RHO_2D (xNr)
(PID.TID 0000.0001) DEBUG_MSG:                  ENTERING UPWARD K LOOP (bi=   1, bj=   1)
(PID.TID 0000.0001) DEBUG_MSG: CALLING S/R GRAD_SIGMA
(PID.TID 0000.0001) DEBUG_MSG: CALLING S/R CALC_IVDC
(PID.TID 0000.0001) DEBUG_MSG: CALLING S/R GRAD_SIGMA
(PID.TID 0000.0001) DEBUG_MSG: CALLING S/R CALC_IVDC
(PID.TID 0000.0001) DEBUG_MSG: CALLING S/R GRAD_SIGMA
(PID.TID 0000.0001) DEBUG_MSG: CALLING S/R CALC_IVDC
(PID.TID 0000.0001) DEBUG_MSG: CALLING S/R GRAD_SIGMA
(PID.TID 0000.0001) DEBUG_MSG: CALLING S/R CALC_IVDC
(PID.TID 0000.0001) DEBUG_MSG: CALLING S/R GRAD_SIGMA
(PID.TID 0000.0001) DEBUG_MSG: CALLING S/R CALC_IVDC
(PID.TID 0000.0001) DEBUG_MSG: CALLING S/R GRAD_SIGMA
(PID.TID 0000.0001) DEBUG_MSG: CALLING S/R CALC_IVDC
(PID.TID 0000.0001) DEBUG_MSG: CALLING S/R GRAD_SIGMA
(PID.TID 0000.0001) DEBUG_MSG: CALLING S/R CALC_IVDC
(PID.TID 0000.0001) DEBUG_MSG: CALLING S/R GRAD_SIGMA
(PID.TID 0000.0001) DEBUG_MSG: CALLING S/R CALC_IVDC
(PID.TID 0000.0001) DEBUG_MSG: CALLING S/R GRAD_SIGMA
(PID.TID 0000.0001) DEBUG_MSG: CALLING S/R CALC_IVDC
(PID.TID 0000.0001) DEBUG_MSG: CALLING S/R GRAD_SIGMA
(PID.TID 0000.0001) DEBUG_MSG: CALLING S/R CALC_IVDC
(PID.TID 0000.0001) DEBUG_MSG: CALLING S/R GRAD_SIGMA
(PID.TID 0000.0001) DEBUG_MSG: CALLING S/R CALC_IVDC
(PID.TID 0000.0001) DEBUG_MSG: CALLING S/R GRAD_SIGMA
(PID.TID 0000.0001) DEBUG_MSG: CALLING S/R CALC_IVDC
(PID.TID 0000.0001) DEBUG_MSG: CALLING S/R GRAD_SIGMA
(PID.TID 0000.0001) DEBUG_MSG: CALLING S/R CALC_IVDC
(PID.TID 0000.0001) DEBUG_MSG: CALLING S/R GRAD_SIGMA
(PID.TID 0000.0001) DEBUG_MSG: CALLING S/R CALC_IVDC
(PID.TID 0000.0001) DEBUG_MSG: CALLING S/R GRAD_SIGMA
(PID.TID 0000.0001) DEBUG_MSG: CALLING S/R CALC_IVDC
(PID.TID 0000.0001) DEBUG_MSG: CALLING S/R GRAD_SIGMA
(PID.TID 0000.0001) DEBUG_MSG: CALLING S/R GMREDI_CALC_TENSOR
(PID.TID 0000.0001) DEBUG_MSG: LEAVING S/R DO_OCEANIC_PHYS
(PID.TID 0000.0001) DEBUG_MSG: CALLING S/R DYNAMICS
(PID.TID 0000.0001) DEBUG_MSG: ENTERED S/R DYNAMICS
DEBUG_STATS_RL:                EtaN (DYNAMICS)  min= -6.85073305216867E-01
DEBUG_STATS_RL:                EtaN (DYNAMICS)  max=  2.27179917287421E+00
DEBUG_STATS_RL:                EtaN (DYNAMICS) mean=  3.77768452122379E-02
DEBUG_STATS_RL:                EtaN (DYNAMICS) S.D.=  9.22004050697155E-02
DEBUG_STATS_RL:                Uvel (DYNAMICS)  min= -5.40982581965916E-01
DEBUG_STATS_RL:                Uvel (DYNAMICS)  max=  6.49422344024268E-01
DEBUG_STATS_RL:                Uvel (DYNAMICS) mean= -5.66082772595369E-04
DEBUG_STATS_RL:                Uvel (DYNAMICS) S.D.=  1.79499524303456E-02
DEBUG_STATS_RL:                Vvel (DYNAMICS)  min= -6.25547143167392E-01
DEBUG_STATS_RL:                Vvel (DYNAMICS)  max=  7.41177177992144E-01
DEBUG_STATS_RL:                Vvel (DYNAMICS) mean= -5.04509381823278E-04
DEBUG_STATS_RL:                Vvel (DYNAMICS) S.D.=  2.02163775050452E-02
DEBUG_STATS_RL:                Wvel (DYNAMICS)  min= -2.46252093051795E-04
DEBUG_STATS_RL:                Wvel (DYNAMICS)  max=  1.36267109687145E-04
DEBUG_STATS_RL:                Wvel (DYNAMICS) mean= -4.10550019743068E-07
DEBUG_STATS_RL:                Wvel (DYNAMICS) S.D.=  7.64528623650656E-06
DEBUG_STATS_RL:               Theta (DYNAMICS)  min=  1.61519970531397E+01
DEBUG_STATS_RL:               Theta (DYNAMICS)  max=  2.30703479693288E+01
DEBUG_STATS_RL:               Theta (DYNAMICS) mean=  2.00019967870156E+01
DEBUG_STATS_RL:               Theta (DYNAMICS) S.D.=  8.54316830167739E-02
DEBUG_STATS_RL:                Salt (DYNAMICS)  min=  2.48190771408324E+01
DEBUG_STATS_RL:                Salt (DYNAMICS)  max=  3.51510372752323E+01
DEBUG_STATS_RL:                Salt (DYNAMICS) mean=  3.49973262039379E+01
DEBUG_STATS_RL:                Salt (DYNAMICS) S.D.=  1.16054846074585E-01
DEBUG_STATS_RL:                  Gu (DYNAMICS)  min= -5.54313063244990E-01
DEBUG_STATS_RL:                  Gu (DYNAMICS)  max=  6.61702888141393E-01
DEBUG_STATS_RL:                  Gu (DYNAMICS) mean= -5.40637206768151E-04
DEBUG_STATS_RL:                  Gu (DYNAMICS) S.D.=  1.77756325781340E-02
DEBUG_STATS_RL:                  Gv (DYNAMICS)  min= -6.08588734943180E-01
DEBUG_STATS_RL:                  Gv (DYNAMICS)  max=  7.17405507703338E-01
DEBUG_STATS_RL:                  Gv (DYNAMICS) mean= -5.17469362257041E-04
DEBUG_STATS_RL:                  Gv (DYNAMICS) S.D.=  2.00133863895502E-02
DEBUG_STATS_RL:               GuNm1 (DYNAMICS)  min= -2.52353748569725E-05
DEBUG_STATS_RL:               GuNm1 (DYNAMICS)  max=  4.76804578215929E-05
DEBUG_STATS_RL:               GuNm1 (DYNAMICS) mean=  2.77928958038967E-08
DEBUG_STATS_RL:               GuNm1 (DYNAMICS) S.D.=  1.37507809327325E-06
DEBUG_STATS_RL:               GvNm1 (DYNAMICS)  min= -2.62427838915709E-05
DEBUG_STATS_RL:               GvNm1 (DYNAMICS)  max=  2.16403418831783E-05
DEBUG_STATS_RL:               GvNm1 (DYNAMICS) mean= -1.46797811028562E-08
DEBUG_STATS_RL:               GvNm1 (DYNAMICS) S.D.=  1.25057342400395E-06
DEBUG_STATS_RL:               GtNm1 (DYNAMICS)  min= -8.83313878728536E-06
DEBUG_STATS_RL:               GtNm1 (DYNAMICS)  max=  4.67248122562930E-06
DEBUG_STATS_RL:               GtNm1 (DYNAMICS) mean=  2.41737934529105E-10
DEBUG_STATS_RL:               GtNm1 (DYNAMICS) S.D.=  8.63280125243861E-08
DEBUG_STATS_RL:               GsNm1 (DYNAMICS)  min= -1.63755687784337E-05
DEBUG_STATS_RL:               GsNm1 (DYNAMICS)  max=  2.15861169060292E-06
DEBUG_STATS_RL:               GsNm1 (DYNAMICS) mean= -4.51653896423133E-09
DEBUG_STATS_RL:               GsNm1 (DYNAMICS) S.D.=  1.89302569788298E-07
(PID.TID 0000.0001) DEBUG_MSG: LEAVING S/R DYNAMICS
DEBUG_STATS_RL:    cg2d_b (SOLVE_FOR_PRESSURE)  min= -2.48819163589391E+05
DEBUG_STATS_RL:    cg2d_b (SOLVE_FOR_PRESSURE)  max=  8.11703065281718E+04
DEBUG_STATS_RL:    cg2d_b (SOLVE_FOR_PRESSURE) mean= -3.70079028636239E+03
DEBUG_STATS_RL:    cg2d_b (SOLVE_FOR_PRESSURE) S.D.=  8.32526642145719E+03
 cg2d: Sum(rhs),rhsMax =  -6.57404873071409E+01  4.76652027028106E+01
(PID.TID 0000.0001)  cg2d: iter=     1 ; resid.=  2.96092489419663E-02
(PID.TID 0000.0001)  cg2d: iter=     2 ; resid.=  4.16654110300900E-03
(PID.TID 0000.0001)  cg2d: iter=     3 ; resid.=  1.19161198044052E-03
(PID.TID 0000.0001)  cg2d: iter=     4 ; resid.=  4.12911731966023E-04
(PID.TID 0000.0001)  cg2d: iter=     5 ; resid.=  1.05213249760985E-04
(PID.TID 0000.0001)  cg2d: iter=     6 ; resid.=  2.24643149215780E-05
(PID.TID 0000.0001)  cg2d: iter=     7 ; resid.=  4.40803237630290E-06
(PID.TID 0000.0001)  cg2d: iter=     8 ; resid.=  1.12194033777010E-06
(PID.TID 0000.0001)  cg2d: iter=     9 ; resid.=  3.48282524400380E-07
(PID.TID 0000.0001)  cg2d: iter=    10 ; resid.=  9.69576414680458E-08
DEBUG_STATS_RL:    cg2d_x (SOLVE_FOR_PRESSURE)  min= -6.99071631428135E+00
DEBUG_STATS_RL:    cg2d_x (SOLVE_FOR_PRESSURE)  max=  2.08458476657276E+01
DEBUG_STATS_RL:    cg2d_x (SOLVE_FOR_PRESSURE) mean=  3.74665474294361E-01
DEBUG_STATS_RL:    cg2d_x (SOLVE_FOR_PRESSURE) S.D.=  8.73730918293388E-01
(PID.TID 0000.0001)      cg2d_init_res =   2.46014667958135E-01
(PID.TID 0000.0001)      cg2d_iters(min,last) =      -1      10
(PID.TID 0000.0001)      cg2d_last_res =   9.69576414680458E-08
(PID.TID 0000.0001) DEBUG_MSG: CALLING S/R UPDATE_ETAH
(PID.TID 0000.0001) DEBUG_MSG: ENTERED S/R CALC_R_STAR
(PID.TID 0000.0001) DEBUG_MSG: LEAVING S/R CALC_R_STAR
(PID.TID 0000.0001) DEBUG_MSG: CALLING S/R DO_STAGGER_FIELDS_EXCH.
(PID.TID 0000.0001) DEBUG_MSG: CALLING S/R THERMODYNAMICS
(PID.TID 0000.0001) DEBUG_MSG: ENTERED S/R THERMODYNAMICS
(PID.TID 0000.0001) DEBUG_MSG: CALLING S/R TEMP_INTEGRATE
(PID.TID 0000.0001) DEBUG_MSG: CALLING S/R SALT_INTEGRATE
DEBUG_STATS_RL:          Uvel (THERMODYNAMICS)  min= -5.63553420882702E-01
DEBUG_STATS_RL:          Uvel (THERMODYNAMICS)  max=  6.91939305079966E-01
DEBUG_STATS_RL:          Uvel (THERMODYNAMICS) mean= -5.40045391534507E-04
DEBUG_STATS_RL:          Uvel (THERMODYNAMICS) S.D.=  1.79504740988953E-02
DEBUG_STATS_RL:          Vvel (THERMODYNAMICS)  min= -6.36144324723474E-01
DEBUG_STATS_RL:          Vvel (THERMODYNAMICS)  max=  7.49987811147985E-01
DEBUG_STATS_RL:          Vvel (THERMODYNAMICS) mean= -5.00188805511629E-04
DEBUG_STATS_RL:          Vvel (THERMODYNAMICS) S.D.=  2.01897997330297E-02
DEBUG_STATS_RL:          Wvel (THERMODYNAMICS)  min= -2.45968556196960E-04
DEBUG_STATS_RL:          Wvel (THERMODYNAMICS)  max=  1.36090165280475E-04
DEBUG_STATS_RL:          Wvel (THERMODYNAMICS) mean= -4.02723319217118E-07
DEBUG_STATS_RL:          Wvel (THERMODYNAMICS) S.D.=  7.60841558403830E-06
DEBUG_STATS_RL:         Theta (THERMODYNAMICS)  min=  1.61458275508660E+01
DEBUG_STATS_RL:         Theta (THERMODYNAMICS)  max=  2.31064571426221E+01
DEBUG_STATS_RL:         Theta (THERMODYNAMICS) mean=  2.00020915889372E+01
DEBUG_STATS_RL:         Theta (THERMODYNAMICS) S.D.=  8.60164842227371E-02
DEBUG_STATS_RL:          Salt (THERMODYNAMICS)  min=  2.47413072600837E+01
DEBUG_STATS_RL:          Salt (THERMODYNAMICS)  max=  3.51510273283686E+01
DEBUG_STATS_RL:          Salt (THERMODYNAMICS) mean=  3.49972980611200E+01
DEBUG_STATS_RL:          Salt (THERMODYNAMICS) S.D.=  1.16985825272564E-01
DEBUG_STATS_RL:         GtNm1 (THERMODYNAMICS)  min= -9.10505515613539E-06
DEBUG_STATS_RL:         GtNm1 (THERMODYNAMICS)  max=  4.68511894210565E-06
DEBUG_STATS_RL:         GtNm1 (THERMODYNAMICS) mean=  2.42676028665312E-10
DEBUG_STATS_RL:         GtNm1 (THERMODYNAMICS) S.D.=  8.92715260023340E-08
DEBUG_STATS_RL:         GsNm1 (THERMODYNAMICS)  min= -1.63318915943781E-05
DEBUG_STATS_RL:         GsNm1 (THERMODYNAMICS)  max=  2.16969258447182E-06
DEBUG_STATS_RL:         GsNm1 (THERMODYNAMICS) mean= -4.53138351897845E-09
DEBUG_STATS_RL:         GsNm1 (THERMODYNAMICS) S.D.=  1.89102769764727E-07
(PID.TID 0000.0001) DEBUG_MSG: LEAVING S/R THERMODYNAMICS
(PID.TID 0000.0001) // =======================================================
(PID.TID 0000.0001) // Begin MONITOR dynamic field statistics
(PID.TID 0000.0001) // =======================================================
(PID.TID 0000.0001) %MON time_tsnumber                =                    58
(PID.TID 0000.0001) %MON time_secondsf                =   5.2200000000000E+04
(PID.TID 0000.0001) %MON dynstat_eta_max              =   2.1249589836505E+00
(PID.TID 0000.0001) %MON dynstat_eta_min              =  -7.1261125328281E-01
(PID.TID 0000.0001) %MON dynstat_eta_mean             =   3.6411245636391E-02
(PID.TID 0000.0001) %MON dynstat_eta_sd               =   8.2126950864983E-02
(PID.TID 0000.0001) %MON dynstat_eta_del2             =   1.5483810698829E-03
(PID.TID 0000.0001) %MON dynstat_uvel_max             =   6.9193930507997E-01
(PID.TID 0000.0001) %MON dynstat_uvel_min             =  -5.6355342088270E-01
(PID.TID 0000.0001) %MON dynstat_uvel_mean            =  -7.7288999335981E-05
(PID.TID 0000.0001) %MON dynstat_uvel_sd              =   6.0945432715721E-03
(PID.TID 0000.0001) %MON dynstat_uvel_del2            =   1.1057374178812E-04
(PID.TID 0000.0001) %MON dynstat_vvel_max             =   7.4998781114798E-01
(PID.TID 0000.0001) %MON dynstat_vvel_min             =  -6.3614432472347E-01
(PID.TID 0000.0001) %MON dynstat_vvel_mean            =   9.0354883463521E-04
(PID.TID 0000.0001) %MON dynstat_vvel_sd              =   6.7913129690674E-03
(PID.TID 0000.0001) %MON dynstat_vvel_del2            =   1.1444487312355E-04
(PID.TID 0000.0001) %MON dynstat_wvel_max             =   1.3609016528048E-04
(PID.TID 0000.0001) %MON dynstat_wvel_min             =  -2.4596855619696E-04
(PID.TID 0000.0001) %MON dynstat_wvel_mean            =  -3.8368784931995E-07
(PID.TID 0000.0001) %MON dynstat_wvel_sd              =   7.2731912458472E-06
(PID.TID 0000.0001) %MON dynstat_wvel_del2            =   7.7890948219477E-08
(PID.TID 0000.0001) %MON dynstat_theta_max            =   2.3106457142622E+01
(PID.TID 0000.0001) %MON dynstat_theta_min            =   1.6145827550866E+01
(PID.TID 0000.0001) %MON dynstat_theta_mean           =   1.9997894654604E+01
(PID.TID 0000.0001) %MON dynstat_theta_sd             =   2.8560779668672E-02
(PID.TID 0000.0001) %MON dynstat_theta_del2           =   5.0544421314361E-04
(PID.TID 0000.0001) %MON dynstat_salt_max             =   3.5151027328369E+01
(PID.TID 0000.0001) %MON dynstat_salt_min             =   2.4741307260084E+01
(PID.TID 0000.0001) %MON dynstat_salt_mean            =   3.4999647521181E+01
(PID.TID 0000.0001) %MON dynstat_salt_sd              =   3.6117874712056E-02
(PID.TID 0000.0001) %MON dynstat_salt_del2            =   1.2509092514178E-03
(PID.TID 0000.0001) %MON dynstat_sst_max              =   2.3106457142622E+01
(PID.TID 0000.0001) %MON dynstat_sst_min              =   1.6145827550866E+01
(PID.TID 0000.0001) %MON dynstat_sst_mean             =   2.0124867612533E+01
(PID.TID 0000.0001) %MON dynstat_sst_sd               =   2.6370231714424E-01
(PID.TID 0000.0001) %MON dynstat_sst_del2             =   5.7980110611205E-03
(PID.TID 0000.0001) %MON dynstat_sss_max              =   3.5151027328369E+01
(PID.TID 0000.0001) %MON dynstat_sss_min              =   2.4741307260084E+01
(PID.TID 0000.0001) %MON dynstat_sss_mean             =   3.4967926430599E+01
(PID.TID 0000.0001) %MON dynstat_sss_sd               =   4.3556367612442E-01
(PID.TID 0000.0001) %MON dynstat_sss_del2             =   1.6936569652295E-02
(PID.TID 0000.0001) %MON forcing_qnet_max             =   3.1156403808594E+03
(PID.TID 0000.0001) %MON forcing_qnet_min             =  -3.6786713867188E+03
(PID.TID 0000.0001) %MON forcing_qnet_mean            =  -1.3376047087536E+01
(PID.TID 0000.0001) %MON forcing_qnet_sd              =   4.9111925544043E+02
(PID.TID 0000.0001) %MON forcing_qnet_del2            =   6.8108391252736E+00
(PID.TID 0000.0001) %MON forcing_qsw_max              =   0.0000000000000E+00
(PID.TID 0000.0001) %MON forcing_qsw_min              =  -1.0214622528556E+02
(PID.TID 0000.0001) %MON forcing_qsw_mean             =  -1.5008727723299E+01
(PID.TID 0000.0001) %MON forcing_qsw_sd               =   2.4703831198877E+01
(PID.TID 0000.0001) %MON forcing_qsw_del2             =   2.0208853978560E-01
(PID.TID 0000.0001) %MON forcing_empmr_max            =   6.1464938335121E-03
(PID.TID 0000.0001) %MON forcing_empmr_min            =  -8.8354967534542E-02
(PID.TID 0000.0001) %MON forcing_empmr_mean           =  -4.0906766669749E-04
(PID.TID 0000.0001) %MON forcing_empmr_sd             =   3.9159844301999E-03
(PID.TID 0000.0001) %MON forcing_empmr_del2           =   1.5346818742062E-04
(PID.TID 0000.0001) %MON forcing_fu_max               =   6.5615665934648E-01
(PID.TID 0000.0001) %MON forcing_fu_min               =  -6.1239663910979E-01
(PID.TID 0000.0001) %MON forcing_fu_mean              =  -1.2931202350969E-03
(PID.TID 0000.0001) %MON forcing_fu_sd                =   8.8916723200737E-02
(PID.TID 0000.0001) %MON forcing_fu_del2              =   7.4962112409288E-04
(PID.TID 0000.0001) %MON forcing_fv_max               =   4.2087457046949E-01
(PID.TID 0000.0001) %MON forcing_fv_min               =  -4.2138008457423E-01
(PID.TID 0000.0001) %MON forcing_fv_mean              =  -6.7957883578757E-03
(PID.TID 0000.0001) %MON forcing_fv_sd                =   7.6896136495868E-02
(PID.TID 0000.0001) %MON forcing_fv_del2              =   6.4059270749397E-04
(PID.TID 0000.0001) %MON trAdv_CFL_u_max              =   2.2503292500384E-03
(PID.TID 0000.0001) %MON trAdv_CFL_v_max              =   2.4912612866658E-03
(PID.TID 0000.0001) %MON trAdv_CFL_w_max              =   3.3923628725056E-03
(PID.TID 0000.0001) %MON advcfl_uvel_max              =   2.3074561066219E-03
(PID.TID 0000.0001) %MON advcfl_vvel_max              =   2.4474838010132E-03
(PID.TID 0000.0001) %MON advcfl_wvel_max              =   6.1464325241421E-03
(PID.TID 0000.0001) %MON advcfl_W_hf_max              =   3.3923628725056E-03
(PID.TID 0000.0001) %MON pe_b_mean                    =   1.0751445136699E-05
(PID.TID 0000.0001) %MON ke_max                       =   2.5104243225505E-01
(PID.TID 0000.0001) %MON ke_mean                      =   3.8844624964914E-05
(PID.TID 0000.0001) %MON ke_vol                       =   1.3398155654936E+18
(PID.TID 0000.0001) %MON vort_r_min                   =  -3.8790874757896E-06
(PID.TID 0000.0001) %MON vort_r_max                   =   3.0615013096823E-06
(PID.TID 0000.0001) %MON vort_a_mean                  =  -2.0549865324846E-05
(PID.TID 0000.0001) %MON vort_a_sd                    =   7.5259467643518E-05
(PID.TID 0000.0001) %MON vort_p_mean                  =  -2.4783281314221E-05
(PID.TID 0000.0001) %MON vort_p_sd                    =   1.2810515181420E-04
(PID.TID 0000.0001) %MON surfExpan_theta_mean         =  -9.0746222445556E-08
(PID.TID 0000.0001) %MON surfExpan_salt_mean          =   1.5910053300530E-06
(PID.TID 0000.0001) // =======================================================
(PID.TID 0000.0001) // End MONITOR dynamic field statistics
(PID.TID 0000.0001) // =======================================================
(PID.TID 0000.0001) DEBUG_MSG: LEAVING S/R FORWARD_STEP
(PID.TID 0000.0001) DEBUG_MSG: ENTERED S/R FORWARD_STEP
(PID.TID 0000.0001) DEBUG_MSG: CALLING S/R LOAD_FIELDS_DRIVER
(PID.TID 0000.0001) DEBUG_MSG: ENTERED S/R LOAD_FIELDS_DRIVER
(PID.TID 0000.0001) DEBUG_MSG: CALLING S/R EXTERNAL_FIELDS_LOAD
(PID.TID 0000.0001) DEBUG_MSG: LEAVING S/R LOAD_FIELDS_DRIVER
(PID.TID 0000.0001) DEBUG_MSG: CALLING S/R DO_ATMOSPHERIC_PHYS
(PID.TID 0000.0001) DEBUG_MSG: ENTERED S/R DO_ATMOSPHERIC_PHYS
(PID.TID 0000.0001) DEBUG_MSG: LEAVING S/R DO_ATMOSPHERIC_PHYS
(PID.TID 0000.0001) DEBUG_MSG: CALLING S/R DO_OCEANIC_PHYS
(PID.TID 0000.0001) DEBUG_MSG: ENTERED S/R DO_OCEANIC_PHYS
(PID.TID 0000.0001) DEBUG_MSG: CALLING S/R EXTERNAL_FORCING_SURF
(PID.TID 0000.0001) DEBUG_MSG: CALLING S/R FIND_RHO_2D (xNr)
(PID.TID 0000.0001) DEBUG_MSG:                  ENTERING UPWARD K LOOP (bi=   1, bj=   1)
(PID.TID 0000.0001) DEBUG_MSG: CALLING S/R GRAD_SIGMA
(PID.TID 0000.0001) DEBUG_MSG: CALLING S/R CALC_IVDC
(PID.TID 0000.0001) DEBUG_MSG: CALLING S/R GRAD_SIGMA
(PID.TID 0000.0001) DEBUG_MSG: CALLING S/R CALC_IVDC
(PID.TID 0000.0001) DEBUG_MSG: CALLING S/R GRAD_SIGMA
(PID.TID 0000.0001) DEBUG_MSG: CALLING S/R CALC_IVDC
(PID.TID 0000.0001) DEBUG_MSG: CALLING S/R GRAD_SIGMA
(PID.TID 0000.0001) DEBUG_MSG: CALLING S/R CALC_IVDC
(PID.TID 0000.0001) DEBUG_MSG: CALLING S/R GRAD_SIGMA
(PID.TID 0000.0001) DEBUG_MSG: CALLING S/R CALC_IVDC
(PID.TID 0000.0001) DEBUG_MSG: CALLING S/R GRAD_SIGMA
(PID.TID 0000.0001) DEBUG_MSG: CALLING S/R CALC_IVDC
(PID.TID 0000.0001) DEBUG_MSG: CALLING S/R GRAD_SIGMA
(PID.TID 0000.0001) DEBUG_MSG: CALLING S/R CALC_IVDC
(PID.TID 0000.0001) DEBUG_MSG: CALLING S/R GRAD_SIGMA
(PID.TID 0000.0001) DEBUG_MSG: CALLING S/R CALC_IVDC
(PID.TID 0000.0001) DEBUG_MSG: CALLING S/R GRAD_SIGMA
(PID.TID 0000.0001) DEBUG_MSG: CALLING S/R CALC_IVDC
(PID.TID 0000.0001) DEBUG_MSG: CALLING S/R GRAD_SIGMA
(PID.TID 0000.0001) DEBUG_MSG: CALLING S/R CALC_IVDC
(PID.TID 0000.0001) DEBUG_MSG: CALLING S/R GRAD_SIGMA
(PID.TID 0000.0001) DEBUG_MSG: CALLING S/R CALC_IVDC
(PID.TID 0000.0001) DEBUG_MSG: CALLING S/R GRAD_SIGMA
(PID.TID 0000.0001) DEBUG_MSG: CALLING S/R CALC_IVDC
(PID.TID 0000.0001) DEBUG_MSG: CALLING S/R GRAD_SIGMA
(PID.TID 0000.0001) DEBUG_MSG: CALLING S/R CALC_IVDC
(PID.TID 0000.0001) DEBUG_MSG: CALLING S/R GRAD_SIGMA
(PID.TID 0000.0001) DEBUG_MSG: CALLING S/R CALC_IVDC
(PID.TID 0000.0001) DEBUG_MSG: CALLING S/R GRAD_SIGMA
(PID.TID 0000.0001) DEBUG_MSG: CALLING S/R CALC_IVDC
(PID.TID 0000.0001) DEBUG_MSG: CALLING S/R GRAD_SIGMA
(PID.TID 0000.0001) DEBUG_MSG: CALLING S/R GMREDI_CALC_TENSOR
(PID.TID 0000.0001) DEBUG_MSG: LEAVING S/R DO_OCEANIC_PHYS
(PID.TID 0000.0001) DEBUG_MSG: CALLING S/R DYNAMICS
(PID.TID 0000.0001) DEBUG_MSG: ENTERED S/R DYNAMICS
DEBUG_STATS_RL:                EtaN (DYNAMICS)  min= -7.12611253282806E-01
DEBUG_STATS_RL:                EtaN (DYNAMICS)  max=  2.12495898365054E+00
DEBUG_STATS_RL:                EtaN (DYNAMICS) mean=  3.81921993619224E-02
DEBUG_STATS_RL:                EtaN (DYNAMICS) S.D.=  8.90653333185207E-02
DEBUG_STATS_RL:                Uvel (DYNAMICS)  min= -5.63553420882702E-01
DEBUG_STATS_RL:                Uvel (DYNAMICS)  max=  6.91939305079966E-01
DEBUG_STATS_RL:                Uvel (DYNAMICS) mean= -5.40045391534507E-04
DEBUG_STATS_RL:                Uvel (DYNAMICS) S.D.=  1.79504740988953E-02
DEBUG_STATS_RL:                Vvel (DYNAMICS)  min= -6.36144324723474E-01
DEBUG_STATS_RL:                Vvel (DYNAMICS)  max=  7.49987811147985E-01
DEBUG_STATS_RL:                Vvel (DYNAMICS) mean= -5.00188805511629E-04
DEBUG_STATS_RL:                Vvel (DYNAMICS) S.D.=  2.01897997330297E-02
DEBUG_STATS_RL:                Wvel (DYNAMICS)  min= -2.45968556196960E-04
DEBUG_STATS_RL:                Wvel (DYNAMICS)  max=  1.36090165280475E-04
DEBUG_STATS_RL:                Wvel (DYNAMICS) mean= -4.02723319217118E-07
DEBUG_STATS_RL:                Wvel (DYNAMICS) S.D.=  7.60841558403830E-06
DEBUG_STATS_RL:               Theta (DYNAMICS)  min=  1.61458275508660E+01
DEBUG_STATS_RL:               Theta (DYNAMICS)  max=  2.31064571426221E+01
DEBUG_STATS_RL:               Theta (DYNAMICS) mean=  2.00020915889372E+01
DEBUG_STATS_RL:               Theta (DYNAMICS) S.D.=  8.60164842227371E-02
DEBUG_STATS_RL:                Salt (DYNAMICS)  min=  2.47413072600837E+01
DEBUG_STATS_RL:                Salt (DYNAMICS)  max=  3.51510273283686E+01
DEBUG_STATS_RL:                Salt (DYNAMICS) mean=  3.49972980611200E+01
DEBUG_STATS_RL:                Salt (DYNAMICS) S.D.=  1.16985825272564E-01
DEBUG_STATS_RL:                  Gu (DYNAMICS)  min= -5.77504069122795E-01
DEBUG_STATS_RL:                  Gu (DYNAMICS)  max=  7.02664855556988E-01
DEBUG_STATS_RL:                  Gu (DYNAMICS) mean= -5.15513441500356E-04
DEBUG_STATS_RL:                  Gu (DYNAMICS) S.D.=  1.78162463362973E-02
DEBUG_STATS_RL:                  Gv (DYNAMICS)  min= -6.20580222066945E-01
DEBUG_STATS_RL:                  Gv (DYNAMICS)  max=  7.23629507555628E-01
DEBUG_STATS_RL:                  Gv (DYNAMICS) mean= -5.13824594461912E-04
DEBUG_STATS_RL:                  Gv (DYNAMICS) S.D.=  1.99899802017292E-02
DEBUG_STATS_RL:               GuNm1 (DYNAMICS)  min= -2.63809642474597E-05
DEBUG_STATS_RL:               GuNm1 (DYNAMICS)  max=  4.72074658946560E-05
DEBUG_STATS_RL:               GuNm1 (DYNAMICS) mean=  2.70990000272585E-08
DEBUG_STATS_RL:               GuNm1 (DYNAMICS) S.D.=  1.38664829474904E-06
DEBUG_STATS_RL:               GvNm1 (DYNAMICS)  min= -2.77033285571652E-05
DEBUG_STATS_RL:               GvNm1 (DYNAMICS)  max=  2.01753033341224E-05
DEBUG_STATS_RL:               GvNm1 (DYNAMICS) mean= -1.55356300882047E-08
DEBUG_STATS_RL:               GvNm1 (DYNAMICS) S.D.=  1.23555964182037E-06
DEBUG_STATS_RL:               GtNm1 (DYNAMICS)  min= -9.10505515613539E-06
DEBUG_STATS_RL:               GtNm1 (DYNAMICS)  max=  4.68511894210565E-06
DEBUG_STATS_RL:               GtNm1 (DYNAMICS) mean=  2.42676028665312E-10
DEBUG_STATS_RL:               GtNm1 (DYNAMICS) S.D.=  8.92715260023340E-08
DEBUG_STATS_RL:               GsNm1 (DYNAMICS)  min= -1.63318915943781E-05
DEBUG_STATS_RL:               GsNm1 (DYNAMICS)  max=  2.16969258447182E-06
DEBUG_STATS_RL:               GsNm1 (DYNAMICS) mean= -4.53138351897845E-09
DEBUG_STATS_RL:               GsNm1 (DYNAMICS) S.D.=  1.89102769764727E-07
(PID.TID 0000.0001) DEBUG_MSG: LEAVING S/R DYNAMICS
DEBUG_STATS_RL:    cg2d_b (SOLVE_FOR_PRESSURE)  min= -2.30555390234488E+05
DEBUG_STATS_RL:    cg2d_b (SOLVE_FOR_PRESSURE)  max=  8.30969792119302E+04
DEBUG_STATS_RL:    cg2d_b (SOLVE_FOR_PRESSURE) mean= -3.73671864037414E+03
DEBUG_STATS_RL:    cg2d_b (SOLVE_FOR_PRESSURE) S.D.=  8.02642547391459E+03
 cg2d: Sum(rhs),rhsMax =  -7.16369995672436E+01  4.41664912429640E+01
(PID.TID 0000.0001)  cg2d: iter=     1 ; resid.=  3.06350226687465E-02
(PID.TID 0000.0001)  cg2d: iter=     2 ; resid.=  4.29807094673498E-03
(PID.TID 0000.0001)  cg2d: iter=     3 ; resid.=  1.18911682901594E-03
(PID.TID 0000.0001)  cg2d: iter=     4 ; resid.=  4.09382186750711E-04
(PID.TID 0000.0001)  cg2d: iter=     5 ; resid.=  1.10910815658653E-04
(PID.TID 0000.0001)  cg2d: iter=     6 ; resid.=  2.39089101994331E-05
(PID.TID 0000.0001)  cg2d: iter=     7 ; resid.=  4.55530782202637E-06
(PID.TID 0000.0001)  cg2d: iter=     8 ; resid.=  1.07160420400264E-06
(PID.TID 0000.0001)  cg2d: iter=     9 ; resid.=  3.27570017112354E-07
(PID.TID 0000.0001)  cg2d: iter=    10 ; resid.=  9.52826824640678E-08
DEBUG_STATS_RL:    cg2d_x (SOLVE_FOR_PRESSURE)  min= -7.14894645112188E+00
DEBUG_STATS_RL:    cg2d_x (SOLVE_FOR_PRESSURE)  max=  1.93192841823799E+01
DEBUG_STATS_RL:    cg2d_x (SOLVE_FOR_PRESSURE) mean=  3.78600090778173E-01
DEBUG_STATS_RL:    cg2d_x (SOLVE_FOR_PRESSURE) S.D.=  8.45700581474648E-01
(PID.TID 0000.0001)      cg2d_init_res =   2.66502365588316E-01
(PID.TID 0000.0001)      cg2d_iters(min,last) =      -1      10
(PID.TID 0000.0001)      cg2d_last_res =   9.52826824640678E-08
(PID.TID 0000.0001) DEBUG_MSG: CALLING S/R UPDATE_ETAH
(PID.TID 0000.0001) DEBUG_MSG: ENTERED S/R CALC_R_STAR
(PID.TID 0000.0001) DEBUG_MSG: LEAVING S/R CALC_R_STAR
(PID.TID 0000.0001) DEBUG_MSG: CALLING S/R DO_STAGGER_FIELDS_EXCH.
(PID.TID 0000.0001) DEBUG_MSG: CALLING S/R THERMODYNAMICS
(PID.TID 0000.0001) DEBUG_MSG: ENTERED S/R THERMODYNAMICS
(PID.TID 0000.0001) DEBUG_MSG: CALLING S/R TEMP_INTEGRATE
(PID.TID 0000.0001) DEBUG_MSG: CALLING S/R SALT_INTEGRATE
DEBUG_STATS_RL:          Uvel (THERMODYNAMICS)  min= -5.85208674830571E-01
DEBUG_STATS_RL:          Uvel (THERMODYNAMICS)  max=  7.21993653016740E-01
DEBUG_STATS_RL:          Uvel (THERMODYNAMICS) mean= -5.14929647550808E-04
DEBUG_STATS_RL:          Uvel (THERMODYNAMICS) S.D.=  1.79708497428303E-02
DEBUG_STATS_RL:          Vvel (THERMODYNAMICS)  min= -6.43161986628450E-01
DEBUG_STATS_RL:          Vvel (THERMODYNAMICS)  max=  7.46366226734863E-01
DEBUG_STATS_RL:          Vvel (THERMODYNAMICS) mean= -4.98543266005763E-04
DEBUG_STATS_RL:          Vvel (THERMODYNAMICS) S.D.=  2.01422640675345E-02
DEBUG_STATS_RL:          Wvel (THERMODYNAMICS)  min= -2.44996819480827E-04
DEBUG_STATS_RL:          Wvel (THERMODYNAMICS)  max=  1.36125491522294E-04
DEBUG_STATS_RL:          Wvel (THERMODYNAMICS) mean= -3.92194623075484E-07
DEBUG_STATS_RL:          Wvel (THERMODYNAMICS) S.D.=  7.56588085238285E-06
DEBUG_STATS_RL:         Theta (THERMODYNAMICS)  min=  1.61393392711387E+01
DEBUG_STATS_RL:         Theta (THERMODYNAMICS)  max=  2.31421131313155E+01
DEBUG_STATS_RL:         Theta (THERMODYNAMICS) mean=  2.00021877370617E+01
DEBUG_STATS_RL:         Theta (THERMODYNAMICS) S.D.=  8.66082119901045E-02
DEBUG_STATS_RL:          Salt (THERMODYNAMICS)  min=  2.46653462196042E+01
DEBUG_STATS_RL:          Salt (THERMODYNAMICS)  max=  3.51510160188621E+01
DEBUG_STATS_RL:          Salt (THERMODYNAMICS) mean=  3.49972707675486E+01
DEBUG_STATS_RL:          Salt (THERMODYNAMICS) S.D.=  1.17897835560341E-01
DEBUG_STATS_RL:         GtNm1 (THERMODYNAMICS)  min= -9.26599002970359E-06
DEBUG_STATS_RL:         GtNm1 (THERMODYNAMICS)  max=  4.69835392589500E-06
DEBUG_STATS_RL:         GtNm1 (THERMODYNAMICS) mean=  2.50557936887430E-10
DEBUG_STATS_RL:         GtNm1 (THERMODYNAMICS) S.D.=  9.14551615598949E-08
DEBUG_STATS_RL:         GsNm1 (THERMODYNAMICS)  min= -1.62835812288253E-05
DEBUG_STATS_RL:         GsNm1 (THERMODYNAMICS)  max=  2.17675072334736E-06
DEBUG_STATS_RL:         GsNm1 (THERMODYNAMICS) mean= -4.54472550158012E-09
DEBUG_STATS_RL:         GsNm1 (THERMODYNAMICS) S.D.=  1.88857770272045E-07
(PID.TID 0000.0001) DEBUG_MSG: LEAVING S/R THERMODYNAMICS
(PID.TID 0000.0001) // =======================================================
(PID.TID 0000.0001) // Begin MONITOR dynamic field statistics
(PID.TID 0000.0001) // =======================================================
(PID.TID 0000.0001) %MON time_tsnumber                =                    59
(PID.TID 0000.0001) %MON time_secondsf                =   5.3100000000000E+04
(PID.TID 0000.0001) %MON dynstat_eta_max              =   1.9693459884684E+00
(PID.TID 0000.0001) %MON dynstat_eta_min              =  -7.2874072527771E-01
(PID.TID 0000.0001) %MON dynstat_eta_mean             =   3.6764736653716E-02
(PID.TID 0000.0001) %MON dynstat_eta_sd               =   7.9229802872561E-02
(PID.TID 0000.0001) %MON dynstat_eta_del2             =   1.4309851819632E-03
(PID.TID 0000.0001) %MON dynstat_uvel_max             =   7.2199365301674E-01
(PID.TID 0000.0001) %MON dynstat_uvel_min             =  -5.8520867483057E-01
(PID.TID 0000.0001) %MON dynstat_uvel_mean            =  -6.4113756720492E-05
(PID.TID 0000.0001) %MON dynstat_uvel_sd              =   6.1057886102199E-03
(PID.TID 0000.0001) %MON dynstat_uvel_del2            =   1.1087695818235E-04
(PID.TID 0000.0001) %MON dynstat_vvel_max             =   7.4636622673486E-01
(PID.TID 0000.0001) %MON dynstat_vvel_min             =  -6.4316198662845E-01
(PID.TID 0000.0001) %MON dynstat_vvel_mean            =   9.2242658347053E-04
(PID.TID 0000.0001) %MON dynstat_vvel_sd              =   6.7773283067306E-03
(PID.TID 0000.0001) %MON dynstat_vvel_del2            =   1.1617908338940E-04
(PID.TID 0000.0001) %MON dynstat_wvel_max             =   1.3612549152229E-04
(PID.TID 0000.0001) %MON dynstat_wvel_min             =  -2.4499681948083E-04
(PID.TID 0000.0001) %MON dynstat_wvel_mean            =  -3.7359180791289E-07
(PID.TID 0000.0001) %MON dynstat_wvel_sd              =   7.2379996388077E-06
(PID.TID 0000.0001) %MON dynstat_wvel_del2            =   7.7406407877015E-08
(PID.TID 0000.0001) %MON dynstat_theta_max            =   2.3142113131316E+01
(PID.TID 0000.0001) %MON dynstat_theta_min            =   1.6139339271139E+01
(PID.TID 0000.0001) %MON dynstat_theta_mean           =   1.9997895563352E+01
(PID.TID 0000.0001) %MON dynstat_theta_sd             =   2.8741739087802E-02
(PID.TID 0000.0001) %MON dynstat_theta_del2           =   5.0808563316366E-04
(PID.TID 0000.0001) %MON dynstat_salt_max             =   3.5151016018862E+01
(PID.TID 0000.0001) %MON dynstat_salt_min             =   2.4665346219604E+01
(PID.TID 0000.0001) %MON dynstat_salt_mean            =   3.4999644340573E+01
(PID.TID 0000.0001) %MON dynstat_salt_sd              =   3.6399669663681E-02
(PID.TID 0000.0001) %MON dynstat_salt_del2            =   1.2601683025053E-03
(PID.TID 0000.0001) %MON dynstat_sst_max              =   2.3142113131316E+01
(PID.TID 0000.0001) %MON dynstat_sst_min              =   1.6139339271139E+01
(PID.TID 0000.0001) %MON dynstat_sst_mean             =   2.0126379687089E+01
(PID.TID 0000.0001) %MON dynstat_sst_sd               =   2.6567336520755E-01
(PID.TID 0000.0001) %MON dynstat_sst_del2             =   5.8395863622199E-03
(PID.TID 0000.0001) %MON dynstat_sss_max              =   3.5151016018862E+01
(PID.TID 0000.0001) %MON dynstat_sss_min              =   2.4665346219604E+01
(PID.TID 0000.0001) %MON dynstat_sss_mean             =   3.4967600966573E+01
(PID.TID 0000.0001) %MON dynstat_sss_sd               =   4.3894684434853E-01
(PID.TID 0000.0001) %MON dynstat_sss_del2             =   1.7061572477364E-02
(PID.TID 0000.0001) %MON forcing_qnet_max             =   3.0728288574219E+03
(PID.TID 0000.0001) %MON forcing_qnet_min             =  -3.6253168945312E+03
(PID.TID 0000.0001) %MON forcing_qnet_mean            =  -1.3752315712785E+01
(PID.TID 0000.0001) %MON forcing_qnet_sd              =   4.8961374824843E+02
(PID.TID 0000.0001) %MON forcing_qnet_del2            =   6.8823438181998E+00
(PID.TID 0000.0001) %MON forcing_qsw_max              =   0.0000000000000E+00
(PID.TID 0000.0001) %MON forcing_qsw_min              =  -1.0180391898323E+02
(PID.TID 0000.0001) %MON forcing_qsw_mean             =  -1.5096520783804E+01
(PID.TID 0000.0001) %MON forcing_qsw_sd               =   2.5010453340191E+01
(PID.TID 0000.0001) %MON forcing_qsw_del2             =   2.0427317660834E-01
(PID.TID 0000.0001) %MON forcing_empmr_max            =   6.0831219889224E-03
(PID.TID 0000.0001) %MON forcing_empmr_min            =  -8.7444558739662E-02
(PID.TID 0000.0001) %MON forcing_empmr_mean           =  -4.0651466992387E-04
(PID.TID 0000.0001) %MON forcing_empmr_sd             =   3.8764598617994E-03
(PID.TID 0000.0001) %MON forcing_empmr_del2           =   1.5188725935661E-04
(PID.TID 0000.0001) %MON forcing_fu_max               =   6.4773188895137E-01
(PID.TID 0000.0001) %MON forcing_fu_min               =  -6.1376393498905E-01
(PID.TID 0000.0001) %MON forcing_fu_mean              =  -1.2585517285334E-03
(PID.TID 0000.0001) %MON forcing_fu_sd                =   8.8681217233655E-02
(PID.TID 0000.0001) %MON forcing_fu_del2              =   7.4681370216702E-04
(PID.TID 0000.0001) %MON forcing_fv_max               =   4.1423379996771E-01
(PID.TID 0000.0001) %MON forcing_fv_min               =  -4.2140613364807E-01
(PID.TID 0000.0001) %MON forcing_fv_mean              =  -6.8712383897012E-03
(PID.TID 0000.0001) %MON forcing_fv_sd                =   7.6544289321320E-02
(PID.TID 0000.0001) %MON forcing_fv_del2              =   6.3826352730069E-04
(PID.TID 0000.0001) %MON trAdv_CFL_u_max              =   2.3529803963872E-03
(PID.TID 0000.0001) %MON trAdv_CFL_v_max              =   2.4842533831980E-03
(PID.TID 0000.0001) %MON trAdv_CFL_w_max              =   3.2328605431961E-03
(PID.TID 0000.0001) %MON advcfl_uvel_max              =   2.4076803432972E-03
(PID.TID 0000.0001) %MON advcfl_vvel_max              =   2.4356652500270E-03
(PID.TID 0000.0001) %MON advcfl_wvel_max              =   6.0830997384113E-03
(PID.TID 0000.0001) %MON advcfl_W_hf_max              =   3.2328605431961E-03
(PID.TID 0000.0001) %MON pe_b_mean                    =   1.0163147327965E-05
(PID.TID 0000.0001) %MON ke_max                       =   2.6103864430454E-01
(PID.TID 0000.0001) %MON ke_mean                      =   3.8834795363937E-05
(PID.TID 0000.0001) %MON ke_vol                       =   1.3398156949321E+18
(PID.TID 0000.0001) %MON vort_r_min                   =  -3.9719588521340E-06
(PID.TID 0000.0001) %MON vort_r_max                   =   3.1825562337520E-06
(PID.TID 0000.0001) %MON vort_a_mean                  =  -2.0549865324846E-05
(PID.TID 0000.0001) %MON vort_a_sd                    =   7.5259472985526E-05
(PID.TID 0000.0001) %MON vort_p_mean                  =  -2.4783278451012E-05
(PID.TID 0000.0001) %MON vort_p_sd                    =   1.2810516158640E-04
(PID.TID 0000.0001) %MON surfExpan_theta_mean         =  -9.7050700008175E-08
(PID.TID 0000.0001) %MON surfExpan_salt_mean          =   1.5924002814442E-06
(PID.TID 0000.0001) // =======================================================
(PID.TID 0000.0001) // End MONITOR dynamic field statistics
(PID.TID 0000.0001) // =======================================================
 Computing Diagnostic #     81  oceTAUX      Counter:       1   Parms: UU      U1      
           Vector  Mate for  oceTAUX      Diagnostic #     82  oceTAUY  exists 
(PID.TID 0000.0001)  MDS_WRITE_FIELD: it,rec,kS,kL,kH=      58    -1  32   1   1 file=oceTAUX.0000000058
 Computing Diagnostic #     82  oceTAUY      Counter:       1   Parms: VV      U1      
           Vector  Mate for  oceTAUY      Diagnostic #     81  oceTAUX  exists 
(PID.TID 0000.0001)  MDS_WRITE_FIELD: it,rec,kS,kL,kH=      58    -1  32   1   1 file=oceTAUY.0000000058
 Computing Diagnostic #     85  oceFWflx     Counter:       1   Parms: SM      U1      
(PID.TID 0000.0001)  MDS_WRITE_FIELD: it,rec,kS,kL,kH=      58    -1  32   1   1 file=oceFWflx.0000000058
 Computing Diagnostic #     86  oceSflux     Counter:       1   Parms: SM      U1      
(PID.TID 0000.0001)  MDS_WRITE_FIELD: it,rec,kS,kL,kH=      58    -1  32   1   1 file=oceSflux.0000000058
 Computing Diagnostic #     87  oceQnet      Counter:       1   Parms: SM      U1      
(PID.TID 0000.0001)  MDS_WRITE_FIELD: it,rec,kS,kL,kH=      58    -1  32   1   1 file=oceQnet.0000000058
 Computing Diagnostic #     88  oceQsw       Counter:       1   Parms: SM      U1      
(PID.TID 0000.0001)  MDS_WRITE_FIELD: it,rec,kS,kL,kH=      58    -1  32   1   1 file=oceQsw.0000000058
 Computing Diagnostic #     27  SALT         Counter:       1   Parms: SMR     MR      
(PID.TID 0000.0001)  MDS_WRITE_FIELD: it,rec,kS,kL,kH=      58    -1  32   1   1 file=SSS.0000000058
 Computing Diagnostic #     26  THETA        Counter:       1   Parms: SMR     MR      
(PID.TID 0000.0001)  MDS_WRITE_FIELD: it,rec,kS,kL,kH=      58    -1  32   1   1 file=SST.0000000058
 Computing Diagnostic #     45  UVELMASS     Counter:       1   Parms: UUr     MR      
           Vector  Mate for  UVELMASS     Diagnostic #     46  VVELMASS exists 
(PID.TID 0000.0001)  MDS_WRITE_FIELD: it,rec,kS,kL,kH=      58    -1  32   1   1 file=UVEL1.0000000058
 Computing Diagnostic #     46  VVELMASS     Counter:       1   Parms: VVr     MR      
           Vector  Mate for  VVELMASS     Diagnostic #     45  UVELMASS exists 
(PID.TID 0000.0001)  MDS_WRITE_FIELD: it,rec,kS,kL,kH=      58    -1  32   1   1 file=VVEL1.0000000058
 Computing Diagnostic #     83  atmPload     Counter:       1   Parms: SM      U1      
(PID.TID 0000.0001)  MDS_WRITE_FIELD: it,rec,kS,kL,kH=      58    -1  32   1   1 file=atmPload.0000000058
(PID.TID 0000.0001)  write diagnostics summary to file: diagnostics_status.0000000059.txt
(PID.TID 0000.0001) DEBUG_MSG: LEAVING S/R FORWARD_STEP
(PID.TID 0000.0001) DEBUG_MSG: ENTERED S/R FORWARD_STEP
(PID.TID 0000.0001) DEBUG_MSG: CALLING S/R LOAD_FIELDS_DRIVER
(PID.TID 0000.0001) DEBUG_MSG: ENTERED S/R LOAD_FIELDS_DRIVER
(PID.TID 0000.0001) DEBUG_MSG: CALLING S/R EXTERNAL_FIELDS_LOAD
(PID.TID 0000.0001) DEBUG_MSG: LEAVING S/R LOAD_FIELDS_DRIVER
(PID.TID 0000.0001) DEBUG_MSG: CALLING S/R DO_ATMOSPHERIC_PHYS
(PID.TID 0000.0001) DEBUG_MSG: ENTERED S/R DO_ATMOSPHERIC_PHYS
(PID.TID 0000.0001) DEBUG_MSG: LEAVING S/R DO_ATMOSPHERIC_PHYS
(PID.TID 0000.0001) DEBUG_MSG: CALLING S/R DO_OCEANIC_PHYS
(PID.TID 0000.0001) DEBUG_MSG: ENTERED S/R DO_OCEANIC_PHYS
(PID.TID 0000.0001) DEBUG_MSG: CALLING S/R EXTERNAL_FORCING_SURF
(PID.TID 0000.0001) DEBUG_MSG: CALLING S/R FIND_RHO_2D (xNr)
(PID.TID 0000.0001) DEBUG_MSG:                  ENTERING UPWARD K LOOP (bi=   1, bj=   1)
(PID.TID 0000.0001) DEBUG_MSG: CALLING S/R GRAD_SIGMA
(PID.TID 0000.0001) DEBUG_MSG: CALLING S/R CALC_IVDC
(PID.TID 0000.0001) DEBUG_MSG: CALLING S/R GRAD_SIGMA
(PID.TID 0000.0001) DEBUG_MSG: CALLING S/R CALC_IVDC
(PID.TID 0000.0001) DEBUG_MSG: CALLING S/R GRAD_SIGMA
(PID.TID 0000.0001) DEBUG_MSG: CALLING S/R CALC_IVDC
(PID.TID 0000.0001) DEBUG_MSG: CALLING S/R GRAD_SIGMA
(PID.TID 0000.0001) DEBUG_MSG: CALLING S/R CALC_IVDC
(PID.TID 0000.0001) DEBUG_MSG: CALLING S/R GRAD_SIGMA
(PID.TID 0000.0001) DEBUG_MSG: CALLING S/R CALC_IVDC
(PID.TID 0000.0001) DEBUG_MSG: CALLING S/R GRAD_SIGMA
(PID.TID 0000.0001) DEBUG_MSG: CALLING S/R CALC_IVDC
(PID.TID 0000.0001) DEBUG_MSG: CALLING S/R GRAD_SIGMA
(PID.TID 0000.0001) DEBUG_MSG: CALLING S/R CALC_IVDC
(PID.TID 0000.0001) DEBUG_MSG: CALLING S/R GRAD_SIGMA
(PID.TID 0000.0001) DEBUG_MSG: CALLING S/R CALC_IVDC
(PID.TID 0000.0001) DEBUG_MSG: CALLING S/R GRAD_SIGMA
(PID.TID 0000.0001) DEBUG_MSG: CALLING S/R CALC_IVDC
(PID.TID 0000.0001) DEBUG_MSG: CALLING S/R GRAD_SIGMA
(PID.TID 0000.0001) DEBUG_MSG: CALLING S/R CALC_IVDC
(PID.TID 0000.0001) DEBUG_MSG: CALLING S/R GRAD_SIGMA
(PID.TID 0000.0001) DEBUG_MSG: CALLING S/R CALC_IVDC
(PID.TID 0000.0001) DEBUG_MSG: CALLING S/R GRAD_SIGMA
(PID.TID 0000.0001) DEBUG_MSG: CALLING S/R CALC_IVDC
(PID.TID 0000.0001) DEBUG_MSG: CALLING S/R GRAD_SIGMA
(PID.TID 0000.0001) DEBUG_MSG: CALLING S/R CALC_IVDC
(PID.TID 0000.0001) DEBUG_MSG: CALLING S/R GRAD_SIGMA
(PID.TID 0000.0001) DEBUG_MSG: CALLING S/R CALC_IVDC
(PID.TID 0000.0001) DEBUG_MSG: CALLING S/R GRAD_SIGMA
(PID.TID 0000.0001) DEBUG_MSG: CALLING S/R CALC_IVDC
(PID.TID 0000.0001) DEBUG_MSG: CALLING S/R GRAD_SIGMA
(PID.TID 0000.0001) DEBUG_MSG: CALLING S/R GMREDI_CALC_TENSOR
(PID.TID 0000.0001) DEBUG_MSG: LEAVING S/R DO_OCEANIC_PHYS
(PID.TID 0000.0001) DEBUG_MSG: CALLING S/R DYNAMICS
(PID.TID 0000.0001) DEBUG_MSG: ENTERED S/R DYNAMICS
DEBUG_STATS_RL:                EtaN (DYNAMICS)  min= -7.28740725277709E-01
DEBUG_STATS_RL:                EtaN (DYNAMICS)  max=  1.96934598846837E+00
DEBUG_STATS_RL:                EtaN (DYNAMICS) mean=  3.85932814503347E-02
DEBUG_STATS_RL:                EtaN (DYNAMICS) S.D.=  8.62080105121600E-02
DEBUG_STATS_RL:                Uvel (DYNAMICS)  min= -5.85208674830571E-01
DEBUG_STATS_RL:                Uvel (DYNAMICS)  max=  7.21993653016740E-01
DEBUG_STATS_RL:                Uvel (DYNAMICS) mean= -5.14929647550808E-04
DEBUG_STATS_RL:                Uvel (DYNAMICS) S.D.=  1.79708497428303E-02
DEBUG_STATS_RL:                Vvel (DYNAMICS)  min= -6.43161986628450E-01
DEBUG_STATS_RL:                Vvel (DYNAMICS)  max=  7.46366226734863E-01
DEBUG_STATS_RL:                Vvel (DYNAMICS) mean= -4.98543266005763E-04
DEBUG_STATS_RL:                Vvel (DYNAMICS) S.D.=  2.01422640675345E-02
DEBUG_STATS_RL:                Wvel (DYNAMICS)  min= -2.44996819480827E-04
DEBUG_STATS_RL:                Wvel (DYNAMICS)  max=  1.36125491522294E-04
DEBUG_STATS_RL:                Wvel (DYNAMICS) mean= -3.92194623075484E-07
DEBUG_STATS_RL:                Wvel (DYNAMICS) S.D.=  7.56588085238285E-06
DEBUG_STATS_RL:               Theta (DYNAMICS)  min=  1.61393392711387E+01
DEBUG_STATS_RL:               Theta (DYNAMICS)  max=  2.31421131313155E+01
DEBUG_STATS_RL:               Theta (DYNAMICS) mean=  2.00021877370617E+01
DEBUG_STATS_RL:               Theta (DYNAMICS) S.D.=  8.66082119901045E-02
DEBUG_STATS_RL:                Salt (DYNAMICS)  min=  2.46653462196042E+01
DEBUG_STATS_RL:                Salt (DYNAMICS)  max=  3.51510160188621E+01
DEBUG_STATS_RL:                Salt (DYNAMICS) mean=  3.49972707675486E+01
DEBUG_STATS_RL:                Salt (DYNAMICS) S.D.=  1.17897835560341E-01
DEBUG_STATS_RL:                  Gu (DYNAMICS)  min= -5.99686515676943E-01
DEBUG_STATS_RL:                  Gu (DYNAMICS)  max=  7.31076529956681E-01
DEBUG_STATS_RL:                  Gu (DYNAMICS) mean= -4.91619759201804E-04
DEBUG_STATS_RL:                  Gu (DYNAMICS) S.D.=  1.78780871587064E-02
DEBUG_STATS_RL:                  Gv (DYNAMICS)  min= -6.28860523139663E-01
DEBUG_STATS_RL:                  Gv (DYNAMICS)  max=  7.17976660836729E-01
DEBUG_STATS_RL:                  Gv (DYNAMICS) mean= -5.12710821949724E-04
DEBUG_STATS_RL:                  Gv (DYNAMICS) S.D.=  1.99471831181508E-02
DEBUG_STATS_RL:               GuNm1 (DYNAMICS)  min= -2.74320881471407E-05
DEBUG_STATS_RL:               GuNm1 (DYNAMICS)  max=  4.61112000473417E-05
DEBUG_STATS_RL:               GuNm1 (DYNAMICS) mean=  2.59920606472918E-08
DEBUG_STATS_RL:               GuNm1 (DYNAMICS) S.D.=  1.39477278526098E-06
DEBUG_STATS_RL:               GvNm1 (DYNAMICS)  min= -3.04215768223537E-05
DEBUG_STATS_RL:               GvNm1 (DYNAMICS)  max=  1.85004494820993E-05
DEBUG_STATS_RL:               GvNm1 (DYNAMICS) mean= -1.62442480997535E-08
DEBUG_STATS_RL:               GvNm1 (DYNAMICS) S.D.=  1.22253264395536E-06
DEBUG_STATS_RL:               GtNm1 (DYNAMICS)  min= -9.26599002970359E-06
DEBUG_STATS_RL:               GtNm1 (DYNAMICS)  max=  4.69835392589500E-06
DEBUG_STATS_RL:               GtNm1 (DYNAMICS) mean=  2.50557936887430E-10
DEBUG_STATS_RL:               GtNm1 (DYNAMICS) S.D.=  9.14551615598949E-08
DEBUG_STATS_RL:               GsNm1 (DYNAMICS)  min= -1.62835812288253E-05
DEBUG_STATS_RL:               GsNm1 (DYNAMICS)  max=  2.17675072334736E-06
DEBUG_STATS_RL:               GsNm1 (DYNAMICS) mean= -4.54472550158012E-09
DEBUG_STATS_RL:               GsNm1 (DYNAMICS) S.D.=  1.88857770272045E-07
(PID.TID 0000.0001) DEBUG_MSG: LEAVING S/R DYNAMICS
DEBUG_STATS_RL:    cg2d_b (SOLVE_FOR_PRESSURE)  min= -2.11437981276000E+05
DEBUG_STATS_RL:    cg2d_b (SOLVE_FOR_PRESSURE)  max=  8.36752158938898E+04
DEBUG_STATS_RL:    cg2d_b (SOLVE_FOR_PRESSURE) mean= -3.77236055106614E+03
DEBUG_STATS_RL:    cg2d_b (SOLVE_FOR_PRESSURE) S.D.=  7.77026145095986E+03
 cg2d: Sum(rhs),rhsMax =  -7.88592169443162E+01  4.05042525310671E+01
(PID.TID 0000.0001)  cg2d: iter=     1 ; resid.=  3.20754554712796E-02
(PID.TID 0000.0001)  cg2d: iter=     2 ; resid.=  4.49801914153114E-03
(PID.TID 0000.0001)  cg2d: iter=     3 ; resid.=  1.19380324239645E-03
(PID.TID 0000.0001)  cg2d: iter=     4 ; resid.=  4.01755984481897E-04
(PID.TID 0000.0001)  cg2d: iter=     5 ; resid.=  1.16770722918553E-04
(PID.TID 0000.0001)  cg2d: iter=     6 ; resid.=  2.57780884913600E-05
(PID.TID 0000.0001)  cg2d: iter=     7 ; resid.=  4.80288825321269E-06
(PID.TID 0000.0001)  cg2d: iter=     8 ; resid.=  1.06492109976076E-06
(PID.TID 0000.0001)  cg2d: iter=     9 ; resid.=  3.20883578465715E-07
(PID.TID 0000.0001)  cg2d: iter=    10 ; resid.=  9.65597641305203E-08
DEBUG_STATS_RL:    cg2d_x (SOLVE_FOR_PRESSURE)  min= -7.19182077364405E+00
DEBUG_STATS_RL:    cg2d_x (SOLVE_FOR_PRESSURE)  max=  1.77213347478474E+01
DEBUG_STATS_RL:    cg2d_x (SOLVE_FOR_PRESSURE) mean=  3.82390313625478E-01
DEBUG_STATS_RL:    cg2d_x (SOLVE_FOR_PRESSURE) S.D.=  8.21439157996374E-01
(PID.TID 0000.0001)      cg2d_init_res =   2.89817322295835E-01
(PID.TID 0000.0001)      cg2d_iters(min,last) =      -1      10
(PID.TID 0000.0001)      cg2d_last_res =   9.65597641305203E-08
(PID.TID 0000.0001) DEBUG_MSG: CALLING S/R UPDATE_ETAH
(PID.TID 0000.0001) DEBUG_MSG: ENTERED S/R CALC_R_STAR
(PID.TID 0000.0001) DEBUG_MSG: LEAVING S/R CALC_R_STAR
(PID.TID 0000.0001) DEBUG_MSG: CALLING S/R DO_STAGGER_FIELDS_EXCH.
(PID.TID 0000.0001) DEBUG_MSG: CALLING S/R THERMODYNAMICS
(PID.TID 0000.0001) DEBUG_MSG: ENTERED S/R THERMODYNAMICS
(PID.TID 0000.0001) DEBUG_MSG: CALLING S/R TEMP_INTEGRATE
(PID.TID 0000.0001) DEBUG_MSG: CALLING S/R SALT_INTEGRATE
DEBUG_STATS_RL:          Uvel (THERMODYNAMICS)  min= -6.05621775453242E-01
DEBUG_STATS_RL:          Uvel (THERMODYNAMICS)  max=  7.39526011283525E-01
DEBUG_STATS_RL:          Uvel (THERMODYNAMICS) mean= -4.91061992469992E-04
DEBUG_STATS_RL:          Uvel (THERMODYNAMICS) S.D.=  1.80066238532862E-02
DEBUG_STATS_RL:          Vvel (THERMODYNAMICS)  min= -6.46508360372960E-01
DEBUG_STATS_RL:          Vvel (THERMODYNAMICS)  max=  7.30953305167657E-01
DEBUG_STATS_RL:          Vvel (THERMODYNAMICS) mean= -4.99627588891733E-04
DEBUG_STATS_RL:          Vvel (THERMODYNAMICS) S.D.=  2.00706339518745E-02
DEBUG_STATS_RL:          Wvel (THERMODYNAMICS)  min= -2.43381041195682E-04
DEBUG_STATS_RL:          Wvel (THERMODYNAMICS)  max=  1.35966566501456E-04
DEBUG_STATS_RL:          Wvel (THERMODYNAMICS) mean= -3.79615532249768E-07
DEBUG_STATS_RL:          Wvel (THERMODYNAMICS) S.D.=  7.51823238419569E-06
DEBUG_STATS_RL:         Theta (THERMODYNAMICS)  min=  1.61325434394487E+01
DEBUG_STATS_RL:         Theta (THERMODYNAMICS)  max=  2.31773321065416E+01
DEBUG_STATS_RL:         Theta (THERMODYNAMICS) mean=  2.00022861534160E+01
DEBUG_STATS_RL:         Theta (THERMODYNAMICS) S.D.=  8.72031563229953E-02
DEBUG_STATS_RL:          Salt (THERMODYNAMICS)  min=  2.45911461592769E+01
DEBUG_STATS_RL:          Salt (THERMODYNAMICS)  max=  3.51510032031460E+01
DEBUG_STATS_RL:          Salt (THERMODYNAMICS) mean=  3.49972447352392E+01
DEBUG_STATS_RL:          Salt (THERMODYNAMICS) S.D.=  1.18791043012773E-01
DEBUG_STATS_RL:         GtNm1 (THERMODYNAMICS)  min= -9.30069603343425E-06
DEBUG_STATS_RL:         GtNm1 (THERMODYNAMICS)  max=  4.71187134098618E-06
DEBUG_STATS_RL:         GtNm1 (THERMODYNAMICS) mean=  2.67235570901095E-10
DEBUG_STATS_RL:         GtNm1 (THERMODYNAMICS) S.D.=  9.28112032291914E-08
DEBUG_STATS_RL:         GsNm1 (THERMODYNAMICS)  min= -1.62310536311340E-05
DEBUG_STATS_RL:         GsNm1 (THERMODYNAMICS)  max=  2.18051756433555E-06
DEBUG_STATS_RL:         GsNm1 (THERMODYNAMICS) mean= -4.55713802679098E-09
DEBUG_STATS_RL:         GsNm1 (THERMODYNAMICS) S.D.=  1.88579636077901E-07
(PID.TID 0000.0001) DEBUG_MSG: LEAVING S/R THERMODYNAMICS
(PID.TID 0000.0001) // =======================================================
(PID.TID 0000.0001) // Begin MONITOR dynamic field statistics
(PID.TID 0000.0001) // =======================================================
(PID.TID 0000.0001) %MON time_tsnumber                =                    60
(PID.TID 0000.0001) %MON time_secondsf                =   5.4000000000000E+04
(PID.TID 0000.0001) %MON dynstat_eta_max              =   1.8064561378866E+00
(PID.TID 0000.0001) %MON dynstat_eta_min              =  -7.3311119499412E-01
(PID.TID 0000.0001) %MON dynstat_eta_mean             =   3.7115409419460E-02
(PID.TID 0000.0001) %MON dynstat_eta_sd               =   7.6747537684241E-02
(PID.TID 0000.0001) %MON dynstat_eta_del2             =   1.3271166794112E-03
(PID.TID 0000.0001) %MON dynstat_uvel_max             =   7.3952601128353E-01
(PID.TID 0000.0001) %MON dynstat_uvel_min             =  -6.0562177545324E-01
(PID.TID 0000.0001) %MON dynstat_uvel_mean            =  -5.1293713416855E-05
(PID.TID 0000.0001) %MON dynstat_uvel_sd              =   6.1227751231690E-03
(PID.TID 0000.0001) %MON dynstat_uvel_del2            =   1.1092965931166E-04
(PID.TID 0000.0001) %MON dynstat_vvel_max             =   7.3095330516766E-01
(PID.TID 0000.0001) %MON dynstat_vvel_min             =  -6.4650836037296E-01
(PID.TID 0000.0001) %MON dynstat_vvel_mean            =   9.3723701930900E-04
(PID.TID 0000.0001) %MON dynstat_vvel_sd              =   6.7548820566135E-03
(PID.TID 0000.0001) %MON dynstat_vvel_del2            =   1.1728968679625E-04
(PID.TID 0000.0001) %MON dynstat_wvel_max             =   1.3596656650146E-04
(PID.TID 0000.0001) %MON dynstat_wvel_min             =  -2.4338104119568E-04
(PID.TID 0000.0001) %MON dynstat_wvel_mean            =  -3.6109619187671E-07
(PID.TID 0000.0001) %MON dynstat_wvel_sd              =   7.1970504822050E-06
(PID.TID 0000.0001) %MON dynstat_wvel_del2            =   7.6846200836107E-08
(PID.TID 0000.0001) %MON dynstat_theta_max            =   2.3177332106542E+01
(PID.TID 0000.0001) %MON dynstat_theta_min            =   1.6132543439449E+01
(PID.TID 0000.0001) %MON dynstat_theta_mean           =   1.9997896428379E+01
(PID.TID 0000.0001) %MON dynstat_theta_sd             =   2.8922943949890E-02
(PID.TID 0000.0001) %MON dynstat_theta_del2           =   5.1071295541685E-04
(PID.TID 0000.0001) %MON dynstat_salt_max             =   3.5151003203146E+01
(PID.TID 0000.0001) %MON dynstat_salt_min             =   2.4591146159277E+01
(PID.TID 0000.0001) %MON dynstat_salt_mean            =   3.4999641181544E+01
(PID.TID 0000.0001) %MON dynstat_salt_sd              =   3.6675382574628E-02
(PID.TID 0000.0001) %MON dynstat_salt_del2            =   1.2692047622584E-03
(PID.TID 0000.0001) %MON dynstat_sst_max              =   2.3177332106542E+01
(PID.TID 0000.0001) %MON dynstat_sst_min              =   1.6132543439449E+01
(PID.TID 0000.0001) %MON dynstat_sst_mean             =   2.0127917071237E+01
(PID.TID 0000.0001) %MON dynstat_sst_sd               =   2.6762390508961E-01
(PID.TID 0000.0001) %MON dynstat_sst_del2             =   5.8796471092502E-03
(PID.TID 0000.0001) %MON dynstat_sss_max              =   3.5151003203146E+01
(PID.TID 0000.0001) %MON dynstat_sss_min              =   2.4591146159277E+01
(PID.TID 0000.0001) %MON dynstat_sss_mean             =   3.4967291229292E+01
(PID.TID 0000.0001) %MON dynstat_sss_sd               =   4.4225855320768E-01
(PID.TID 0000.0001) %MON dynstat_sss_del2             =   1.7183507082466E-02
(PID.TID 0000.0001) %MON forcing_qnet_max             =   3.0295036621094E+03
(PID.TID 0000.0001) %MON forcing_qnet_min             =  -3.5738020019531E+03
(PID.TID 0000.0001) %MON forcing_qnet_mean            =  -1.2980164047869E+01
(PID.TID 0000.0001) %MON forcing_qnet_sd              =   4.8572158801882E+02
(PID.TID 0000.0001) %MON forcing_qnet_del2            =   6.4838724628942E+00
(PID.TID 0000.0001) %MON forcing_qsw_max              =   0.0000000000000E+00
(PID.TID 0000.0001) %MON forcing_qsw_min              =  -1.0126589231994E+02
(PID.TID 0000.0001) %MON forcing_qsw_mean             =  -1.5145601514374E+01
(PID.TID 0000.0001) %MON forcing_qsw_sd               =   2.5292355607364E+01
(PID.TID 0000.0001) %MON forcing_qsw_del2             =   2.0628000224005E-01
(PID.TID 0000.0001) %MON forcing_empmr_max            =   6.0204383917153E-03
(PID.TID 0000.0001) %MON forcing_empmr_min            =  -8.6543381214142E-02
(PID.TID 0000.0001) %MON forcing_empmr_mean           =  -4.0327368060543E-04
(PID.TID 0000.0001) %MON forcing_empmr_sd             =   3.8372856791087E-03
(PID.TID 0000.0001) %MON forcing_empmr_del2           =   1.5032131670820E-04
(PID.TID 0000.0001) %MON forcing_fu_max               =   6.4144563620640E-01
(PID.TID 0000.0001) %MON forcing_fu_min               =  -6.1579254580750E-01
(PID.TID 0000.0001) %MON forcing_fu_mean              =  -1.2061531256949E-03
(PID.TID 0000.0001) %MON forcing_fu_sd                =   8.8467995851896E-02
(PID.TID 0000.0001) %MON forcing_fu_del2              =   7.4422742344566E-04
(PID.TID 0000.0001) %MON forcing_fv_max               =   4.1110380915905E-01
(PID.TID 0000.0001) %MON forcing_fv_min               =  -4.2183559543774E-01
(PID.TID 0000.0001) %MON forcing_fv_mean              =  -6.9395621389239E-03
(PID.TID 0000.0001) %MON forcing_fv_sd                =   7.6194444713413E-02
(PID.TID 0000.0001) %MON forcing_fv_del2              =   6.3601424646032E-04
(PID.TID 0000.0001) %MON trAdv_CFL_u_max              =   2.4152757076116E-03
(PID.TID 0000.0001) %MON trAdv_CFL_v_max              =   2.4379589923316E-03
(PID.TID 0000.0001) %MON trAdv_CFL_w_max              =   3.1908598887629E-03
(PID.TID 0000.0001) %MON advcfl_uvel_max              =   2.4661466666426E-03
(PID.TID 0000.0001) %MON advcfl_vvel_max              =   2.3853672647780E-03
(PID.TID 0000.0001) %MON advcfl_wvel_max              =   6.0204091279403E-03
(PID.TID 0000.0001) %MON advcfl_W_hf_max              =   3.1908598887629E-03
(PID.TID 0000.0001) %MON pe_b_mean                    =   9.6818735992036E-06
(PID.TID 0000.0001) %MON ke_max                       =   2.6264569128073E-01
(PID.TID 0000.0001) %MON ke_mean                      =   3.8801440028998E-05
(PID.TID 0000.0001) %MON ke_vol                       =   1.3398158235628E+18
(PID.TID 0000.0001) %MON vort_r_min                   =  -4.0489640979318E-06
(PID.TID 0000.0001) %MON vort_r_max                   =   3.2639953148721E-06
(PID.TID 0000.0001) %MON vort_a_mean                  =  -2.0549865324846E-05
(PID.TID 0000.0001) %MON vort_a_sd                    =   7.5259477462859E-05
(PID.TID 0000.0001) %MON vort_p_mean                  =  -2.4783275646002E-05
(PID.TID 0000.0001) %MON vort_p_sd                    =   1.2810517517629E-04
(PID.TID 0000.0001) %MON surfExpan_theta_mean         =  -1.0799219289857E-07
(PID.TID 0000.0001) %MON surfExpan_salt_mean          =   1.5931520901778E-06
(PID.TID 0000.0001) // =======================================================
(PID.TID 0000.0001) // End MONITOR dynamic field statistics
(PID.TID 0000.0001) // =======================================================
(PID.TID 0000.0001) DEBUG_MSG: LEAVING S/R FORWARD_STEP
(PID.TID 0000.0001) DEBUG_MSG: ENTERED S/R FORWARD_STEP
(PID.TID 0000.0001) DEBUG_MSG: CALLING S/R LOAD_FIELDS_DRIVER
(PID.TID 0000.0001) DEBUG_MSG: ENTERED S/R LOAD_FIELDS_DRIVER
(PID.TID 0000.0001) DEBUG_MSG: CALLING S/R EXTERNAL_FIELDS_LOAD
(PID.TID 0000.0001) DEBUG_MSG: LEAVING S/R LOAD_FIELDS_DRIVER
(PID.TID 0000.0001) DEBUG_MSG: CALLING S/R DO_ATMOSPHERIC_PHYS
(PID.TID 0000.0001) DEBUG_MSG: ENTERED S/R DO_ATMOSPHERIC_PHYS
(PID.TID 0000.0001) DEBUG_MSG: LEAVING S/R DO_ATMOSPHERIC_PHYS
(PID.TID 0000.0001) DEBUG_MSG: CALLING S/R DO_OCEANIC_PHYS
(PID.TID 0000.0001) DEBUG_MSG: ENTERED S/R DO_OCEANIC_PHYS
(PID.TID 0000.0001) DEBUG_MSG: CALLING S/R EXTERNAL_FORCING_SURF
(PID.TID 0000.0001) DEBUG_MSG: CALLING S/R FIND_RHO_2D (xNr)
(PID.TID 0000.0001) DEBUG_MSG:                  ENTERING UPWARD K LOOP (bi=   1, bj=   1)
(PID.TID 0000.0001) DEBUG_MSG: CALLING S/R GRAD_SIGMA
(PID.TID 0000.0001) DEBUG_MSG: CALLING S/R CALC_IVDC
(PID.TID 0000.0001) DEBUG_MSG: CALLING S/R GRAD_SIGMA
(PID.TID 0000.0001) DEBUG_MSG: CALLING S/R CALC_IVDC
(PID.TID 0000.0001) DEBUG_MSG: CALLING S/R GRAD_SIGMA
(PID.TID 0000.0001) DEBUG_MSG: CALLING S/R CALC_IVDC
(PID.TID 0000.0001) DEBUG_MSG: CALLING S/R GRAD_SIGMA
(PID.TID 0000.0001) DEBUG_MSG: CALLING S/R CALC_IVDC
(PID.TID 0000.0001) DEBUG_MSG: CALLING S/R GRAD_SIGMA
(PID.TID 0000.0001) DEBUG_MSG: CALLING S/R CALC_IVDC
(PID.TID 0000.0001) DEBUG_MSG: CALLING S/R GRAD_SIGMA
(PID.TID 0000.0001) DEBUG_MSG: CALLING S/R CALC_IVDC
(PID.TID 0000.0001) DEBUG_MSG: CALLING S/R GRAD_SIGMA
(PID.TID 0000.0001) DEBUG_MSG: CALLING S/R CALC_IVDC
(PID.TID 0000.0001) DEBUG_MSG: CALLING S/R GRAD_SIGMA
(PID.TID 0000.0001) DEBUG_MSG: CALLING S/R CALC_IVDC
(PID.TID 0000.0001) DEBUG_MSG: CALLING S/R GRAD_SIGMA
(PID.TID 0000.0001) DEBUG_MSG: CALLING S/R CALC_IVDC
(PID.TID 0000.0001) DEBUG_MSG: CALLING S/R GRAD_SIGMA
(PID.TID 0000.0001) DEBUG_MSG: CALLING S/R CALC_IVDC
(PID.TID 0000.0001) DEBUG_MSG: CALLING S/R GRAD_SIGMA
(PID.TID 0000.0001) DEBUG_MSG: CALLING S/R CALC_IVDC
(PID.TID 0000.0001) DEBUG_MSG: CALLING S/R GRAD_SIGMA
(PID.TID 0000.0001) DEBUG_MSG: CALLING S/R CALC_IVDC
(PID.TID 0000.0001) DEBUG_MSG: CALLING S/R GRAD_SIGMA
(PID.TID 0000.0001) DEBUG_MSG: CALLING S/R CALC_IVDC
(PID.TID 0000.0001) DEBUG_MSG: CALLING S/R GRAD_SIGMA
(PID.TID 0000.0001) DEBUG_MSG: CALLING S/R CALC_IVDC
(PID.TID 0000.0001) DEBUG_MSG: CALLING S/R GRAD_SIGMA
(PID.TID 0000.0001) DEBUG_MSG: CALLING S/R CALC_IVDC
(PID.TID 0000.0001) DEBUG_MSG: CALLING S/R GRAD_SIGMA
(PID.TID 0000.0001) DEBUG_MSG: CALLING S/R GMREDI_CALC_TENSOR
(PID.TID 0000.0001) DEBUG_MSG: LEAVING S/R DO_OCEANIC_PHYS
(PID.TID 0000.0001) DEBUG_MSG: CALLING S/R DYNAMICS
(PID.TID 0000.0001) DEBUG_MSG: ENTERED S/R DYNAMICS
DEBUG_STATS_RL:                EtaN (DYNAMICS)  min= -7.33111194994116E-01
DEBUG_STATS_RL:                EtaN (DYNAMICS)  max=  1.80645613788662E+00
DEBUG_STATS_RL:                EtaN (DYNAMICS) mean=  3.89796444943064E-02
DEBUG_STATS_RL:                EtaN (DYNAMICS) S.D.=  8.37348786786046E-02
DEBUG_STATS_RL:                Uvel (DYNAMICS)  min= -6.05621775453242E-01
DEBUG_STATS_RL:                Uvel (DYNAMICS)  max=  7.39526011283525E-01
DEBUG_STATS_RL:                Uvel (DYNAMICS) mean= -4.91061992469992E-04
DEBUG_STATS_RL:                Uvel (DYNAMICS) S.D.=  1.80066238532862E-02
DEBUG_STATS_RL:                Vvel (DYNAMICS)  min= -6.46508360372960E-01
DEBUG_STATS_RL:                Vvel (DYNAMICS)  max=  7.30953305167657E-01
DEBUG_STATS_RL:                Vvel (DYNAMICS) mean= -4.99627588891733E-04
DEBUG_STATS_RL:                Vvel (DYNAMICS) S.D.=  2.00706339518745E-02
DEBUG_STATS_RL:                Wvel (DYNAMICS)  min= -2.43381041195682E-04
DEBUG_STATS_RL:                Wvel (DYNAMICS)  max=  1.35966566501456E-04
DEBUG_STATS_RL:                Wvel (DYNAMICS) mean= -3.79615532249768E-07
DEBUG_STATS_RL:                Wvel (DYNAMICS) S.D.=  7.51823238419569E-06
DEBUG_STATS_RL:               Theta (DYNAMICS)  min=  1.61325434394487E+01
DEBUG_STATS_RL:               Theta (DYNAMICS)  max=  2.31773321065416E+01
DEBUG_STATS_RL:               Theta (DYNAMICS) mean=  2.00022861534160E+01
DEBUG_STATS_RL:               Theta (DYNAMICS) S.D.=  8.72031563229953E-02
DEBUG_STATS_RL:                Salt (DYNAMICS)  min=  2.45911461592769E+01
DEBUG_STATS_RL:                Salt (DYNAMICS)  max=  3.51510032031460E+01
DEBUG_STATS_RL:                Salt (DYNAMICS) mean=  3.49972447352392E+01
DEBUG_STATS_RL:                Salt (DYNAMICS) S.D.=  1.18791043012773E-01
DEBUG_STATS_RL:                  Gu (DYNAMICS)  min= -6.20522447725500E-01
DEBUG_STATS_RL:                  Gu (DYNAMICS)  max=  7.46927974368629E-01
DEBUG_STATS_RL:                  Gu (DYNAMICS) mean= -4.69422188383437E-04
DEBUG_STATS_RL:                  Gu (DYNAMICS) S.D.=  1.79554129623922E-02
DEBUG_STATS_RL:                  Gv (DYNAMICS)  min= -6.33319826212847E-01
DEBUG_STATS_RL:                  Gv (DYNAMICS)  max=  7.01096240978530E-01
DEBUG_STATS_RL:                  Gv (DYNAMICS) mean= -5.14151754990563E-04
DEBUG_STATS_RL:                  Gv (DYNAMICS) S.D.=  1.98818169708840E-02
DEBUG_STATS_RL:               GuNm1 (DYNAMICS)  min= -2.83619145251870E-05
DEBUG_STATS_RL:               GuNm1 (DYNAMICS)  max=  4.44349025671084E-05
DEBUG_STATS_RL:               GuNm1 (DYNAMICS) mean=  2.44196862586483E-08
DEBUG_STATS_RL:               GuNm1 (DYNAMICS) S.D.=  1.39896521625766E-06
DEBUG_STATS_RL:               GvNm1 (DYNAMICS)  min= -3.25235262742794E-05
DEBUG_STATS_RL:               GvNm1 (DYNAMICS)  max=  1.80257080911692E-05
DEBUG_STATS_RL:               GvNm1 (DYNAMICS) mean= -1.67771676722592E-08
DEBUG_STATS_RL:               GvNm1 (DYNAMICS) S.D.=  1.21190982464329E-06
DEBUG_STATS_RL:               GtNm1 (DYNAMICS)  min= -9.30069603343425E-06
DEBUG_STATS_RL:               GtNm1 (DYNAMICS)  max=  4.71187134098618E-06
DEBUG_STATS_RL:               GtNm1 (DYNAMICS) mean=  2.67235570901095E-10
DEBUG_STATS_RL:               GtNm1 (DYNAMICS) S.D.=  9.28112032291914E-08
DEBUG_STATS_RL:               GsNm1 (DYNAMICS)  min= -1.62310536311340E-05
DEBUG_STATS_RL:               GsNm1 (DYNAMICS)  max=  2.18051756433555E-06
DEBUG_STATS_RL:               GsNm1 (DYNAMICS) mean= -4.55713802679098E-09
DEBUG_STATS_RL:               GsNm1 (DYNAMICS) S.D.=  1.88579636077901E-07
(PID.TID 0000.0001) DEBUG_MSG: LEAVING S/R DYNAMICS
DEBUG_STATS_RL:    cg2d_b (SOLVE_FOR_PRESSURE)  min= -1.91650032779084E+05
DEBUG_STATS_RL:    cg2d_b (SOLVE_FOR_PRESSURE)  max=  8.28949412844419E+04
DEBUG_STATS_RL:    cg2d_b (SOLVE_FOR_PRESSURE) mean= -3.80767572261142E+03
DEBUG_STATS_RL:    cg2d_b (SOLVE_FOR_PRESSURE) S.D.=  7.56463314002918E+03
 cg2d: Sum(rhs),rhsMax =  -8.78159343355940E+01  3.67135614823071E+01
(PID.TID 0000.0001)  cg2d: iter=     1 ; resid.=  3.40862906841872E-02
(PID.TID 0000.0001)  cg2d: iter=     2 ; resid.=  4.79233932029614E-03
(PID.TID 0000.0001)  cg2d: iter=     3 ; resid.=  1.22116747808254E-03
(PID.TID 0000.0001)  cg2d: iter=     4 ; resid.=  3.95640492029322E-04
(PID.TID 0000.0001)  cg2d: iter=     5 ; resid.=  1.21708633884946E-04
(PID.TID 0000.0001)  cg2d: iter=     6 ; resid.=  2.78476679227495E-05
(PID.TID 0000.0001)  cg2d: iter=     7 ; resid.=  5.18264389667111E-06
(PID.TID 0000.0001)  cg2d: iter=     8 ; resid.=  1.16913432308675E-06
(PID.TID 0000.0001)  cg2d: iter=     9 ; resid.=  3.76476181439360E-07
(PID.TID 0000.0001)  cg2d: iter=    10 ; resid.=  1.10654314648835E-07
(PID.TID 0000.0001)  cg2d: iter=    11 ; resid.=  2.52089535233684E-08
DEBUG_STATS_RL:    cg2d_x (SOLVE_FOR_PRESSURE)  min= -7.11857371234893E+00
DEBUG_STATS_RL:    cg2d_x (SOLVE_FOR_PRESSURE)  max=  1.60672775043706E+01
DEBUG_STATS_RL:    cg2d_x (SOLVE_FOR_PRESSURE) mean=  3.86033612972553E-01
DEBUG_STATS_RL:    cg2d_x (SOLVE_FOR_PRESSURE) S.D.=  8.01751494478773E-01
(PID.TID 0000.0001)      cg2d_init_res =   3.16868624866464E-01
(PID.TID 0000.0001)      cg2d_iters(min,last) =      -1      11
(PID.TID 0000.0001)      cg2d_last_res =   2.52089535233684E-08
(PID.TID 0000.0001) DEBUG_MSG: CALLING S/R UPDATE_ETAH
(PID.TID 0000.0001) DEBUG_MSG: ENTERED S/R CALC_R_STAR
(PID.TID 0000.0001) DEBUG_MSG: LEAVING S/R CALC_R_STAR
(PID.TID 0000.0001) DEBUG_MSG: CALLING S/R DO_STAGGER_FIELDS_EXCH.
(PID.TID 0000.0001) DEBUG_MSG: CALLING S/R THERMODYNAMICS
(PID.TID 0000.0001) DEBUG_MSG: ENTERED S/R THERMODYNAMICS
(PID.TID 0000.0001) DEBUG_MSG: CALLING S/R TEMP_INTEGRATE
(PID.TID 0000.0001) DEBUG_MSG: CALLING S/R SALT_INTEGRATE
DEBUG_STATS_RL:          Uvel (THERMODYNAMICS)  min= -6.24462359628886E-01
DEBUG_STATS_RL:          Uvel (THERMODYNAMICS)  max=  7.44724558297187E-01
DEBUG_STATS_RL:          Uvel (THERMODYNAMICS) mean= -4.68920131530183E-04
DEBUG_STATS_RL:          Uvel (THERMODYNAMICS) S.D.=  1.80540705844074E-02
DEBUG_STATS_RL:          Vvel (THERMODYNAMICS)  min= -6.46118719351904E-01
DEBUG_STATS_RL:          Vvel (THERMODYNAMICS)  max=  7.04556296621216E-01
DEBUG_STATS_RL:          Vvel (THERMODYNAMICS) mean= -5.03386533440322E-04
DEBUG_STATS_RL:          Vvel (THERMODYNAMICS) S.D.=  1.99736098198594E-02
DEBUG_STATS_RL:          Wvel (THERMODYNAMICS)  min= -2.41168964358389E-04
DEBUG_STATS_RL:          Wvel (THERMODYNAMICS)  max=  1.35570713471482E-04
DEBUG_STATS_RL:          Wvel (THERMODYNAMICS) mean= -3.65927966411022E-07
DEBUG_STATS_RL:          Wvel (THERMODYNAMICS) S.D.=  7.46753478431126E-06
DEBUG_STATS_RL:         Theta (THERMODYNAMICS)  min=  1.61256017866212E+01
DEBUG_STATS_RL:         Theta (THERMODYNAMICS)  max=  2.32121100553115E+01
DEBUG_STATS_RL:         Theta (THERMODYNAMICS) mean=  2.00023857291131E+01
DEBUG_STATS_RL:         Theta (THERMODYNAMICS) S.D.=  8.77960614124626E-02
DEBUG_STATS_RL:          Salt (THERMODYNAMICS)  min=  2.45186602094834E+01
DEBUG_STATS_RL:          Salt (THERMODYNAMICS)  max=  3.51509891508900E+01
DEBUG_STATS_RL:          Salt (THERMODYNAMICS) mean=  3.49972192192671E+01
DEBUG_STATS_RL:          Salt (THERMODYNAMICS) S.D.=  1.19665297077664E-01
DEBUG_STATS_RL:         GtNm1 (THERMODYNAMICS)  min= -9.21518401441369E-06
DEBUG_STATS_RL:         GtNm1 (THERMODYNAMICS)  max=  4.72546767768128E-06
DEBUG_STATS_RL:         GtNm1 (THERMODYNAMICS) mean=  2.89072423296039E-10
DEBUG_STATS_RL:         GtNm1 (THERMODYNAMICS) S.D.=  9.33733497172076E-08
DEBUG_STATS_RL:         GsNm1 (THERMODYNAMICS)  min= -1.61746982794164E-05
DEBUG_STATS_RL:         GsNm1 (THERMODYNAMICS)  max=  2.18178376303909E-06
DEBUG_STATS_RL:         GsNm1 (THERMODYNAMICS) mean= -4.56629404484579E-09
DEBUG_STATS_RL:         GsNm1 (THERMODYNAMICS) S.D.=  1.88215275331738E-07
(PID.TID 0000.0001) DEBUG_MSG: LEAVING S/R THERMODYNAMICS
(PID.TID 0000.0001) // =======================================================
(PID.TID 0000.0001) // Begin MONITOR dynamic field statistics
(PID.TID 0000.0001) // =======================================================
(PID.TID 0000.0001) %MON time_tsnumber                =                    61
(PID.TID 0000.0001) %MON time_secondsf                =   5.4900000000000E+04
(PID.TID 0000.0001) %MON dynstat_eta_max              =   1.6378468411983E+00
(PID.TID 0000.0001) %MON dynstat_eta_min              =  -7.2564461802556E-01
(PID.TID 0000.0001) %MON dynstat_eta_mean             =   3.7462867472019E-02
(PID.TID 0000.0001) %MON dynstat_eta_sd               =   7.4761793136646E-02
(PID.TID 0000.0001) %MON dynstat_eta_del2             =   1.2430053550101E-03
(PID.TID 0000.0001) %MON dynstat_uvel_max             =   7.4472455829719E-01
(PID.TID 0000.0001) %MON dynstat_uvel_min             =  -6.2446235962889E-01
(PID.TID 0000.0001) %MON dynstat_uvel_mean            =  -3.9105763833961E-05
(PID.TID 0000.0001) %MON dynstat_uvel_sd              =   6.1443138958953E-03
(PID.TID 0000.0001) %MON dynstat_uvel_del2            =   1.1073046145151E-04
(PID.TID 0000.0001) %MON dynstat_vvel_max             =   7.0455629662122E-01
(PID.TID 0000.0001) %MON dynstat_vvel_min             =  -6.4611871935190E-01
(PID.TID 0000.0001) %MON dynstat_vvel_mean            =   9.4793392614758E-04
(PID.TID 0000.0001) %MON dynstat_vvel_sd              =   6.7241590934464E-03
(PID.TID 0000.0001) %MON dynstat_vvel_del2            =   1.1771928832746E-04
(PID.TID 0000.0001) %MON dynstat_wvel_max             =   1.3557071347148E-04
(PID.TID 0000.0001) %MON dynstat_wvel_min             =  -2.4116896435839E-04
(PID.TID 0000.0001) %MON dynstat_wvel_mean            =  -3.4712003110997E-07
(PID.TID 0000.0001) %MON dynstat_wvel_sd              =   7.1529201654545E-06
(PID.TID 0000.0001) %MON dynstat_wvel_del2            =   7.6239045136754E-08
(PID.TID 0000.0001) %MON dynstat_theta_max            =   2.3212110055311E+01
(PID.TID 0000.0001) %MON dynstat_theta_min            =   1.6125601786621E+01
(PID.TID 0000.0001) %MON dynstat_theta_mean           =   1.9997897388479E+01
(PID.TID 0000.0001) %MON dynstat_theta_sd             =   2.9103363834707E-02
(PID.TID 0000.0001) %MON dynstat_theta_del2           =   5.1329874071857E-04
(PID.TID 0000.0001) %MON dynstat_salt_max             =   3.5150989150890E+01
(PID.TID 0000.0001) %MON dynstat_salt_min             =   2.4518660209483E+01
(PID.TID 0000.0001) %MON dynstat_salt_mean            =   3.4999638060167E+01
(PID.TID 0000.0001) %MON dynstat_salt_sd              =   3.6945025971462E-02
(PID.TID 0000.0001) %MON dynstat_salt_del2            =   1.2780218881117E-03
(PID.TID 0000.0001) %MON dynstat_sst_max              =   2.3212110055311E+01
(PID.TID 0000.0001) %MON dynstat_sst_min              =   1.6125601786621E+01
(PID.TID 0000.0001) %MON dynstat_sst_mean             =   2.0129462501915E+01
(PID.TID 0000.0001) %MON dynstat_sst_sd               =   2.6955784948093E-01
(PID.TID 0000.0001) %MON dynstat_sst_del2             =   5.9192396293951E-03
(PID.TID 0000.0001) %MON dynstat_sss_max              =   3.5150989150890E+01
(PID.TID 0000.0001) %MON dynstat_sss_min              =   2.4518660209483E+01
(PID.TID 0000.0001) %MON dynstat_sss_mean             =   3.4966987128490E+01
(PID.TID 0000.0001) %MON dynstat_sss_sd               =   4.4549904348296E-01
(PID.TID 0000.0001) %MON dynstat_sss_del2             =   1.7302480017315E-02
(PID.TID 0000.0001) %MON forcing_qnet_max             =   2.9888513183594E+03
(PID.TID 0000.0001) %MON forcing_qnet_min             =  -3.5218220214844E+03
(PID.TID 0000.0001) %MON forcing_qnet_mean            =  -1.4558578349638E+01
(PID.TID 0000.0001) %MON forcing_qnet_sd              =   4.8368361240921E+02
(PID.TID 0000.0001) %MON forcing_qnet_del2            =   6.3644023720599E+00
(PID.TID 0000.0001) %MON forcing_qsw_max              =   0.0000000000000E+00
(PID.TID 0000.0001) %MON forcing_qsw_min              =  -1.0097265536513E+02
(PID.TID 0000.0001) %MON forcing_qsw_mean             =  -1.5444146012599E+01
(PID.TID 0000.0001) %MON forcing_qsw_sd               =   2.6243736260761E+01
(PID.TID 0000.0001) %MON forcing_qsw_del2             =   2.1259179754558E-01
(PID.TID 0000.0001) %MON forcing_empmr_max            =   5.9584444388747E-03
(PID.TID 0000.0001) %MON forcing_empmr_min            =  -8.5651434957981E-02
(PID.TID 0000.0001) %MON forcing_empmr_mean           =  -3.9957676044218E-04
(PID.TID 0000.0001) %MON forcing_empmr_sd             =   3.7986231298828E-03
(PID.TID 0000.0001) %MON forcing_empmr_del2           =   1.4877153280761E-04
(PID.TID 0000.0001) %MON forcing_fu_max               =   6.2950983827782E-01
(PID.TID 0000.0001) %MON forcing_fu_min               =  -6.1532061964291E-01
(PID.TID 0000.0001) %MON forcing_fu_mean              =  -1.1646146401610E-03
(PID.TID 0000.0001) %MON forcing_fu_sd                =   8.8221932060235E-02
(PID.TID 0000.0001) %MON forcing_fu_del2              =   7.4131742641033E-04
(PID.TID 0000.0001) %MON forcing_fv_max               =   4.0890986787744E-01
(PID.TID 0000.0001) %MON forcing_fv_min               =  -4.2229344901282E-01
(PID.TID 0000.0001) %MON forcing_fv_mean              =  -6.9973977422149E-03
(PID.TID 0000.0001) %MON forcing_fv_sd                =   7.5828722816423E-02
(PID.TID 0000.0001) %MON forcing_fv_del2              =   6.3339694106466E-04
(PID.TID 0000.0001) %MON trAdv_CFL_u_max              =   2.4374822178795E-03
(PID.TID 0000.0001) %MON trAdv_CFL_v_max              =   2.3547450527951E-03
(PID.TID 0000.0001) %MON trAdv_CFL_w_max              =   3.2225463605029E-03
(PID.TID 0000.0001) %MON advcfl_uvel_max              =   2.4834826077636E-03
(PID.TID 0000.0001) %MON advcfl_vvel_max              =   2.2992241970477E-03
(PID.TID 0000.0001) %MON advcfl_wvel_max              =   5.9583606927291E-03
(PID.TID 0000.0001) %MON advcfl_W_hf_max              =   3.2225463605029E-03
(PID.TID 0000.0001) %MON pe_b_mean                    =   9.3155974820565E-06
(PID.TID 0000.0001) %MON ke_max                       =   2.5608002724933E-01
(PID.TID 0000.0001) %MON ke_mean                      =   3.8739588113476E-05
(PID.TID 0000.0001) %MON ke_vol                       =   1.3398159511680E+18
(PID.TID 0000.0001) %MON vort_r_min                   =  -4.1088228925472E-06
(PID.TID 0000.0001) %MON vort_r_max                   =   3.3062693324381E-06
(PID.TID 0000.0001) %MON vort_a_mean                  =  -2.0549865324846E-05
(PID.TID 0000.0001) %MON vort_a_sd                    =   7.5259481042376E-05
(PID.TID 0000.0001) %MON vort_p_mean                  =  -2.4783272907361E-05
(PID.TID 0000.0001) %MON vort_p_sd                    =   1.2810519124335E-04
(PID.TID 0000.0001) %MON surfExpan_theta_mean         =  -1.2313218777874E-07
(PID.TID 0000.0001) %MON surfExpan_salt_mean          =   1.5932019850168E-06
(PID.TID 0000.0001) // =======================================================
(PID.TID 0000.0001) // End MONITOR dynamic field statistics
(PID.TID 0000.0001) // =======================================================
(PID.TID 0000.0001) DEBUG_MSG: LEAVING S/R FORWARD_STEP
(PID.TID 0000.0001) DEBUG_MSG: ENTERED S/R FORWARD_STEP
(PID.TID 0000.0001) DEBUG_MSG: CALLING S/R LOAD_FIELDS_DRIVER
(PID.TID 0000.0001) DEBUG_MSG: ENTERED S/R LOAD_FIELDS_DRIVER
(PID.TID 0000.0001) DEBUG_MSG: CALLING S/R EXTERNAL_FIELDS_LOAD
(PID.TID 0000.0001) DEBUG_MSG: LEAVING S/R LOAD_FIELDS_DRIVER
(PID.TID 0000.0001) DEBUG_MSG: CALLING S/R DO_ATMOSPHERIC_PHYS
(PID.TID 0000.0001) DEBUG_MSG: ENTERED S/R DO_ATMOSPHERIC_PHYS
(PID.TID 0000.0001) DEBUG_MSG: LEAVING S/R DO_ATMOSPHERIC_PHYS
(PID.TID 0000.0001) DEBUG_MSG: CALLING S/R DO_OCEANIC_PHYS
(PID.TID 0000.0001) DEBUG_MSG: ENTERED S/R DO_OCEANIC_PHYS
(PID.TID 0000.0001) DEBUG_MSG: CALLING S/R EXTERNAL_FORCING_SURF
(PID.TID 0000.0001) DEBUG_MSG: CALLING S/R FIND_RHO_2D (xNr)
(PID.TID 0000.0001) DEBUG_MSG:                  ENTERING UPWARD K LOOP (bi=   1, bj=   1)
(PID.TID 0000.0001) DEBUG_MSG: CALLING S/R GRAD_SIGMA
(PID.TID 0000.0001) DEBUG_MSG: CALLING S/R CALC_IVDC
(PID.TID 0000.0001) DEBUG_MSG: CALLING S/R GRAD_SIGMA
(PID.TID 0000.0001) DEBUG_MSG: CALLING S/R CALC_IVDC
(PID.TID 0000.0001) DEBUG_MSG: CALLING S/R GRAD_SIGMA
(PID.TID 0000.0001) DEBUG_MSG: CALLING S/R CALC_IVDC
(PID.TID 0000.0001) DEBUG_MSG: CALLING S/R GRAD_SIGMA
(PID.TID 0000.0001) DEBUG_MSG: CALLING S/R CALC_IVDC
(PID.TID 0000.0001) DEBUG_MSG: CALLING S/R GRAD_SIGMA
(PID.TID 0000.0001) DEBUG_MSG: CALLING S/R CALC_IVDC
(PID.TID 0000.0001) DEBUG_MSG: CALLING S/R GRAD_SIGMA
(PID.TID 0000.0001) DEBUG_MSG: CALLING S/R CALC_IVDC
(PID.TID 0000.0001) DEBUG_MSG: CALLING S/R GRAD_SIGMA
(PID.TID 0000.0001) DEBUG_MSG: CALLING S/R CALC_IVDC
(PID.TID 0000.0001) DEBUG_MSG: CALLING S/R GRAD_SIGMA
(PID.TID 0000.0001) DEBUG_MSG: CALLING S/R CALC_IVDC
(PID.TID 0000.0001) DEBUG_MSG: CALLING S/R GRAD_SIGMA
(PID.TID 0000.0001) DEBUG_MSG: CALLING S/R CALC_IVDC
(PID.TID 0000.0001) DEBUG_MSG: CALLING S/R GRAD_SIGMA
(PID.TID 0000.0001) DEBUG_MSG: CALLING S/R CALC_IVDC
(PID.TID 0000.0001) DEBUG_MSG: CALLING S/R GRAD_SIGMA
(PID.TID 0000.0001) DEBUG_MSG: CALLING S/R CALC_IVDC
(PID.TID 0000.0001) DEBUG_MSG: CALLING S/R GRAD_SIGMA
(PID.TID 0000.0001) DEBUG_MSG: CALLING S/R CALC_IVDC
(PID.TID 0000.0001) DEBUG_MSG: CALLING S/R GRAD_SIGMA
(PID.TID 0000.0001) DEBUG_MSG: CALLING S/R CALC_IVDC
(PID.TID 0000.0001) DEBUG_MSG: CALLING S/R GRAD_SIGMA
(PID.TID 0000.0001) DEBUG_MSG: CALLING S/R CALC_IVDC
(PID.TID 0000.0001) DEBUG_MSG: CALLING S/R GRAD_SIGMA
(PID.TID 0000.0001) DEBUG_MSG: CALLING S/R CALC_IVDC
(PID.TID 0000.0001) DEBUG_MSG: CALLING S/R GRAD_SIGMA
(PID.TID 0000.0001) DEBUG_MSG: CALLING S/R GMREDI_CALC_TENSOR
(PID.TID 0000.0001) DEBUG_MSG: LEAVING S/R DO_OCEANIC_PHYS
(PID.TID 0000.0001) DEBUG_MSG: CALLING S/R DYNAMICS
(PID.TID 0000.0001) DEBUG_MSG: ENTERED S/R DYNAMICS
DEBUG_STATS_RL:                EtaN (DYNAMICS)  min= -7.25644618025562E-01
DEBUG_STATS_RL:                EtaN (DYNAMICS)  max=  1.63784684119825E+00
DEBUG_STATS_RL:                EtaN (DYNAMICS) mean=  3.93510308870625E-02
DEBUG_STATS_RL:                EtaN (DYNAMICS) S.D.=  8.17279810630190E-02
DEBUG_STATS_RL:                Uvel (DYNAMICS)  min= -6.24462359628886E-01
DEBUG_STATS_RL:                Uvel (DYNAMICS)  max=  7.44724558297187E-01
DEBUG_STATS_RL:                Uvel (DYNAMICS) mean= -4.68920131530183E-04
DEBUG_STATS_RL:                Uvel (DYNAMICS) S.D.=  1.80540705844074E-02
DEBUG_STATS_RL:                Vvel (DYNAMICS)  min= -6.46118719351904E-01
DEBUG_STATS_RL:                Vvel (DYNAMICS)  max=  7.04556296621216E-01
DEBUG_STATS_RL:                Vvel (DYNAMICS) mean= -5.03386533440322E-04
DEBUG_STATS_RL:                Vvel (DYNAMICS) S.D.=  1.99736098198594E-02
DEBUG_STATS_RL:                Wvel (DYNAMICS)  min= -2.41168964358389E-04
DEBUG_STATS_RL:                Wvel (DYNAMICS)  max=  1.35570713471482E-04
DEBUG_STATS_RL:                Wvel (DYNAMICS) mean= -3.65927966411022E-07
DEBUG_STATS_RL:                Wvel (DYNAMICS) S.D.=  7.46753478431126E-06
DEBUG_STATS_RL:               Theta (DYNAMICS)  min=  1.61256017866212E+01
DEBUG_STATS_RL:               Theta (DYNAMICS)  max=  2.32121100553115E+01
DEBUG_STATS_RL:               Theta (DYNAMICS) mean=  2.00023857291131E+01
DEBUG_STATS_RL:               Theta (DYNAMICS) S.D.=  8.77960614124626E-02
DEBUG_STATS_RL:                Salt (DYNAMICS)  min=  2.45186602094834E+01
DEBUG_STATS_RL:                Salt (DYNAMICS)  max=  3.51509891508900E+01
DEBUG_STATS_RL:                Salt (DYNAMICS) mean=  3.49972192192671E+01
DEBUG_STATS_RL:                Salt (DYNAMICS) S.D.=  1.19665297077664E-01
DEBUG_STATS_RL:                  Gu (DYNAMICS)  min= -6.39674127754546E-01
DEBUG_STATS_RL:                  Gu (DYNAMICS)  max=  7.50453820141758E-01
DEBUG_STATS_RL:                  Gu (DYNAMICS) mean= -4.49317843559664E-04
DEBUG_STATS_RL:                  Gu (DYNAMICS) S.D.=  1.80438869025296E-02
DEBUG_STATS_RL:                  Gv (DYNAMICS)  min= -6.33890148442080E-01
DEBUG_STATS_RL:                  Gv (DYNAMICS)  max=  6.73793408732224E-01
DEBUG_STATS_RL:                  Gv (DYNAMICS) mean= -5.18002016713318E-04
DEBUG_STATS_RL:                  Gv (DYNAMICS) S.D.=  1.97925526031987E-02
DEBUG_STATS_RL:               GuNm1 (DYNAMICS)  min= -2.91495318926156E-05
DEBUG_STATS_RL:               GuNm1 (DYNAMICS)  max=  4.22291622493424E-05
DEBUG_STATS_RL:               GuNm1 (DYNAMICS) mean=  2.24185411971394E-08
DEBUG_STATS_RL:               GuNm1 (DYNAMICS) S.D.=  1.39942832426090E-06
DEBUG_STATS_RL:               GvNm1 (DYNAMICS)  min= -3.40026698434527E-05
DEBUG_STATS_RL:               GvNm1 (DYNAMICS)  max=  1.77318687277985E-05
DEBUG_STATS_RL:               GvNm1 (DYNAMICS) mean= -1.70609483636885E-08
DEBUG_STATS_RL:               GvNm1 (DYNAMICS) S.D.=  1.20369657937562E-06
DEBUG_STATS_RL:               GtNm1 (DYNAMICS)  min= -9.21518401441369E-06
DEBUG_STATS_RL:               GtNm1 (DYNAMICS)  max=  4.72546767768128E-06
DEBUG_STATS_RL:               GtNm1 (DYNAMICS) mean=  2.89072423296039E-10
DEBUG_STATS_RL:               GtNm1 (DYNAMICS) S.D.=  9.33733497172076E-08
DEBUG_STATS_RL:               GsNm1 (DYNAMICS)  min= -1.61746982794164E-05
DEBUG_STATS_RL:               GsNm1 (DYNAMICS)  max=  2.18178376303909E-06
DEBUG_STATS_RL:               GsNm1 (DYNAMICS) mean= -4.56629404484579E-09
DEBUG_STATS_RL:               GsNm1 (DYNAMICS) S.D.=  1.88215275331738E-07
(PID.TID 0000.0001) DEBUG_MSG: LEAVING S/R DYNAMICS
DEBUG_STATS_RL:    cg2d_b (SOLVE_FOR_PRESSURE)  min= -1.71379473230865E+05
DEBUG_STATS_RL:    cg2d_b (SOLVE_FOR_PRESSURE)  max=  8.07767343525987E+04
DEBUG_STATS_RL:    cg2d_b (SOLVE_FOR_PRESSURE) mean= -3.84295068905292E+03
DEBUG_STATS_RL:    cg2d_b (SOLVE_FOR_PRESSURE) S.D.=  7.41394419843763E+03
 cg2d: Sum(rhs),rhsMax =  -9.91124650192632E+01  3.28304187378853E+01
(PID.TID 0000.0001)  cg2d: iter=     1 ; resid.=  3.69074273411521E-02
(PID.TID 0000.0001)  cg2d: iter=     2 ; resid.=  5.21942265698733E-03
(PID.TID 0000.0001)  cg2d: iter=     3 ; resid.=  1.29949969320227E-03
(PID.TID 0000.0001)  cg2d: iter=     4 ; resid.=  4.07242535063251E-04
(PID.TID 0000.0001)  cg2d: iter=     5 ; resid.=  1.27512830105868E-04
(PID.TID 0000.0001)  cg2d: iter=     6 ; resid.=  3.00500213452743E-05
(PID.TID 0000.0001)  cg2d: iter=     7 ; resid.=  5.68153641539571E-06
(PID.TID 0000.0001)  cg2d: iter=     8 ; resid.=  1.37006945673605E-06
(PID.TID 0000.0001)  cg2d: iter=     9 ; resid.=  4.74035883851508E-07
(PID.TID 0000.0001)  cg2d: iter=    10 ; resid.=  1.29235045685160E-07
(PID.TID 0000.0001)  cg2d: iter=    11 ; resid.=  2.77375737508829E-08
DEBUG_STATS_RL:    cg2d_x (SOLVE_FOR_PRESSURE)  min= -6.93105436510466E+00
DEBUG_STATS_RL:    cg2d_x (SOLVE_FOR_PRESSURE)  max=  1.43727994411084E+01
DEBUG_STATS_RL:    cg2d_x (SOLVE_FOR_PRESSURE) mean=  3.89563924882171E-01
DEBUG_STATS_RL:    cg2d_x (SOLVE_FOR_PRESSURE) S.D.=  7.87119738430270E-01
(PID.TID 0000.0001)      cg2d_init_res =   3.49044994202607E-01
(PID.TID 0000.0001)      cg2d_iters(min,last) =      -1      11
(PID.TID 0000.0001)      cg2d_last_res =   2.77375737508829E-08
(PID.TID 0000.0001) DEBUG_MSG: CALLING S/R UPDATE_ETAH
(PID.TID 0000.0001) DEBUG_MSG: ENTERED S/R CALC_R_STAR
(PID.TID 0000.0001) DEBUG_MSG: LEAVING S/R CALC_R_STAR
(PID.TID 0000.0001) DEBUG_MSG: CALLING S/R DO_STAGGER_FIELDS_EXCH.
(PID.TID 0000.0001) DEBUG_MSG: CALLING S/R THERMODYNAMICS
(PID.TID 0000.0001) DEBUG_MSG: ENTERED S/R THERMODYNAMICS
(PID.TID 0000.0001) DEBUG_MSG: CALLING S/R TEMP_INTEGRATE
(PID.TID 0000.0001) DEBUG_MSG: CALLING S/R SALT_INTEGRATE
DEBUG_STATS_RL:          Uvel (THERMODYNAMICS)  min= -6.41406062150264E-01
DEBUG_STATS_RL:          Uvel (THERMODYNAMICS)  max=  7.38009331748084E-01
DEBUG_STATS_RL:          Uvel (THERMODYNAMICS) mean= -4.48922839523135E-04
DEBUG_STATS_RL:          Uvel (THERMODYNAMICS) S.D.=  1.81109124379165E-02
DEBUG_STATS_RL:          Vvel (THERMODYNAMICS)  min= -6.41966710799892E-01
DEBUG_STATS_RL:          Vvel (THERMODYNAMICS)  max=  6.68122412795787E-01
DEBUG_STATS_RL:          Vvel (THERMODYNAMICS) mean= -5.09612007323014E-04
DEBUG_STATS_RL:          Vvel (THERMODYNAMICS) S.D.=  1.98517653873518E-02
DEBUG_STATS_RL:          Wvel (THERMODYNAMICS)  min= -2.38410084704820E-04
DEBUG_STATS_RL:          Wvel (THERMODYNAMICS)  max=  1.34922460576633E-04
DEBUG_STATS_RL:          Wvel (THERMODYNAMICS) mean= -3.54937526322951E-07
DEBUG_STATS_RL:          Wvel (THERMODYNAMICS) S.D.=  7.41513727312977E-06
DEBUG_STATS_RL:         Theta (THERMODYNAMICS)  min=  1.61185849161040E+01
DEBUG_STATS_RL:         Theta (THERMODYNAMICS)  max=  2.32464622716331E+01
DEBUG_STATS_RL:         Theta (THERMODYNAMICS) mean=  2.00024855469891E+01
DEBUG_STATS_RL:         Theta (THERMODYNAMICS) S.D.=  8.83850606573035E-02
DEBUG_STATS_RL:          Salt (THERMODYNAMICS)  min=  2.44478420462809E+01
DEBUG_STATS_RL:          Salt (THERMODYNAMICS)  max=  3.51509738252739E+01
DEBUG_STATS_RL:          Salt (THERMODYNAMICS) mean=  3.49971940006672E+01
DEBUG_STATS_RL:          Salt (THERMODYNAMICS) S.D.=  1.20520922306323E-01
DEBUG_STATS_RL:         GtNm1 (THERMODYNAMICS)  min= -9.01534460329200E-06
DEBUG_STATS_RL:         GtNm1 (THERMODYNAMICS)  max=  4.73874124307611E-06
DEBUG_STATS_RL:         GtNm1 (THERMODYNAMICS) mean=  3.20752108148598E-10
DEBUG_STATS_RL:         GtNm1 (THERMODYNAMICS) S.D.=  9.31447477384239E-08
DEBUG_STATS_RL:         GsNm1 (THERMODYNAMICS)  min= -1.61150218669781E-05
DEBUG_STATS_RL:         GsNm1 (THERMODYNAMICS)  max=  2.18143559854703E-06
DEBUG_STATS_RL:         GsNm1 (THERMODYNAMICS) mean= -4.57252993461640E-09
DEBUG_STATS_RL:         GsNm1 (THERMODYNAMICS) S.D.=  1.87763013156028E-07
(PID.TID 0000.0001) DEBUG_MSG: LEAVING S/R THERMODYNAMICS
(PID.TID 0000.0001) // =======================================================
(PID.TID 0000.0001) // Begin MONITOR dynamic field statistics
(PID.TID 0000.0001) // =======================================================
(PID.TID 0000.0001) %MON time_tsnumber                =                    62
(PID.TID 0000.0001) %MON time_secondsf                =   5.5800000000000E+04
(PID.TID 0000.0001) %MON dynstat_eta_max              =   1.4651171711804E+00
(PID.TID 0000.0001) %MON dynstat_eta_min              =  -7.0652949626505E-01
(PID.TID 0000.0001) %MON dynstat_eta_mean             =   3.7809929955578E-02
(PID.TID 0000.0001) %MON dynstat_eta_sd               =   7.3319500563213E-02
(PID.TID 0000.0001) %MON dynstat_eta_del2             =   1.1840380122625E-03
(PID.TID 0000.0001) %MON dynstat_uvel_max             =   7.3800933174808E-01
(PID.TID 0000.0001) %MON dynstat_uvel_min             =  -6.4140606215026E-01
(PID.TID 0000.0001) %MON dynstat_uvel_mean            =  -2.7820889828170E-05
(PID.TID 0000.0001) %MON dynstat_uvel_sd              =   6.1695440870059E-03
(PID.TID 0000.0001) %MON dynstat_uvel_del2            =   1.1028639752953E-04
(PID.TID 0000.0001) %MON dynstat_vvel_max             =   6.6812241279579E-01
(PID.TID 0000.0001) %MON dynstat_vvel_min             =  -6.4196671079989E-01
(PID.TID 0000.0001) %MON dynstat_vvel_mean            =   9.5452096243917E-04
(PID.TID 0000.0001) %MON dynstat_vvel_sd              =   6.6858382233568E-03
(PID.TID 0000.0001) %MON dynstat_vvel_del2            =   1.1745077078162E-04
(PID.TID 0000.0001) %MON dynstat_wvel_max             =   1.3492246057663E-04
(PID.TID 0000.0001) %MON dynstat_wvel_min             =  -2.3841008470482E-04
(PID.TID 0000.0001) %MON dynstat_wvel_mean            =  -3.3417390893101E-07
(PID.TID 0000.0001) %MON dynstat_wvel_sd              =   7.1072946793822E-06
(PID.TID 0000.0001) %MON dynstat_wvel_del2            =   7.5612706942360E-08
(PID.TID 0000.0001) %MON dynstat_theta_max            =   2.3246462271633E+01
(PID.TID 0000.0001) %MON dynstat_theta_min            =   1.6118584916104E+01
(PID.TID 0000.0001) %MON dynstat_theta_mean           =   1.9997898363188E+01
(PID.TID 0000.0001) %MON dynstat_theta_sd             =   2.9282786582724E-02
(PID.TID 0000.0001) %MON dynstat_theta_del2           =   5.1588264789767E-04
(PID.TID 0000.0001) %MON dynstat_salt_max             =   3.5150973825274E+01
(PID.TID 0000.0001) %MON dynstat_salt_min             =   2.4447842046281E+01
(PID.TID 0000.0001) %MON dynstat_salt_mean            =   3.4999634954515E+01
(PID.TID 0000.0001) %MON dynstat_salt_sd              =   3.7208751487384E-02
(PID.TID 0000.0001) %MON dynstat_salt_del2            =   1.2866271462097E-03
(PID.TID 0000.0001) %MON dynstat_sst_max              =   2.3246462271633E+01
(PID.TID 0000.0001) %MON dynstat_sst_min              =   1.6118584916104E+01
(PID.TID 0000.0001) %MON dynstat_sst_mean             =   2.0130981021364E+01
(PID.TID 0000.0001) %MON dynstat_sst_sd               =   2.7147658624346E-01
(PID.TID 0000.0001) %MON dynstat_sst_del2             =   5.9581843546515E-03
(PID.TID 0000.0001) %MON dynstat_sss_max              =   3.5150973825274E+01
(PID.TID 0000.0001) %MON dynstat_sss_min              =   2.4447842046281E+01
(PID.TID 0000.0001) %MON dynstat_sss_mean             =   3.4966678151080E+01
(PID.TID 0000.0001) %MON dynstat_sss_sd               =   4.4866844060951E-01
(PID.TID 0000.0001) %MON dynstat_sss_del2             =   1.7418559824485E-02
(PID.TID 0000.0001) %MON forcing_qnet_max             =   2.9487177734375E+03
(PID.TID 0000.0001) %MON forcing_qnet_min             =  -3.4716501464844E+03
(PID.TID 0000.0001) %MON forcing_qnet_mean            =  -1.4780909526778E+01
(PID.TID 0000.0001) %MON forcing_qnet_sd              =   4.8184564158302E+02
(PID.TID 0000.0001) %MON forcing_qnet_del2            =   6.3292249525004E+00
(PID.TID 0000.0001) %MON forcing_qsw_max              =   0.0000000000000E+00
(PID.TID 0000.0001) %MON forcing_qsw_min              =  -1.0241246676266E+02
(PID.TID 0000.0001) %MON forcing_qsw_mean             =  -1.5575585223485E+01
(PID.TID 0000.0001) %MON forcing_qsw_sd               =   2.6614344162436E+01
(PID.TID 0000.0001) %MON forcing_qsw_del2             =   2.1567526477486E-01
(PID.TID 0000.0001) %MON forcing_empmr_max            =   5.8971391990781E-03
(PID.TID 0000.0001) %MON forcing_empmr_min            =  -8.4769554436207E-02
(PID.TID 0000.0001) %MON forcing_empmr_mean           =  -3.9912185609315E-04
(PID.TID 0000.0001) %MON forcing_empmr_sd             =   3.7602089639335E-03
(PID.TID 0000.0001) %MON forcing_empmr_del2           =   1.4723985644103E-04
(PID.TID 0000.0001) %MON forcing_fu_max               =   6.2869943194854E-01
(PID.TID 0000.0001) %MON forcing_fu_min               =  -6.1776659989764E-01
(PID.TID 0000.0001) %MON forcing_fu_mean              =  -1.1408881042414E-03
(PID.TID 0000.0001) %MON forcing_fu_sd                =   8.8048354838537E-02
(PID.TID 0000.0001) %MON forcing_fu_del2              =   7.4022790347570E-04
(PID.TID 0000.0001) %MON forcing_fv_max               =   4.0663459282717E-01
(PID.TID 0000.0001) %MON forcing_fv_min               =  -4.2123896663067E-01
(PID.TID 0000.0001) %MON forcing_fv_mean              =  -7.0207299081049E-03
(PID.TID 0000.0001) %MON forcing_fv_sd                =   7.5417646735207E-02
(PID.TID 0000.0001) %MON forcing_fv_del2              =   6.3050873512511E-04
(PID.TID 0000.0001) %MON trAdv_CFL_u_max              =   2.4206234691747E-03
(PID.TID 0000.0001) %MON trAdv_CFL_v_max              =   2.2374826214942E-03
(PID.TID 0000.0001) %MON trAdv_CFL_w_max              =   3.2438126184026E-03
(PID.TID 0000.0001) %MON advcfl_uvel_max              =   2.4610888943349E-03
(PID.TID 0000.0001) %MON advcfl_vvel_max              =   2.1803271441286E-03
(PID.TID 0000.0001) %MON advcfl_wvel_max              =   5.8970124825187E-03
(PID.TID 0000.0001) %MON advcfl_W_hf_max              =   3.2438126184026E-03
(PID.TID 0000.0001) %MON pe_b_mean                    =   9.0658781914231E-06
(PID.TID 0000.0001) %MON ke_max                       =   2.4207738223271E-01
(PID.TID 0000.0001) %MON ke_mean                      =   3.8649416337226E-05
(PID.TID 0000.0001) %MON ke_vol                       =   1.3398160776034E+18
(PID.TID 0000.0001) %MON vort_r_min                   =  -4.1503980949257E-06
(PID.TID 0000.0001) %MON vort_r_max                   =   3.3103206057992E-06
(PID.TID 0000.0001) %MON vort_a_mean                  =  -2.0549865324846E-05
(PID.TID 0000.0001) %MON vort_a_sd                    =   7.5259483705772E-05
(PID.TID 0000.0001) %MON vort_p_mean                  =  -2.4783270238672E-05
(PID.TID 0000.0001) %MON vort_p_sd                    =   1.2810520833086E-04
(PID.TID 0000.0001) %MON surfExpan_theta_mean         =  -1.4177682732154E-07
(PID.TID 0000.0001) %MON surfExpan_salt_mean          =   1.5925800793038E-06
(PID.TID 0000.0001) // =======================================================
(PID.TID 0000.0001) // End MONITOR dynamic field statistics
(PID.TID 0000.0001) // =======================================================
(PID.TID 0000.0001) DEBUG_MSG: LEAVING S/R FORWARD_STEP
(PID.TID 0000.0001) DEBUG_MSG: ENTERED S/R FORWARD_STEP
(PID.TID 0000.0001) DEBUG_MSG: CALLING S/R LOAD_FIELDS_DRIVER
(PID.TID 0000.0001) DEBUG_MSG: ENTERED S/R LOAD_FIELDS_DRIVER
(PID.TID 0000.0001) DEBUG_MSG: CALLING S/R EXTERNAL_FIELDS_LOAD
(PID.TID 0000.0001) DEBUG_MSG: LEAVING S/R LOAD_FIELDS_DRIVER
(PID.TID 0000.0001) DEBUG_MSG: CALLING S/R DO_ATMOSPHERIC_PHYS
(PID.TID 0000.0001) DEBUG_MSG: ENTERED S/R DO_ATMOSPHERIC_PHYS
(PID.TID 0000.0001) DEBUG_MSG: LEAVING S/R DO_ATMOSPHERIC_PHYS
(PID.TID 0000.0001) DEBUG_MSG: CALLING S/R DO_OCEANIC_PHYS
(PID.TID 0000.0001) DEBUG_MSG: ENTERED S/R DO_OCEANIC_PHYS
(PID.TID 0000.0001) DEBUG_MSG: CALLING S/R EXTERNAL_FORCING_SURF
(PID.TID 0000.0001) DEBUG_MSG: CALLING S/R FIND_RHO_2D (xNr)
(PID.TID 0000.0001) DEBUG_MSG:                  ENTERING UPWARD K LOOP (bi=   1, bj=   1)
(PID.TID 0000.0001) DEBUG_MSG: CALLING S/R GRAD_SIGMA
(PID.TID 0000.0001) DEBUG_MSG: CALLING S/R CALC_IVDC
(PID.TID 0000.0001) DEBUG_MSG: CALLING S/R GRAD_SIGMA
(PID.TID 0000.0001) DEBUG_MSG: CALLING S/R CALC_IVDC
(PID.TID 0000.0001) DEBUG_MSG: CALLING S/R GRAD_SIGMA
(PID.TID 0000.0001) DEBUG_MSG: CALLING S/R CALC_IVDC
(PID.TID 0000.0001) DEBUG_MSG: CALLING S/R GRAD_SIGMA
(PID.TID 0000.0001) DEBUG_MSG: CALLING S/R CALC_IVDC
(PID.TID 0000.0001) DEBUG_MSG: CALLING S/R GRAD_SIGMA
(PID.TID 0000.0001) DEBUG_MSG: CALLING S/R CALC_IVDC
(PID.TID 0000.0001) DEBUG_MSG: CALLING S/R GRAD_SIGMA
(PID.TID 0000.0001) DEBUG_MSG: CALLING S/R CALC_IVDC
(PID.TID 0000.0001) DEBUG_MSG: CALLING S/R GRAD_SIGMA
(PID.TID 0000.0001) DEBUG_MSG: CALLING S/R CALC_IVDC
(PID.TID 0000.0001) DEBUG_MSG: CALLING S/R GRAD_SIGMA
(PID.TID 0000.0001) DEBUG_MSG: CALLING S/R CALC_IVDC
(PID.TID 0000.0001) DEBUG_MSG: CALLING S/R GRAD_SIGMA
(PID.TID 0000.0001) DEBUG_MSG: CALLING S/R CALC_IVDC
(PID.TID 0000.0001) DEBUG_MSG: CALLING S/R GRAD_SIGMA
(PID.TID 0000.0001) DEBUG_MSG: CALLING S/R CALC_IVDC
(PID.TID 0000.0001) DEBUG_MSG: CALLING S/R GRAD_SIGMA
(PID.TID 0000.0001) DEBUG_MSG: CALLING S/R CALC_IVDC
(PID.TID 0000.0001) DEBUG_MSG: CALLING S/R GRAD_SIGMA
(PID.TID 0000.0001) DEBUG_MSG: CALLING S/R CALC_IVDC
(PID.TID 0000.0001) DEBUG_MSG: CALLING S/R GRAD_SIGMA
(PID.TID 0000.0001) DEBUG_MSG: CALLING S/R CALC_IVDC
(PID.TID 0000.0001) DEBUG_MSG: CALLING S/R GRAD_SIGMA
(PID.TID 0000.0001) DEBUG_MSG: CALLING S/R CALC_IVDC
(PID.TID 0000.0001) DEBUG_MSG: CALLING S/R GRAD_SIGMA
(PID.TID 0000.0001) DEBUG_MSG: CALLING S/R CALC_IVDC
(PID.TID 0000.0001) DEBUG_MSG: CALLING S/R GRAD_SIGMA
(PID.TID 0000.0001) DEBUG_MSG: CALLING S/R GMREDI_CALC_TENSOR
(PID.TID 0000.0001) DEBUG_MSG: LEAVING S/R DO_OCEANIC_PHYS
(PID.TID 0000.0001) DEBUG_MSG: CALLING S/R DYNAMICS
(PID.TID 0000.0001) DEBUG_MSG: ENTERED S/R DYNAMICS
DEBUG_STATS_RL:                EtaN (DYNAMICS)  min= -7.06529496265052E-01
DEBUG_STATS_RL:                EtaN (DYNAMICS)  max=  1.46511717118036E+00
DEBUG_STATS_RL:                EtaN (DYNAMICS) mean=  3.97108996003321E-02
DEBUG_STATS_RL:                EtaN (DYNAMICS) S.D.=  8.02364666751826E-02
DEBUG_STATS_RL:                Uvel (DYNAMICS)  min= -6.41406062150264E-01
DEBUG_STATS_RL:                Uvel (DYNAMICS)  max=  7.38009331748084E-01
DEBUG_STATS_RL:                Uvel (DYNAMICS) mean= -4.48922839523135E-04
DEBUG_STATS_RL:                Uvel (DYNAMICS) S.D.=  1.81109124379165E-02
DEBUG_STATS_RL:                Vvel (DYNAMICS)  min= -6.41966710799892E-01
DEBUG_STATS_RL:                Vvel (DYNAMICS)  max=  6.68122412795787E-01
DEBUG_STATS_RL:                Vvel (DYNAMICS) mean= -5.09612007323014E-04
DEBUG_STATS_RL:                Vvel (DYNAMICS) S.D.=  1.98517653873518E-02
DEBUG_STATS_RL:                Wvel (DYNAMICS)  min= -2.38410084704820E-04
DEBUG_STATS_RL:                Wvel (DYNAMICS)  max=  1.34922460576633E-04
DEBUG_STATS_RL:                Wvel (DYNAMICS) mean= -3.54937526322951E-07
DEBUG_STATS_RL:                Wvel (DYNAMICS) S.D.=  7.41513727312977E-06
DEBUG_STATS_RL:               Theta (DYNAMICS)  min=  1.61185849161040E+01
DEBUG_STATS_RL:               Theta (DYNAMICS)  max=  2.32464622716331E+01
DEBUG_STATS_RL:               Theta (DYNAMICS) mean=  2.00024855469891E+01
DEBUG_STATS_RL:               Theta (DYNAMICS) S.D.=  8.83850606573035E-02
DEBUG_STATS_RL:                Salt (DYNAMICS)  min=  2.44478420462809E+01
DEBUG_STATS_RL:                Salt (DYNAMICS)  max=  3.51509738252739E+01
DEBUG_STATS_RL:                Salt (DYNAMICS) mean=  3.49971940006672E+01
DEBUG_STATS_RL:                Salt (DYNAMICS) S.D.=  1.20520922306323E-01
DEBUG_STATS_RL:                  Gu (DYNAMICS)  min= -6.56808653244350E-01
DEBUG_STATS_RL:                  Gu (DYNAMICS)  max=  7.42116338204959E-01
DEBUG_STATS_RL:                  Gu (DYNAMICS) mean= -4.31467748601215E-04
DEBUG_STATS_RL:                  Gu (DYNAMICS) S.D.=  1.81404676615890E-02
DEBUG_STATS_RL:                  Gv (DYNAMICS)  min= -6.30532397090574E-01
DEBUG_STATS_RL:                  Gv (DYNAMICS)  max=  6.37003503740059E-01
DEBUG_STATS_RL:                  Gv (DYNAMICS) mean= -5.24365525468516E-04
DEBUG_STATS_RL:                  Gv (DYNAMICS) S.D.=  1.96816995065019E-02
DEBUG_STATS_RL:               GuNm1 (DYNAMICS)  min= -2.97726896917394E-05
DEBUG_STATS_RL:               GuNm1 (DYNAMICS)  max=  3.95505402788986E-05
DEBUG_STATS_RL:               GuNm1 (DYNAMICS) mean=  2.01810339418741E-08
DEBUG_STATS_RL:               GuNm1 (DYNAMICS) S.D.=  1.39566285527611E-06
DEBUG_STATS_RL:               GvNm1 (DYNAMICS)  min= -3.48639120884843E-05
DEBUG_STATS_RL:               GvNm1 (DYNAMICS)  max=  1.73259977376356E-05
DEBUG_STATS_RL:               GvNm1 (DYNAMICS) mean= -1.72843430050925E-08
DEBUG_STATS_RL:               GvNm1 (DYNAMICS) S.D.=  1.19821526359534E-06
DEBUG_STATS_RL:               GtNm1 (DYNAMICS)  min= -9.01534460329200E-06
DEBUG_STATS_RL:               GtNm1 (DYNAMICS)  max=  4.73874124307611E-06
DEBUG_STATS_RL:               GtNm1 (DYNAMICS) mean=  3.20752108148598E-10
DEBUG_STATS_RL:               GtNm1 (DYNAMICS) S.D.=  9.31447477384239E-08
DEBUG_STATS_RL:               GsNm1 (DYNAMICS)  min= -1.61150218669781E-05
DEBUG_STATS_RL:               GsNm1 (DYNAMICS)  max=  2.18143559854703E-06
DEBUG_STATS_RL:               GsNm1 (DYNAMICS) mean= -4.57252993461640E-09
DEBUG_STATS_RL:               GsNm1 (DYNAMICS) S.D.=  1.87763013156028E-07
(PID.TID 0000.0001) DEBUG_MSG: LEAVING S/R DYNAMICS
DEBUG_STATS_RL:    cg2d_b (SOLVE_FOR_PRESSURE)  min= -1.50816874663721E+05
DEBUG_STATS_RL:    cg2d_b (SOLVE_FOR_PRESSURE)  max=  7.73704122775632E+04
DEBUG_STATS_RL:    cg2d_b (SOLVE_FOR_PRESSURE) mean= -3.87804180782650E+03
DEBUG_STATS_RL:    cg2d_b (SOLVE_FOR_PRESSURE) S.D.=  7.31913004374390E+03
 cg2d: Sum(rhs),rhsMax =  -1.13654024649513E+02  2.88913313514456E+01
(PID.TID 0000.0001)  cg2d: iter=     1 ; resid.=  4.08497776940016E-02
(PID.TID 0000.0001)  cg2d: iter=     2 ; resid.=  5.79748814057562E-03
(PID.TID 0000.0001)  cg2d: iter=     3 ; resid.=  1.42960671809684E-03
(PID.TID 0000.0001)  cg2d: iter=     4 ; resid.=  4.40436367584591E-04
(PID.TID 0000.0001)  cg2d: iter=     5 ; resid.=  1.35958681986622E-04
(PID.TID 0000.0001)  cg2d: iter=     6 ; resid.=  3.24025484002473E-05
(PID.TID 0000.0001)  cg2d: iter=     7 ; resid.=  6.18215575718531E-06
(PID.TID 0000.0001)  cg2d: iter=     8 ; resid.=  1.51994604742769E-06
(PID.TID 0000.0001)  cg2d: iter=     9 ; resid.=  5.39421379622022E-07
(PID.TID 0000.0001)  cg2d: iter=    10 ; resid.=  1.45392354162721E-07
(PID.TID 0000.0001)  cg2d: iter=    11 ; resid.=  3.08568461626736E-08
DEBUG_STATS_RL:    cg2d_x (SOLVE_FOR_PRESSURE)  min= -6.63360444310329E+00
DEBUG_STATS_RL:    cg2d_x (SOLVE_FOR_PRESSURE)  max=  1.26538136235973E+01
DEBUG_STATS_RL:    cg2d_x (SOLVE_FOR_PRESSURE) mean=  3.92963814892648E-01
DEBUG_STATS_RL:    cg2d_x (SOLVE_FOR_PRESSURE) S.D.=  7.77655321100439E-01
(PID.TID 0000.0001)      cg2d_init_res =   3.88436870381423E-01
(PID.TID 0000.0001)      cg2d_iters(min,last) =      -1      11
(PID.TID 0000.0001)      cg2d_last_res =   3.08568461626736E-08
(PID.TID 0000.0001) DEBUG_MSG: CALLING S/R UPDATE_ETAH
(PID.TID 0000.0001) DEBUG_MSG: ENTERED S/R CALC_R_STAR
(PID.TID 0000.0001) DEBUG_MSG: LEAVING S/R CALC_R_STAR
(PID.TID 0000.0001) DEBUG_MSG: CALLING S/R DO_STAGGER_FIELDS_EXCH.
(PID.TID 0000.0001) DEBUG_MSG: CALLING S/R THERMODYNAMICS
(PID.TID 0000.0001) DEBUG_MSG: ENTERED S/R THERMODYNAMICS
(PID.TID 0000.0001) DEBUG_MSG: CALLING S/R TEMP_INTEGRATE
(PID.TID 0000.0001) DEBUG_MSG: CALLING S/R SALT_INTEGRATE
DEBUG_STATS_RL:          Uvel (THERMODYNAMICS)  min= -6.56138897234212E-01
DEBUG_STATS_RL:          Uvel (THERMODYNAMICS)  max=  7.20010120551627E-01
DEBUG_STATS_RL:          Uvel (THERMODYNAMICS) mean= -4.31250280788437E-04
DEBUG_STATS_RL:          Uvel (THERMODYNAMICS) S.D.=  1.81760771196012E-02
DEBUG_STATS_RL:          Vvel (THERMODYNAMICS)  min= -6.34051042287065E-01
DEBUG_STATS_RL:          Vvel (THERMODYNAMICS)  max=  6.22711665555816E-01
DEBUG_STATS_RL:          Vvel (THERMODYNAMICS) mean= -5.18336988031064E-04
DEBUG_STATS_RL:          Vvel (THERMODYNAMICS) S.D.=  1.97092543969185E-02
DEBUG_STATS_RL:          Wvel (THERMODYNAMICS)  min= -2.35155012214567E-04
DEBUG_STATS_RL:          Wvel (THERMODYNAMICS)  max=  1.34015642023320E-04
DEBUG_STATS_RL:          Wvel (THERMODYNAMICS) mean= -3.42772053106642E-07
DEBUG_STATS_RL:          Wvel (THERMODYNAMICS) S.D.=  7.36145555640666E-06
DEBUG_STATS_RL:         Theta (THERMODYNAMICS)  min=  1.61115405952828E+01
DEBUG_STATS_RL:         Theta (THERMODYNAMICS)  max=  2.32803838761014E+01
DEBUG_STATS_RL:         Theta (THERMODYNAMICS) mean=  2.00025849659367E+01
DEBUG_STATS_RL:         Theta (THERMODYNAMICS) S.D.=  8.89713377021068E-02
DEBUG_STATS_RL:          Salt (THERMODYNAMICS)  min=  2.43786478698365E+01
DEBUG_STATS_RL:          Salt (THERMODYNAMICS)  max=  3.51509566452303E+01
DEBUG_STATS_RL:          Salt (THERMODYNAMICS) mean=  3.49971689808888E+01
DEBUG_STATS_RL:          Salt (THERMODYNAMICS) S.D.=  1.21358388121468E-01
DEBUG_STATS_RL:         GtNm1 (THERMODYNAMICS)  min= -8.70795590049067E-06
DEBUG_STATS_RL:         GtNm1 (THERMODYNAMICS)  max=  4.75128640253875E-06
DEBUG_STATS_RL:         GtNm1 (THERMODYNAMICS) mean=  3.60773051858322E-10
DEBUG_STATS_RL:         GtNm1 (THERMODYNAMICS) S.D.=  9.21347328938983E-08
DEBUG_STATS_RL:         GsNm1 (THERMODYNAMICS)  min= -1.60520330111249E-05
DEBUG_STATS_RL:         GsNm1 (THERMODYNAMICS)  max=  2.18044391288961E-06
DEBUG_STATS_RL:         GsNm1 (THERMODYNAMICS) mean= -4.57505262607327E-09
DEBUG_STATS_RL:         GsNm1 (THERMODYNAMICS) S.D.=  1.87195719331238E-07
(PID.TID 0000.0001) DEBUG_MSG: LEAVING S/R THERMODYNAMICS
(PID.TID 0000.0001) // =======================================================
(PID.TID 0000.0001) // Begin MONITOR dynamic field statistics
(PID.TID 0000.0001) // =======================================================
(PID.TID 0000.0001) %MON time_tsnumber                =                    63
(PID.TID 0000.0001) %MON time_secondsf                =   5.6700000000000E+04
(PID.TID 0000.0001) %MON dynstat_eta_max              =   1.2898892591383E+00
(PID.TID 0000.0001) %MON dynstat_eta_min              =  -6.7620840358331E-01
(PID.TID 0000.0001) %MON dynstat_eta_mean             =   3.8155183603165E-02
(PID.TID 0000.0001) %MON dynstat_eta_sd               =   7.2429844562910E-02
(PID.TID 0000.0001) %MON dynstat_eta_del2             =   1.1534837699762E-03
(PID.TID 0000.0001) %MON dynstat_uvel_max             =   7.2001012055163E-01
(PID.TID 0000.0001) %MON dynstat_uvel_min             =  -6.5613889723421E-01
(PID.TID 0000.0001) %MON dynstat_uvel_mean            =  -1.7661400818834E-05
(PID.TID 0000.0001) %MON dynstat_uvel_sd              =   6.1978383475714E-03
(PID.TID 0000.0001) %MON dynstat_uvel_del2            =   1.0960829759795E-04
(PID.TID 0000.0001) %MON dynstat_vvel_max             =   6.2271166555582E-01
(PID.TID 0000.0001) %MON dynstat_vvel_min             =  -6.3405104228706E-01
(PID.TID 0000.0001) %MON dynstat_vvel_mean            =   9.5702313744635E-04
(PID.TID 0000.0001) %MON dynstat_vvel_sd              =   6.6415779949731E-03
(PID.TID 0000.0001) %MON dynstat_vvel_del2            =   1.1650620995589E-04
(PID.TID 0000.0001) %MON dynstat_wvel_max             =   1.3401564202332E-04
(PID.TID 0000.0001) %MON dynstat_wvel_min             =  -2.3515501221457E-04
(PID.TID 0000.0001) %MON dynstat_wvel_mean            =  -3.2026236373344E-07
(PID.TID 0000.0001) %MON dynstat_wvel_sd              =   7.0607971926685E-06
(PID.TID 0000.0001) %MON dynstat_wvel_del2            =   7.4983225422350E-08
(PID.TID 0000.0001) %MON dynstat_theta_max            =   2.3280383876101E+01
(PID.TID 0000.0001) %MON dynstat_theta_min            =   1.6111540595283E+01
(PID.TID 0000.0001) %MON dynstat_theta_mean           =   1.9997899379708E+01
(PID.TID 0000.0001) %MON dynstat_theta_sd             =   2.9461596458442E-02
(PID.TID 0000.0001) %MON dynstat_theta_del2           =   5.1845430197109E-04
(PID.TID 0000.0001) %MON dynstat_salt_max             =   3.5150956645230E+01
(PID.TID 0000.0001) %MON dynstat_salt_min             =   2.4378647869837E+01
(PID.TID 0000.0001) %MON dynstat_salt_mean            =   3.4999631886136E+01
(PID.TID 0000.0001) %MON dynstat_salt_sd              =   3.7466728834523E-02
(PID.TID 0000.0001) %MON dynstat_salt_del2            =   1.2950254128046E-03
(PID.TID 0000.0001) %MON dynstat_sst_max              =   2.3280383876101E+01
(PID.TID 0000.0001) %MON dynstat_sst_min              =   1.6111540595283E+01
(PID.TID 0000.0001) %MON dynstat_sst_mean             =   2.0132502666549E+01
(PID.TID 0000.0001) %MON dynstat_sst_sd               =   2.7337650138357E-01
(PID.TID 0000.0001) %MON dynstat_sst_del2             =   5.9967878969975E-03
(PID.TID 0000.0001) %MON dynstat_sss_max              =   3.5150956645230E+01
(PID.TID 0000.0001) %MON dynstat_sss_min              =   2.4378647869837E+01
(PID.TID 0000.0001) %MON dynstat_sss_mean             =   3.4966375605537E+01
(PID.TID 0000.0001) %MON dynstat_sss_sd               =   4.5176994767510E-01
(PID.TID 0000.0001) %MON dynstat_sss_del2             =   1.7531833301064E-02
(PID.TID 0000.0001) %MON forcing_qnet_max             =   2.9080581054688E+03
(PID.TID 0000.0001) %MON forcing_qnet_min             =  -3.4210114746094E+03
(PID.TID 0000.0001) %MON forcing_qnet_mean            =  -1.5467141467204E+01
(PID.TID 0000.0001) %MON forcing_qnet_sd              =   4.7995089518703E+02
(PID.TID 0000.0001) %MON forcing_qnet_del2            =   6.2864013238217E+00
(PID.TID 0000.0001) %MON forcing_qsw_max              =   0.0000000000000E+00
(PID.TID 0000.0001) %MON forcing_qsw_min              =  -1.0392649788922E+02
(PID.TID 0000.0001) %MON forcing_qsw_mean             =  -1.5676956443131E+01
(PID.TID 0000.0001) %MON forcing_qsw_sd               =   2.6930293234626E+01
(PID.TID 0000.0001) %MON forcing_qsw_del2             =   2.1845754055511E-01
(PID.TID 0000.0001) %MON forcing_empmr_max            =   5.8364239521325E-03
(PID.TID 0000.0001) %MON forcing_empmr_min            =  -8.3896063268185E-02
(PID.TID 0000.0001) %MON forcing_empmr_mean           =  -3.9704169472488E-04
(PID.TID 0000.0001) %MON forcing_empmr_sd             =   3.7221560202729E-03
(PID.TID 0000.0001) %MON forcing_empmr_del2           =   1.4572215680810E-04
(PID.TID 0000.0001) %MON forcing_fu_max               =   6.1399767484282E-01
(PID.TID 0000.0001) %MON forcing_fu_min               =  -6.2214398012917E-01
(PID.TID 0000.0001) %MON forcing_fu_mean              =  -1.0965131010417E-03
(PID.TID 0000.0001) %MON forcing_fu_sd                =   8.7845104703354E-02
(PID.TID 0000.0001) %MON forcing_fu_del2              =   7.3819354957590E-04
(PID.TID 0000.0001) %MON forcing_fv_max               =   4.0438900263959E-01
(PID.TID 0000.0001) %MON forcing_fv_min               =  -4.1807641084464E-01
(PID.TID 0000.0001) %MON forcing_fv_mean              =  -7.0736749335499E-03
(PID.TID 0000.0001) %MON forcing_fv_sd                =   7.5050268329006E-02
(PID.TID 0000.0001) %MON forcing_fv_del2              =   6.2759036682614E-04
(PID.TID 0000.0001) %MON trAdv_CFL_u_max              =   2.3664330765750E-03
(PID.TID 0000.0001) %MON trAdv_CFL_v_max              =   2.0894720348220E-03
(PID.TID 0000.0001) %MON trAdv_CFL_w_max              =   3.2543155930066E-03
(PID.TID 0000.0001) %MON advcfl_uvel_max              =   2.4010657254171E-03
(PID.TID 0000.0001) %MON advcfl_vvel_max              =   2.0321353113952E-03
(PID.TID 0000.0001) %MON advcfl_wvel_max              =   5.8362478795259E-03
(PID.TID 0000.0001) %MON advcfl_W_hf_max              =   3.2543155930066E-03
(PID.TID 0000.0001) %MON pe_b_mean                    =   8.9280781602647E-06
(PID.TID 0000.0001) %MON ke_max                       =   2.2180291589238E-01
(PID.TID 0000.0001) %MON ke_mean                      =   3.8538562430385E-05
(PID.TID 0000.0001) %MON ke_vol                       =   1.3398162038948E+18
(PID.TID 0000.0001) %MON vort_r_min                   =  -4.1726670314074E-06
(PID.TID 0000.0001) %MON vort_r_max                   =   3.2775378994099E-06
(PID.TID 0000.0001) %MON vort_a_mean                  =  -2.0549865324846E-05
(PID.TID 0000.0001) %MON vort_a_sd                    =   7.5259485443570E-05
(PID.TID 0000.0001) %MON vort_p_mean                  =  -2.4783267617637E-05
(PID.TID 0000.0001) %MON vort_p_sd                    =   1.2810522476848E-04
(PID.TID 0000.0001) %MON surfExpan_theta_mean         =  -1.6348676425014E-07
(PID.TID 0000.0001) %MON surfExpan_salt_mean          =   1.5912550100676E-06
(PID.TID 0000.0001) // =======================================================
(PID.TID 0000.0001) // End MONITOR dynamic field statistics
(PID.TID 0000.0001) // =======================================================
 Computing Diagnostic #     81  oceTAUX      Counter:       1   Parms: UU      U1      
           Vector  Mate for  oceTAUX      Diagnostic #     82  oceTAUY  exists 
(PID.TID 0000.0001)  MDS_WRITE_FIELD: it,rec,kS,kL,kH=      62    -1  32   1   1 file=oceTAUX.0000000062
 Computing Diagnostic #     82  oceTAUY      Counter:       1   Parms: VV      U1      
           Vector  Mate for  oceTAUY      Diagnostic #     81  oceTAUX  exists 
(PID.TID 0000.0001)  MDS_WRITE_FIELD: it,rec,kS,kL,kH=      62    -1  32   1   1 file=oceTAUY.0000000062
 Computing Diagnostic #     85  oceFWflx     Counter:       1   Parms: SM      U1      
(PID.TID 0000.0001)  MDS_WRITE_FIELD: it,rec,kS,kL,kH=      62    -1  32   1   1 file=oceFWflx.0000000062
 Computing Diagnostic #     86  oceSflux     Counter:       1   Parms: SM      U1      
(PID.TID 0000.0001)  MDS_WRITE_FIELD: it,rec,kS,kL,kH=      62    -1  32   1   1 file=oceSflux.0000000062
 Computing Diagnostic #     87  oceQnet      Counter:       1   Parms: SM      U1      
(PID.TID 0000.0001)  MDS_WRITE_FIELD: it,rec,kS,kL,kH=      62    -1  32   1   1 file=oceQnet.0000000062
 Computing Diagnostic #     88  oceQsw       Counter:       1   Parms: SM      U1      
(PID.TID 0000.0001)  MDS_WRITE_FIELD: it,rec,kS,kL,kH=      62    -1  32   1   1 file=oceQsw.0000000062
 Computing Diagnostic #     27  SALT         Counter:       1   Parms: SMR     MR      
(PID.TID 0000.0001)  MDS_WRITE_FIELD: it,rec,kS,kL,kH=      62    -1  32   1   1 file=SSS.0000000062
 Computing Diagnostic #     26  THETA        Counter:       1   Parms: SMR     MR      
(PID.TID 0000.0001)  MDS_WRITE_FIELD: it,rec,kS,kL,kH=      62    -1  32   1   1 file=SST.0000000062
 Computing Diagnostic #     45  UVELMASS     Counter:       1   Parms: UUr     MR      
           Vector  Mate for  UVELMASS     Diagnostic #     46  VVELMASS exists 
(PID.TID 0000.0001)  MDS_WRITE_FIELD: it,rec,kS,kL,kH=      62    -1  32   1   1 file=UVEL1.0000000062
 Computing Diagnostic #     46  VVELMASS     Counter:       1   Parms: VVr     MR      
           Vector  Mate for  VVELMASS     Diagnostic #     45  UVELMASS exists 
(PID.TID 0000.0001)  MDS_WRITE_FIELD: it,rec,kS,kL,kH=      62    -1  32   1   1 file=VVEL1.0000000062
 Computing Diagnostic #     83  atmPload     Counter:       1   Parms: SM      U1      
(PID.TID 0000.0001)  MDS_WRITE_FIELD: it,rec,kS,kL,kH=      62    -1  32   1   1 file=atmPload.0000000062
(PID.TID 0000.0001)  write diagnostics summary to file: diagnostics_status.0000000063.txt
(PID.TID 0000.0001) DEBUG_MSG: LEAVING S/R FORWARD_STEP
(PID.TID 0000.0001) DEBUG_MSG: ENTERED S/R FORWARD_STEP
(PID.TID 0000.0001) DEBUG_MSG: CALLING S/R LOAD_FIELDS_DRIVER
(PID.TID 0000.0001) DEBUG_MSG: ENTERED S/R LOAD_FIELDS_DRIVER
(PID.TID 0000.0001) DEBUG_MSG: CALLING S/R EXTERNAL_FIELDS_LOAD
(PID.TID 0000.0001) DEBUG_MSG: LEAVING S/R LOAD_FIELDS_DRIVER
(PID.TID 0000.0001) DEBUG_MSG: CALLING S/R DO_ATMOSPHERIC_PHYS
(PID.TID 0000.0001) DEBUG_MSG: ENTERED S/R DO_ATMOSPHERIC_PHYS
(PID.TID 0000.0001) DEBUG_MSG: LEAVING S/R DO_ATMOSPHERIC_PHYS
(PID.TID 0000.0001) DEBUG_MSG: CALLING S/R DO_OCEANIC_PHYS
(PID.TID 0000.0001) DEBUG_MSG: ENTERED S/R DO_OCEANIC_PHYS
(PID.TID 0000.0001) DEBUG_MSG: CALLING S/R EXTERNAL_FORCING_SURF
(PID.TID 0000.0001) DEBUG_MSG: CALLING S/R FIND_RHO_2D (xNr)
(PID.TID 0000.0001) DEBUG_MSG:                  ENTERING UPWARD K LOOP (bi=   1, bj=   1)
(PID.TID 0000.0001) DEBUG_MSG: CALLING S/R GRAD_SIGMA
(PID.TID 0000.0001) DEBUG_MSG: CALLING S/R CALC_IVDC
(PID.TID 0000.0001) DEBUG_MSG: CALLING S/R GRAD_SIGMA
(PID.TID 0000.0001) DEBUG_MSG: CALLING S/R CALC_IVDC
(PID.TID 0000.0001) DEBUG_MSG: CALLING S/R GRAD_SIGMA
(PID.TID 0000.0001) DEBUG_MSG: CALLING S/R CALC_IVDC
(PID.TID 0000.0001) DEBUG_MSG: CALLING S/R GRAD_SIGMA
(PID.TID 0000.0001) DEBUG_MSG: CALLING S/R CALC_IVDC
(PID.TID 0000.0001) DEBUG_MSG: CALLING S/R GRAD_SIGMA
(PID.TID 0000.0001) DEBUG_MSG: CALLING S/R CALC_IVDC
(PID.TID 0000.0001) DEBUG_MSG: CALLING S/R GRAD_SIGMA
(PID.TID 0000.0001) DEBUG_MSG: CALLING S/R CALC_IVDC
(PID.TID 0000.0001) DEBUG_MSG: CALLING S/R GRAD_SIGMA
(PID.TID 0000.0001) DEBUG_MSG: CALLING S/R CALC_IVDC
(PID.TID 0000.0001) DEBUG_MSG: CALLING S/R GRAD_SIGMA
(PID.TID 0000.0001) DEBUG_MSG: CALLING S/R CALC_IVDC
(PID.TID 0000.0001) DEBUG_MSG: CALLING S/R GRAD_SIGMA
(PID.TID 0000.0001) DEBUG_MSG: CALLING S/R CALC_IVDC
(PID.TID 0000.0001) DEBUG_MSG: CALLING S/R GRAD_SIGMA
(PID.TID 0000.0001) DEBUG_MSG: CALLING S/R CALC_IVDC
(PID.TID 0000.0001) DEBUG_MSG: CALLING S/R GRAD_SIGMA
(PID.TID 0000.0001) DEBUG_MSG: CALLING S/R CALC_IVDC
(PID.TID 0000.0001) DEBUG_MSG: CALLING S/R GRAD_SIGMA
(PID.TID 0000.0001) DEBUG_MSG: CALLING S/R CALC_IVDC
(PID.TID 0000.0001) DEBUG_MSG: CALLING S/R GRAD_SIGMA
(PID.TID 0000.0001) DEBUG_MSG: CALLING S/R CALC_IVDC
(PID.TID 0000.0001) DEBUG_MSG: CALLING S/R GRAD_SIGMA
(PID.TID 0000.0001) DEBUG_MSG: CALLING S/R CALC_IVDC
(PID.TID 0000.0001) DEBUG_MSG: CALLING S/R GRAD_SIGMA
(PID.TID 0000.0001) DEBUG_MSG: CALLING S/R CALC_IVDC
(PID.TID 0000.0001) DEBUG_MSG: CALLING S/R GRAD_SIGMA
(PID.TID 0000.0001) DEBUG_MSG: CALLING S/R GMREDI_CALC_TENSOR
(PID.TID 0000.0001) DEBUG_MSG: LEAVING S/R DO_OCEANIC_PHYS
(PID.TID 0000.0001) DEBUG_MSG: CALLING S/R DYNAMICS
(PID.TID 0000.0001) DEBUG_MSG: ENTERED S/R DYNAMICS
DEBUG_STATS_RL:                EtaN (DYNAMICS)  min= -6.76208403583306E-01
DEBUG_STATS_RL:                EtaN (DYNAMICS)  max=  1.28988925913835E+00
DEBUG_STATS_RL:                EtaN (DYNAMICS) mean=  4.00574735190663E-02
DEBUG_STATS_RL:                EtaN (DYNAMICS) S.D.=  7.92716942615945E-02
DEBUG_STATS_RL:                Uvel (DYNAMICS)  min= -6.56138897234212E-01
DEBUG_STATS_RL:                Uvel (DYNAMICS)  max=  7.20010120551627E-01
DEBUG_STATS_RL:                Uvel (DYNAMICS) mean= -4.31250280788437E-04
DEBUG_STATS_RL:                Uvel (DYNAMICS) S.D.=  1.81760771196012E-02
DEBUG_STATS_RL:                Vvel (DYNAMICS)  min= -6.34051042287065E-01
DEBUG_STATS_RL:                Vvel (DYNAMICS)  max=  6.22711665555816E-01
DEBUG_STATS_RL:                Vvel (DYNAMICS) mean= -5.18336988031064E-04
DEBUG_STATS_RL:                Vvel (DYNAMICS) S.D.=  1.97092543969185E-02
DEBUG_STATS_RL:                Wvel (DYNAMICS)  min= -2.35155012214567E-04
DEBUG_STATS_RL:                Wvel (DYNAMICS)  max=  1.34015642023320E-04
DEBUG_STATS_RL:                Wvel (DYNAMICS) mean= -3.42772053106642E-07
DEBUG_STATS_RL:                Wvel (DYNAMICS) S.D.=  7.36145555640666E-06
DEBUG_STATS_RL:               Theta (DYNAMICS)  min=  1.61115405952828E+01
DEBUG_STATS_RL:               Theta (DYNAMICS)  max=  2.32803838761014E+01
DEBUG_STATS_RL:               Theta (DYNAMICS) mean=  2.00025849659367E+01
DEBUG_STATS_RL:               Theta (DYNAMICS) S.D.=  8.89713377021068E-02
DEBUG_STATS_RL:                Salt (DYNAMICS)  min=  2.43786478698365E+01
DEBUG_STATS_RL:                Salt (DYNAMICS)  max=  3.51509566452303E+01
DEBUG_STATS_RL:                Salt (DYNAMICS) mean=  3.49971689808888E+01
DEBUG_STATS_RL:                Salt (DYNAMICS) S.D.=  1.21358388121468E-01
DEBUG_STATS_RL:                  Gu (DYNAMICS)  min= -6.71611423787726E-01
DEBUG_STATS_RL:                  Gu (DYNAMICS)  max=  7.22582593182960E-01
DEBUG_STATS_RL:                  Gu (DYNAMICS) mean= -4.15992368726041E-04
DEBUG_STATS_RL:                  Gu (DYNAMICS) S.D.=  1.82428181788919E-02
DEBUG_STATS_RL:                  Gv (DYNAMICS)  min= -6.23250538734998E-01
DEBUG_STATS_RL:                  Gv (DYNAMICS)  max=  5.91765474038134E-01
DEBUG_STATS_RL:                  Gv (DYNAMICS) mean= -5.33032780174799E-04
DEBUG_STATS_RL:                  Gv (DYNAMICS) S.D.=  1.95522734819991E-02
DEBUG_STATS_RL:               GuNm1 (DYNAMICS)  min= -3.02189680270231E-05
DEBUG_STATS_RL:               GuNm1 (DYNAMICS)  max=  3.64599626188836E-05
DEBUG_STATS_RL:               GuNm1 (DYNAMICS) mean=  1.78206032294984E-08
DEBUG_STATS_RL:               GuNm1 (DYNAMICS) S.D.=  1.38675909979897E-06
DEBUG_STATS_RL:               GvNm1 (DYNAMICS)  min= -3.51229094857778E-05
DEBUG_STATS_RL:               GvNm1 (DYNAMICS)  max=  1.87239168843455E-05
DEBUG_STATS_RL:               GvNm1 (DYNAMICS) mean= -1.73492732492212E-08
DEBUG_STATS_RL:               GvNm1 (DYNAMICS) S.D.=  1.19491192911893E-06
DEBUG_STATS_RL:               GtNm1 (DYNAMICS)  min= -8.70795590049067E-06
DEBUG_STATS_RL:               GtNm1 (DYNAMICS)  max=  4.75128640253875E-06
DEBUG_STATS_RL:               GtNm1 (DYNAMICS) mean=  3.60773051858322E-10
DEBUG_STATS_RL:               GtNm1 (DYNAMICS) S.D.=  9.21347328938983E-08
DEBUG_STATS_RL:               GsNm1 (DYNAMICS)  min= -1.60520330111249E-05
DEBUG_STATS_RL:               GsNm1 (DYNAMICS)  max=  2.18044391288961E-06
DEBUG_STATS_RL:               GsNm1 (DYNAMICS) mean= -4.57505262607327E-09
DEBUG_STATS_RL:               GsNm1 (DYNAMICS) S.D.=  1.87195719331238E-07
(PID.TID 0000.0001) DEBUG_MSG: LEAVING S/R DYNAMICS
DEBUG_STATS_RL:    cg2d_b (SOLVE_FOR_PRESSURE)  min= -1.50450775632772E+05
DEBUG_STATS_RL:    cg2d_b (SOLVE_FOR_PRESSURE)  max=  7.27529012200656E+04
DEBUG_STATS_RL:    cg2d_b (SOLVE_FOR_PRESSURE) mean= -3.91280192135253E+03
DEBUG_STATS_RL:    cg2d_b (SOLVE_FOR_PRESSURE) S.D.=  7.27772646122540E+03
 cg2d: Sum(rhs),rhsMax =  -1.14951780206117E+02  2.88211993557112E+01
(PID.TID 0000.0001)  cg2d: iter=     1 ; resid.=  4.01810970055388E-02
(PID.TID 0000.0001)  cg2d: iter=     2 ; resid.=  5.69661390329567E-03
(PID.TID 0000.0001)  cg2d: iter=     3 ; resid.=  1.40793026517125E-03
(PID.TID 0000.0001)  cg2d: iter=     4 ; resid.=  4.35275139191545E-04
(PID.TID 0000.0001)  cg2d: iter=     5 ; resid.=  1.30016800646805E-04
(PID.TID 0000.0001)  cg2d: iter=     6 ; resid.=  3.06102110872802E-05
(PID.TID 0000.0001)  cg2d: iter=     7 ; resid.=  5.77000648347042E-06
(PID.TID 0000.0001)  cg2d: iter=     8 ; resid.=  1.28756607166807E-06
(PID.TID 0000.0001)  cg2d: iter=     9 ; resid.=  4.30717521031763E-07
(PID.TID 0000.0001)  cg2d: iter=    10 ; resid.=  1.31614314043156E-07
(PID.TID 0000.0001)  cg2d: iter=    11 ; resid.=  2.98635538608112E-08
DEBUG_STATS_RL:    cg2d_x (SOLVE_FOR_PRESSURE)  min= -7.19488808628453E+00
DEBUG_STATS_RL:    cg2d_x (SOLVE_FOR_PRESSURE)  max=  1.23292786890176E+01
DEBUG_STATS_RL:    cg2d_x (SOLVE_FOR_PRESSURE) mean=  3.96218153606092E-01
DEBUG_STATS_RL:    cg2d_x (SOLVE_FOR_PRESSURE) S.D.=  7.73130072615636E-01
(PID.TID 0000.0001)      cg2d_init_res =   3.79270998861762E-01
(PID.TID 0000.0001)      cg2d_iters(min,last) =      -1      11
(PID.TID 0000.0001)      cg2d_last_res =   2.98635538608112E-08
(PID.TID 0000.0001) DEBUG_MSG: CALLING S/R UPDATE_ETAH
(PID.TID 0000.0001) DEBUG_MSG: ENTERED S/R CALC_R_STAR
(PID.TID 0000.0001) DEBUG_MSG: LEAVING S/R CALC_R_STAR
(PID.TID 0000.0001) DEBUG_MSG: CALLING S/R DO_STAGGER_FIELDS_EXCH.
(PID.TID 0000.0001) DEBUG_MSG: CALLING S/R THERMODYNAMICS
(PID.TID 0000.0001) DEBUG_MSG: ENTERED S/R THERMODYNAMICS
(PID.TID 0000.0001) DEBUG_MSG: CALLING S/R TEMP_INTEGRATE
(PID.TID 0000.0001) DEBUG_MSG: CALLING S/R SALT_INTEGRATE
DEBUG_STATS_RL:          Uvel (THERMODYNAMICS)  min= -6.68370285231525E-01
DEBUG_STATS_RL:          Uvel (THERMODYNAMICS)  max=  6.91545540810834E-01
DEBUG_STATS_RL:          Uvel (THERMODYNAMICS) mean= -4.16050712803444E-04
DEBUG_STATS_RL:          Uvel (THERMODYNAMICS) S.D.=  1.82489929418723E-02
DEBUG_STATS_RL:          Vvel (THERMODYNAMICS)  min= -6.22409442901604E-01
DEBUG_STATS_RL:          Vvel (THERMODYNAMICS)  max=  5.69469964932976E-01
DEBUG_STATS_RL:          Vvel (THERMODYNAMICS) mean= -5.29278823624365E-04
DEBUG_STATS_RL:          Vvel (THERMODYNAMICS) S.D.=  1.95508112069925E-02
DEBUG_STATS_RL:          Wvel (THERMODYNAMICS)  min= -2.31453852624684E-04
DEBUG_STATS_RL:          Wvel (THERMODYNAMICS)  max=  1.32848248871330E-04
DEBUG_STATS_RL:          Wvel (THERMODYNAMICS) mean= -3.29598318237048E-07
DEBUG_STATS_RL:          Wvel (THERMODYNAMICS) S.D.=  7.30856359556524E-06
DEBUG_STATS_RL:         Theta (THERMODYNAMICS)  min=  1.61045447321958E+01
DEBUG_STATS_RL:         Theta (THERMODYNAMICS)  max=  2.33138796444581E+01
DEBUG_STATS_RL:         Theta (THERMODYNAMICS) mean=  2.00026849942317E+01
DEBUG_STATS_RL:         Theta (THERMODYNAMICS) S.D.=  8.95564909783908E-02
DEBUG_STATS_RL:          Salt (THERMODYNAMICS)  min=  2.43110342876730E+01
DEBUG_STATS_RL:          Salt (THERMODYNAMICS)  max=  3.51509387037508E+01
DEBUG_STATS_RL:          Salt (THERMODYNAMICS) mean=  3.49971447418771E+01
DEBUG_STATS_RL:          Salt (THERMODYNAMICS) S.D.=  1.22178307542525E-01
DEBUG_STATS_RL:         GtNm1 (THERMODYNAMICS)  min= -8.30162876570921E-06
DEBUG_STATS_RL:         GtNm1 (THERMODYNAMICS)  max=  4.76278456176752E-06
DEBUG_STATS_RL:         GtNm1 (THERMODYNAMICS) mean=  4.08691600848977E-10
DEBUG_STATS_RL:         GtNm1 (THERMODYNAMICS) S.D.=  9.03974623371828E-08
DEBUG_STATS_RL:         GsNm1 (THERMODYNAMICS)  min= -1.59861668552558E-05
DEBUG_STATS_RL:         GsNm1 (THERMODYNAMICS)  max=  2.17958753644351E-06
DEBUG_STATS_RL:         GsNm1 (THERMODYNAMICS) mean= -4.57390041157903E-09
DEBUG_STATS_RL:         GsNm1 (THERMODYNAMICS) S.D.=  1.86520761268708E-07
(PID.TID 0000.0001) DEBUG_MSG: LEAVING S/R THERMODYNAMICS
(PID.TID 0000.0001) // =======================================================
(PID.TID 0000.0001) // Begin MONITOR dynamic field statistics
(PID.TID 0000.0001) // =======================================================
(PID.TID 0000.0001) %MON time_tsnumber                =                    64
(PID.TID 0000.0001) %MON time_secondsf                =   5.7600000000000E+04
(PID.TID 0000.0001) %MON dynstat_eta_max              =   1.2568072056830E+00
(PID.TID 0000.0001) %MON dynstat_eta_min              =  -7.3342386071442E-01
(PID.TID 0000.0001) %MON dynstat_eta_mean             =   3.8497180564357E-02
(PID.TID 0000.0001) %MON dynstat_eta_sd               =   7.2066095403990E-02
(PID.TID 0000.0001) %MON dynstat_eta_del2             =   1.1513836209610E-03
(PID.TID 0000.0001) %MON dynstat_uvel_max             =   6.9154554081083E-01
(PID.TID 0000.0001) %MON dynstat_uvel_min             =  -6.6837028523152E-01
(PID.TID 0000.0001) %MON dynstat_uvel_mean            =  -8.8333434771147E-06
(PID.TID 0000.0001) %MON dynstat_uvel_sd              =   6.2286224595061E-03
(PID.TID 0000.0001) %MON dynstat_uvel_del2            =   1.0871265318496E-04
(PID.TID 0000.0001) %MON dynstat_vvel_max             =   5.6946996493298E-01
(PID.TID 0000.0001) %MON dynstat_vvel_min             =  -6.2240944290160E-01
(PID.TID 0000.0001) %MON dynstat_vvel_mean            =   9.5554925642715E-04
(PID.TID 0000.0001) %MON dynstat_vvel_sd              =   6.5930683998287E-03
(PID.TID 0000.0001) %MON dynstat_vvel_del2            =   1.1494141764503E-04
(PID.TID 0000.0001) %MON dynstat_wvel_max             =   1.3284824887133E-04
(PID.TID 0000.0001) %MON dynstat_wvel_min             =  -2.3145385262468E-04
(PID.TID 0000.0001) %MON dynstat_wvel_mean            =  -3.0539056912702E-07
(PID.TID 0000.0001) %MON dynstat_wvel_sd              =   7.0150619614617E-06
(PID.TID 0000.0001) %MON dynstat_wvel_del2            =   7.4378331431948E-08
(PID.TID 0000.0001) %MON dynstat_theta_max            =   2.3313879644458E+01
(PID.TID 0000.0001) %MON dynstat_theta_min            =   1.6104544732196E+01
(PID.TID 0000.0001) %MON dynstat_theta_mean           =   1.9997900399664E+01
(PID.TID 0000.0001) %MON dynstat_theta_sd             =   2.9640161866992E-02
(PID.TID 0000.0001) %MON dynstat_theta_del2           =   5.2099181304470E-04
(PID.TID 0000.0001) %MON dynstat_salt_max             =   3.5150938703751E+01
(PID.TID 0000.0001) %MON dynstat_salt_min             =   2.4311034287673E+01
(PID.TID 0000.0001) %MON dynstat_salt_mean            =   3.4999628863598E+01
(PID.TID 0000.0001) %MON dynstat_salt_sd              =   3.7719156698235E-02
(PID.TID 0000.0001) %MON dynstat_salt_del2            =   1.3032217051756E-03
(PID.TID 0000.0001) %MON dynstat_sst_max              =   2.3313879644458E+01
(PID.TID 0000.0001) %MON dynstat_sst_min              =   1.6104544732196E+01
(PID.TID 0000.0001) %MON dynstat_sst_mean             =   2.0134032035715E+01
(PID.TID 0000.0001) %MON dynstat_sst_sd               =   2.7526534013311E-01
(PID.TID 0000.0001) %MON dynstat_sst_del2             =   6.0349752341127E-03
(PID.TID 0000.0001) %MON dynstat_sss_max              =   3.5150938703751E+01
(PID.TID 0000.0001) %MON dynstat_sss_min              =   2.4311034287673E+01
(PID.TID 0000.0001) %MON dynstat_sss_mean             =   3.4966082828727E+01
(PID.TID 0000.0001) %MON dynstat_sss_sd               =   4.5480642362065E-01
(PID.TID 0000.0001) %MON dynstat_sss_del2             =   1.7642379031753E-02
(PID.TID 0000.0001) %MON forcing_qnet_max             =   2.8689509277344E+03
(PID.TID 0000.0001) %MON forcing_qnet_min             =  -3.3710441894531E+03
(PID.TID 0000.0001) %MON forcing_qnet_mean            =  -1.5508119412651E+01
(PID.TID 0000.0001) %MON forcing_qnet_sd              =   4.7778102932451E+02
(PID.TID 0000.0001) %MON forcing_qnet_del2            =   6.2348332658099E+00
(PID.TID 0000.0001) %MON forcing_qsw_max              =   0.0000000000000E+00
(PID.TID 0000.0001) %MON forcing_qsw_min              =  -1.0502232468958E+02
(PID.TID 0000.0001) %MON forcing_qsw_mean             =  -1.5741994151976E+01
(PID.TID 0000.0001) %MON forcing_qsw_sd               =   2.7191949112481E+01
(PID.TID 0000.0001) %MON forcing_qsw_del2             =   2.2091292844963E-01
(PID.TID 0000.0001) %MON forcing_empmr_max            =   5.7762991636992E-03
(PID.TID 0000.0001) %MON forcing_empmr_min            =  -8.3031803369522E-02
(PID.TID 0000.0001) %MON forcing_empmr_mean           =  -3.9329650537084E-04
(PID.TID 0000.0001) %MON forcing_empmr_sd             =   3.6847574211159E-03
(PID.TID 0000.0001) %MON forcing_empmr_del2           =   1.4422148596093E-04
(PID.TID 0000.0001) %MON forcing_fu_max               =   6.0638779678652E-01
(PID.TID 0000.0001) %MON forcing_fu_min               =  -6.2200366173229E-01
(PID.TID 0000.0001) %MON forcing_fu_mean              =  -1.0115004152629E-03
(PID.TID 0000.0001) %MON forcing_fu_sd                =   8.7570801474573E-02
(PID.TID 0000.0001) %MON forcing_fu_del2              =   7.3593004416547E-04
(PID.TID 0000.0001) %MON forcing_fv_max               =   4.0083618727469E-01
(PID.TID 0000.0001) %MON forcing_fv_min               =  -4.1652033371718E-01
(PID.TID 0000.0001) %MON forcing_fv_mean              =  -7.1206737497717E-03
(PID.TID 0000.0001) %MON forcing_fv_sd                =   7.4612095586306E-02
(PID.TID 0000.0001) %MON forcing_fv_del2              =   6.2431025388366E-04
(PID.TID 0000.0001) %MON trAdv_CFL_u_max              =   2.2773091787316E-03
(PID.TID 0000.0001) %MON trAdv_CFL_v_max              =   1.9561449279006E-03
(PID.TID 0000.0001) %MON trAdv_CFL_w_max              =   3.2538084124328E-03
(PID.TID 0000.0001) %MON advcfl_uvel_max              =   2.3061429946760E-03
(PID.TID 0000.0001) %MON advcfl_vvel_max              =   1.8583882212747E-03
(PID.TID 0000.0001) %MON advcfl_wvel_max              =   5.7761254517928E-03
(PID.TID 0000.0001) %MON advcfl_W_hf_max              =   3.2538084124328E-03
(PID.TID 0000.0001) %MON pe_b_mean                    =   8.8929807441069E-06
(PID.TID 0000.0001) %MON ke_max                       =   2.2232284979698E-01
(PID.TID 0000.0001) %MON ke_mean                      =   3.8415086190094E-05
(PID.TID 0000.0001) %MON ke_vol                       =   1.3398163295280E+18
(PID.TID 0000.0001) %MON vort_r_min                   =  -4.1748087648931E-06
(PID.TID 0000.0001) %MON vort_r_max                   =   3.2097473306541E-06
(PID.TID 0000.0001) %MON vort_a_mean                  =  -2.0549865324846E-05
(PID.TID 0000.0001) %MON vort_a_sd                    =   7.5259486260653E-05
(PID.TID 0000.0001) %MON vort_p_mean                  =  -2.4783265050023E-05
(PID.TID 0000.0001) %MON vort_p_sd                    =   1.2810523939067E-04
(PID.TID 0000.0001) %MON surfExpan_theta_mean         =  -1.8775581322878E-07
(PID.TID 0000.0001) %MON surfExpan_salt_mean          =   1.5892658035469E-06
(PID.TID 0000.0001) // =======================================================
(PID.TID 0000.0001) // End MONITOR dynamic field statistics
(PID.TID 0000.0001) // =======================================================
(PID.TID 0000.0001) DEBUG_MSG: LEAVING S/R FORWARD_STEP
(PID.TID 0000.0001) DEBUG_MSG: ENTERED S/R FORWARD_STEP
(PID.TID 0000.0001) DEBUG_MSG: CALLING S/R LOAD_FIELDS_DRIVER
(PID.TID 0000.0001) DEBUG_MSG: ENTERED S/R LOAD_FIELDS_DRIVER
(PID.TID 0000.0001) DEBUG_MSG: CALLING S/R EXTERNAL_FIELDS_LOAD
(PID.TID 0000.0001) DEBUG_MSG: LEAVING S/R LOAD_FIELDS_DRIVER
(PID.TID 0000.0001) DEBUG_MSG: CALLING S/R DO_ATMOSPHERIC_PHYS
(PID.TID 0000.0001) DEBUG_MSG: ENTERED S/R DO_ATMOSPHERIC_PHYS
(PID.TID 0000.0001) DEBUG_MSG: LEAVING S/R DO_ATMOSPHERIC_PHYS
(PID.TID 0000.0001) DEBUG_MSG: CALLING S/R DO_OCEANIC_PHYS
(PID.TID 0000.0001) DEBUG_MSG: ENTERED S/R DO_OCEANIC_PHYS
(PID.TID 0000.0001) DEBUG_MSG: CALLING S/R EXTERNAL_FORCING_SURF
(PID.TID 0000.0001) DEBUG_MSG: CALLING S/R FIND_RHO_2D (xNr)
(PID.TID 0000.0001) DEBUG_MSG:                  ENTERING UPWARD K LOOP (bi=   1, bj=   1)
(PID.TID 0000.0001) DEBUG_MSG: CALLING S/R GRAD_SIGMA
(PID.TID 0000.0001) DEBUG_MSG: CALLING S/R CALC_IVDC
(PID.TID 0000.0001) DEBUG_MSG: CALLING S/R GRAD_SIGMA
(PID.TID 0000.0001) DEBUG_MSG: CALLING S/R CALC_IVDC
(PID.TID 0000.0001) DEBUG_MSG: CALLING S/R GRAD_SIGMA
(PID.TID 0000.0001) DEBUG_MSG: CALLING S/R CALC_IVDC
(PID.TID 0000.0001) DEBUG_MSG: CALLING S/R GRAD_SIGMA
(PID.TID 0000.0001) DEBUG_MSG: CALLING S/R CALC_IVDC
(PID.TID 0000.0001) DEBUG_MSG: CALLING S/R GRAD_SIGMA
(PID.TID 0000.0001) DEBUG_MSG: CALLING S/R CALC_IVDC
(PID.TID 0000.0001) DEBUG_MSG: CALLING S/R GRAD_SIGMA
(PID.TID 0000.0001) DEBUG_MSG: CALLING S/R CALC_IVDC
(PID.TID 0000.0001) DEBUG_MSG: CALLING S/R GRAD_SIGMA
(PID.TID 0000.0001) DEBUG_MSG: CALLING S/R CALC_IVDC
(PID.TID 0000.0001) DEBUG_MSG: CALLING S/R GRAD_SIGMA
(PID.TID 0000.0001) DEBUG_MSG: CALLING S/R CALC_IVDC
(PID.TID 0000.0001) DEBUG_MSG: CALLING S/R GRAD_SIGMA
(PID.TID 0000.0001) DEBUG_MSG: CALLING S/R CALC_IVDC
(PID.TID 0000.0001) DEBUG_MSG: CALLING S/R GRAD_SIGMA
(PID.TID 0000.0001) DEBUG_MSG: CALLING S/R CALC_IVDC
(PID.TID 0000.0001) DEBUG_MSG: CALLING S/R GRAD_SIGMA
(PID.TID 0000.0001) DEBUG_MSG: CALLING S/R CALC_IVDC
(PID.TID 0000.0001) DEBUG_MSG: CALLING S/R GRAD_SIGMA
(PID.TID 0000.0001) DEBUG_MSG: CALLING S/R CALC_IVDC
(PID.TID 0000.0001) DEBUG_MSG: CALLING S/R GRAD_SIGMA
(PID.TID 0000.0001) DEBUG_MSG: CALLING S/R CALC_IVDC
(PID.TID 0000.0001) DEBUG_MSG: CALLING S/R GRAD_SIGMA
(PID.TID 0000.0001) DEBUG_MSG: CALLING S/R CALC_IVDC
(PID.TID 0000.0001) DEBUG_MSG: CALLING S/R GRAD_SIGMA
(PID.TID 0000.0001) DEBUG_MSG: CALLING S/R CALC_IVDC
(PID.TID 0000.0001) DEBUG_MSG: CALLING S/R GRAD_SIGMA
(PID.TID 0000.0001) DEBUG_MSG: CALLING S/R GMREDI_CALC_TENSOR
(PID.TID 0000.0001) DEBUG_MSG: LEAVING S/R DO_OCEANIC_PHYS
(PID.TID 0000.0001) DEBUG_MSG: CALLING S/R DYNAMICS
(PID.TID 0000.0001) DEBUG_MSG: ENTERED S/R DYNAMICS
DEBUG_STATS_RL:                EtaN (DYNAMICS)  min= -7.33423860714425E-01
DEBUG_STATS_RL:                EtaN (DYNAMICS)  max=  1.25680720568303E+00
DEBUG_STATS_RL:                EtaN (DYNAMICS) mean=  4.03892103993020E-02
DEBUG_STATS_RL:                EtaN (DYNAMICS) S.D.=  7.88104049193075E-02
DEBUG_STATS_RL:                Uvel (DYNAMICS)  min= -6.68370285231525E-01
DEBUG_STATS_RL:                Uvel (DYNAMICS)  max=  6.91545540810834E-01
DEBUG_STATS_RL:                Uvel (DYNAMICS) mean= -4.16050712803444E-04
DEBUG_STATS_RL:                Uvel (DYNAMICS) S.D.=  1.82489929418723E-02
DEBUG_STATS_RL:                Vvel (DYNAMICS)  min= -6.22409442901604E-01
DEBUG_STATS_RL:                Vvel (DYNAMICS)  max=  5.69469964932976E-01
DEBUG_STATS_RL:                Vvel (DYNAMICS) mean= -5.29278823624365E-04
DEBUG_STATS_RL:                Vvel (DYNAMICS) S.D.=  1.95508112069925E-02
DEBUG_STATS_RL:                Wvel (DYNAMICS)  min= -2.31453852624684E-04
DEBUG_STATS_RL:                Wvel (DYNAMICS)  max=  1.32848248871330E-04
DEBUG_STATS_RL:                Wvel (DYNAMICS) mean= -3.29598318237048E-07
DEBUG_STATS_RL:                Wvel (DYNAMICS) S.D.=  7.30856359556524E-06
DEBUG_STATS_RL:               Theta (DYNAMICS)  min=  1.61045447321958E+01
DEBUG_STATS_RL:               Theta (DYNAMICS)  max=  2.33138796444581E+01
DEBUG_STATS_RL:               Theta (DYNAMICS) mean=  2.00026849942317E+01
DEBUG_STATS_RL:               Theta (DYNAMICS) S.D.=  8.95564909783908E-02
DEBUG_STATS_RL:                Salt (DYNAMICS)  min=  2.43110342876730E+01
DEBUG_STATS_RL:                Salt (DYNAMICS)  max=  3.51509387037508E+01
DEBUG_STATS_RL:                Salt (DYNAMICS) mean=  3.49971447418771E+01
DEBUG_STATS_RL:                Salt (DYNAMICS) S.D.=  1.22178307542525E-01
DEBUG_STATS_RL:                  Gu (DYNAMICS)  min= -6.83780206168731E-01
DEBUG_STATS_RL:                  Gu (DYNAMICS)  max=  6.92700525044818E-01
DEBUG_STATS_RL:                  Gu (DYNAMICS) mean= -4.03264007513107E-04
DEBUG_STATS_RL:                  Gu (DYNAMICS) S.D.=  1.83504156211907E-02
DEBUG_STATS_RL:                  Gv (DYNAMICS)  min= -6.12077209617596E-01
DEBUG_STATS_RL:                  Gv (DYNAMICS)  max=  5.39195854931033E-01
DEBUG_STATS_RL:                  Gv (DYNAMICS) mean= -5.43690229135627E-04
DEBUG_STATS_RL:                  Gv (DYNAMICS) S.D.=  1.94092339175127E-02
DEBUG_STATS_RL:               GuNm1 (DYNAMICS)  min= -3.04648331471892E-05
DEBUG_STATS_RL:               GuNm1 (DYNAMICS)  max=  3.30213189208087E-05
DEBUG_STATS_RL:               GuNm1 (DYNAMICS) mean=  1.52236826405069E-08
DEBUG_STATS_RL:               GuNm1 (DYNAMICS) S.D.=  1.37430728545284E-06
DEBUG_STATS_RL:               GvNm1 (DYNAMICS)  min= -3.48052341190916E-05
DEBUG_STATS_RL:               GvNm1 (DYNAMICS)  max=  2.01129576342279E-05
DEBUG_STATS_RL:               GvNm1 (DYNAMICS) mean= -1.71970530569889E-08
DEBUG_STATS_RL:               GvNm1 (DYNAMICS) S.D.=  1.19453808256713E-06
DEBUG_STATS_RL:               GtNm1 (DYNAMICS)  min= -8.30162876570921E-06
DEBUG_STATS_RL:               GtNm1 (DYNAMICS)  max=  4.76278456176752E-06
DEBUG_STATS_RL:               GtNm1 (DYNAMICS) mean=  4.08691600848977E-10
DEBUG_STATS_RL:               GtNm1 (DYNAMICS) S.D.=  9.03974623371828E-08
DEBUG_STATS_RL:               GsNm1 (DYNAMICS)  min= -1.59861668552558E-05
DEBUG_STATS_RL:               GsNm1 (DYNAMICS)  max=  2.17958753644351E-06
DEBUG_STATS_RL:               GsNm1 (DYNAMICS) mean= -4.57390041157903E-09
DEBUG_STATS_RL:               GsNm1 (DYNAMICS) S.D.=  1.86520761268708E-07
(PID.TID 0000.0001) DEBUG_MSG: LEAVING S/R DYNAMICS
DEBUG_STATS_RL:    cg2d_b (SOLVE_FOR_PRESSURE)  min= -1.58116312804696E+05
DEBUG_STATS_RL:    cg2d_b (SOLVE_FOR_PRESSURE)  max=  9.37365085512635E+04
DEBUG_STATS_RL:    cg2d_b (SOLVE_FOR_PRESSURE) mean= -3.94724573801297E+03
DEBUG_STATS_RL:    cg2d_b (SOLVE_FOR_PRESSURE) S.D.=  7.28381361597776E+03
 cg2d: Sum(rhs),rhsMax =  -1.10341721562705E+02  3.02896529018724E+01
(PID.TID 0000.0001)  cg2d: iter=     1 ; resid.=  3.78112449116605E-02
(PID.TID 0000.0001)  cg2d: iter=     2 ; resid.=  5.32331290566501E-03
(PID.TID 0000.0001)  cg2d: iter=     3 ; resid.=  1.33368527202183E-03
(PID.TID 0000.0001)  cg2d: iter=     4 ; resid.=  4.21638744090327E-04
(PID.TID 0000.0001)  cg2d: iter=     5 ; resid.=  1.20880044305177E-04
(PID.TID 0000.0001)  cg2d: iter=     6 ; resid.=  2.77824555150112E-05
(PID.TID 0000.0001)  cg2d: iter=     7 ; resid.=  5.25100003442605E-06
(PID.TID 0000.0001)  cg2d: iter=     8 ; resid.=  1.04850240830587E-06
(PID.TID 0000.0001)  cg2d: iter=     9 ; resid.=  2.77077985383950E-07
(PID.TID 0000.0001)  cg2d: iter=    10 ; resid.=  9.01335524431611E-08
DEBUG_STATS_RL:    cg2d_x (SOLVE_FOR_PRESSURE)  min= -9.88847957294459E+00
DEBUG_STATS_RL:    cg2d_x (SOLVE_FOR_PRESSURE)  max=  1.29556542943916E+01
DEBUG_STATS_RL:    cg2d_x (SOLVE_FOR_PRESSURE) mean=  3.99333920784830E-01
DEBUG_STATS_RL:    cg2d_x (SOLVE_FOR_PRESSURE) S.D.=  7.72957991008060E-01
(PID.TID 0000.0001)      cg2d_init_res =   3.49751027374967E-01
(PID.TID 0000.0001)      cg2d_iters(min,last) =      -1      10
(PID.TID 0000.0001)      cg2d_last_res =   9.01335524431611E-08
(PID.TID 0000.0001) DEBUG_MSG: CALLING S/R UPDATE_ETAH
(PID.TID 0000.0001) DEBUG_MSG: ENTERED S/R CALC_R_STAR
(PID.TID 0000.0001) DEBUG_MSG: LEAVING S/R CALC_R_STAR
(PID.TID 0000.0001) DEBUG_MSG: CALLING S/R DO_STAGGER_FIELDS_EXCH.
(PID.TID 0000.0001) DEBUG_MSG: CALLING S/R THERMODYNAMICS
(PID.TID 0000.0001) DEBUG_MSG: ENTERED S/R THERMODYNAMICS
(PID.TID 0000.0001) DEBUG_MSG: CALLING S/R TEMP_INTEGRATE
(PID.TID 0000.0001) DEBUG_MSG: CALLING S/R SALT_INTEGRATE
DEBUG_STATS_RL:          Uvel (THERMODYNAMICS)  min= -6.77826612519338E-01
DEBUG_STATS_RL:          Uvel (THERMODYNAMICS)  max=  6.53588229841763E-01
DEBUG_STATS_RL:          Uvel (THERMODYNAMICS) mean= -4.03695584420739E-04
DEBUG_STATS_RL:          Uvel (THERMODYNAMICS) S.D.=  1.83305999207608E-02
DEBUG_STATS_RL:          Vvel (THERMODYNAMICS)  min= -6.07104128112199E-01
DEBUG_STATS_RL:          Vvel (THERMODYNAMICS)  max=  5.09602814541744E-01
DEBUG_STATS_RL:          Vvel (THERMODYNAMICS) mean= -5.42074402171488E-04
DEBUG_STATS_RL:          Vvel (THERMODYNAMICS) S.D.=  1.93829087479261E-02
DEBUG_STATS_RL:          Wvel (THERMODYNAMICS)  min= -2.27355793848408E-04
DEBUG_STATS_RL:          Wvel (THERMODYNAMICS)  max=  1.31425708963435E-04
DEBUG_STATS_RL:          Wvel (THERMODYNAMICS) mean= -3.17920682610996E-07
DEBUG_STATS_RL:          Wvel (THERMODYNAMICS) S.D.=  7.25643182517770E-06
DEBUG_STATS_RL:         Theta (THERMODYNAMICS)  min=  1.60977266596984E+01
DEBUG_STATS_RL:         Theta (THERMODYNAMICS)  max=  2.33469726491989E+01
DEBUG_STATS_RL:         Theta (THERMODYNAMICS) mean=  2.00027842692026E+01
DEBUG_STATS_RL:         Theta (THERMODYNAMICS) S.D.=  9.01374729316015E-02
DEBUG_STATS_RL:          Salt (THERMODYNAMICS)  min=  2.42449590393757E+01
DEBUG_STATS_RL:          Salt (THERMODYNAMICS)  max=  3.51509198870382E+01
DEBUG_STATS_RL:          Salt (THERMODYNAMICS) mean=  3.49971204028394E+01
DEBUG_STATS_RL:          Salt (THERMODYNAMICS) S.D.=  1.22980819664660E-01
DEBUG_STATS_RL:         GtNm1 (THERMODYNAMICS)  min= -7.80646470871144E-06
DEBUG_STATS_RL:         GtNm1 (THERMODYNAMICS)  max=  4.77270409373980E-06
DEBUG_STATS_RL:         GtNm1 (THERMODYNAMICS) mean=  4.63404091606451E-10
DEBUG_STATS_RL:         GtNm1 (THERMODYNAMICS) S.D.=  8.80129418245559E-08
DEBUG_STATS_RL:         GsNm1 (THERMODYNAMICS)  min= -1.59176832449181E-05
DEBUG_STATS_RL:         GsNm1 (THERMODYNAMICS)  max=  2.17971168896877E-06
DEBUG_STATS_RL:         GsNm1 (THERMODYNAMICS) mean= -4.56928018755276E-09
DEBUG_STATS_RL:         GsNm1 (THERMODYNAMICS) S.D.=  1.85738655802347E-07
(PID.TID 0000.0001) DEBUG_MSG: LEAVING S/R THERMODYNAMICS
(PID.TID 0000.0001) // =======================================================
(PID.TID 0000.0001) // Begin MONITOR dynamic field statistics
(PID.TID 0000.0001) // =======================================================
(PID.TID 0000.0001) %MON time_tsnumber                =                    65
(PID.TID 0000.0001) %MON time_secondsf                =   5.8500000000000E+04
(PID.TID 0000.0001) %MON dynstat_eta_max              =   1.3206579308256E+00
(PID.TID 0000.0001) %MON dynstat_eta_min              =  -1.0079999611727E+00
(PID.TID 0000.0001) %MON dynstat_eta_mean             =   3.8836065551626E-02
(PID.TID 0000.0001) %MON dynstat_eta_sd               =   7.2165026333964E-02
(PID.TID 0000.0001) %MON dynstat_eta_del2             =   1.1743485231583E-03
(PID.TID 0000.0001) %MON dynstat_uvel_max             =   6.5358822984176E-01
(PID.TID 0000.0001) %MON dynstat_uvel_min             =  -6.7782661251934E-01
(PID.TID 0000.0001) %MON dynstat_uvel_mean            =  -1.5357159855495E-06
(PID.TID 0000.0001) %MON dynstat_uvel_sd              =   6.2617017805771E-03
(PID.TID 0000.0001) %MON dynstat_uvel_del2            =   1.0762212575890E-04
(PID.TID 0000.0001) %MON dynstat_vvel_max             =   5.0960281454174E-01
(PID.TID 0000.0001) %MON dynstat_vvel_min             =  -6.0710412811220E-01
(PID.TID 0000.0001) %MON dynstat_vvel_mean            =   9.5026036076281E-04
(PID.TID 0000.0001) %MON dynstat_vvel_sd              =   6.5424234332732E-03
(PID.TID 0000.0001) %MON dynstat_vvel_del2            =   1.1284438001357E-04
(PID.TID 0000.0001) %MON dynstat_wvel_max             =   1.3142570896344E-04
(PID.TID 0000.0001) %MON dynstat_wvel_min             =  -2.2735579384841E-04
(PID.TID 0000.0001) %MON dynstat_wvel_mean            =  -2.9117698630717E-07
(PID.TID 0000.0001) %MON dynstat_wvel_sd              =   6.9704423221783E-06
(PID.TID 0000.0001) %MON dynstat_wvel_del2            =   7.3811118208962E-08
(PID.TID 0000.0001) %MON dynstat_theta_max            =   2.3346972649199E+01
(PID.TID 0000.0001) %MON dynstat_theta_min            =   1.6097726659698E+01
(PID.TID 0000.0001) %MON dynstat_theta_mean           =   1.9997901524655E+01
(PID.TID 0000.0001) %MON dynstat_theta_sd             =   2.9817764864085E-02
(PID.TID 0000.0001) %MON dynstat_theta_del2           =   5.2348185878419E-04
(PID.TID 0000.0001) %MON dynstat_salt_max             =   3.5150919887038E+01
(PID.TID 0000.0001) %MON dynstat_salt_min             =   2.4244959039376E+01
(PID.TID 0000.0001) %MON dynstat_salt_mean            =   3.4999625881418E+01
(PID.TID 0000.0001) %MON dynstat_salt_sd              =   3.7966108798432E-02
(PID.TID 0000.0001) %MON dynstat_salt_del2            =   1.3112192871889E-03
(PID.TID 0000.0001) %MON dynstat_sst_max              =   2.3346972649199E+01
(PID.TID 0000.0001) %MON dynstat_sst_min              =   1.6097726659698E+01
(PID.TID 0000.0001) %MON dynstat_sst_mean             =   2.0135561534509E+01
(PID.TID 0000.0001) %MON dynstat_sst_sd               =   2.7713812267260E-01
(PID.TID 0000.0001) %MON dynstat_sst_del2             =   6.0730259109076E-03
(PID.TID 0000.0001) %MON dynstat_sss_max              =   3.5150919887038E+01
(PID.TID 0000.0001) %MON dynstat_sss_min              =   2.4244959039376E+01
(PID.TID 0000.0001) %MON dynstat_sss_mean             =   3.4965793480875E+01
(PID.TID 0000.0001) %MON dynstat_sss_sd               =   4.5777838311803E-01
(PID.TID 0000.0001) %MON dynstat_sss_del2             =   1.7750262193169E-02
(PID.TID 0000.0001) %MON forcing_qnet_max             =   2.8303420410156E+03
(PID.TID 0000.0001) %MON forcing_qnet_min             =  -3.3239201660156E+03
(PID.TID 0000.0001) %MON forcing_qnet_mean            =  -1.7271944818596E+01
(PID.TID 0000.0001) %MON forcing_qnet_sd              =   4.7560366698747E+02
(PID.TID 0000.0001) %MON forcing_qnet_del2            =   6.1528115303278E+00
(PID.TID 0000.0001) %MON forcing_qsw_max              =   0.0000000000000E+00
(PID.TID 0000.0001) %MON forcing_qsw_min              =  -1.0671672395428E+02
(PID.TID 0000.0001) %MON forcing_qsw_mean             =  -1.6121915849734E+01
(PID.TID 0000.0001) %MON forcing_qsw_sd               =   2.7998355761685E+01
(PID.TID 0000.0001) %MON forcing_qsw_del2             =   2.2679168262656E-01
(PID.TID 0000.0001) %MON forcing_empmr_max            =   5.7168635539711E-03
(PID.TID 0000.0001) %MON forcing_empmr_min            =  -8.2176767289639E-02
(PID.TID 0000.0001) %MON forcing_empmr_mean           =  -3.8971773535914E-04
(PID.TID 0000.0001) %MON forcing_empmr_sd             =   3.6477088118394E-03
(PID.TID 0000.0001) %MON forcing_empmr_del2           =   1.4273650841990E-04
(PID.TID 0000.0001) %MON forcing_fu_max               =   5.9947516217800E-01
(PID.TID 0000.0001) %MON forcing_fu_min               =  -6.2346952583937E-01
(PID.TID 0000.0001) %MON forcing_fu_mean              =  -9.4997010182718E-04
(PID.TID 0000.0001) %MON forcing_fu_sd                =   8.7352471375840E-02
(PID.TID 0000.0001) %MON forcing_fu_del2              =   7.3396310962953E-04
(PID.TID 0000.0001) %MON forcing_fv_max               =   3.9846545533440E-01
(PID.TID 0000.0001) %MON forcing_fv_min               =  -4.1325369024805E-01
(PID.TID 0000.0001) %MON forcing_fv_mean              =  -7.1434279819385E-03
(PID.TID 0000.0001) %MON forcing_fv_sd                =   7.4215414052164E-02
(PID.TID 0000.0001) %MON forcing_fv_del2              =   6.2106958755355E-04
(PID.TID 0000.0001) %MON trAdv_CFL_u_max              =   2.1562154402129E-03
(PID.TID 0000.0001) %MON trAdv_CFL_v_max              =   1.8605759733938E-03
(PID.TID 0000.0001) %MON trAdv_CFL_w_max              =   3.2421529477430E-03
(PID.TID 0000.0001) %MON advcfl_uvel_max              =   2.1795642205790E-03
(PID.TID 0000.0001) %MON advcfl_vvel_max              =   1.7749941242395E-03
(PID.TID 0000.0001) %MON advcfl_wvel_max              =   5.7166446810183E-03
(PID.TID 0000.0001) %MON advcfl_W_hf_max              =   3.2421529477430E-03
(PID.TID 0000.0001) %MON pe_b_mean                    =   8.9469008596231E-06
(PID.TID 0000.0001) %MON ke_max                       =   2.2272601157310E-01
(PID.TID 0000.0001) %MON ke_mean                      =   3.8291609607573E-05
(PID.TID 0000.0001) %MON ke_vol                       =   1.3398164539762E+18
(PID.TID 0000.0001) %MON vort_r_min                   =  -4.1561363407644E-06
(PID.TID 0000.0001) %MON vort_r_max                   =   3.1091750323401E-06
(PID.TID 0000.0001) %MON vort_a_mean                  =  -2.0549865324846E-05
(PID.TID 0000.0001) %MON vort_a_sd                    =   7.5259486183079E-05
(PID.TID 0000.0001) %MON vort_p_mean                  =  -2.4783262541198E-05
(PID.TID 0000.0001) %MON vort_p_sd                    =   1.2810525107208E-04
(PID.TID 0000.0001) %MON surfExpan_theta_mean         =  -2.1387687763448E-07
(PID.TID 0000.0001) %MON surfExpan_salt_mean          =   1.5866612027242E-06
(PID.TID 0000.0001) // =======================================================
(PID.TID 0000.0001) // End MONITOR dynamic field statistics
(PID.TID 0000.0001) // =======================================================
(PID.TID 0000.0001) DEBUG_MSG: LEAVING S/R FORWARD_STEP
(PID.TID 0000.0001) DEBUG_MSG: ENTERED S/R FORWARD_STEP
(PID.TID 0000.0001) DEBUG_MSG: CALLING S/R LOAD_FIELDS_DRIVER
(PID.TID 0000.0001) DEBUG_MSG: ENTERED S/R LOAD_FIELDS_DRIVER
(PID.TID 0000.0001) DEBUG_MSG: CALLING S/R EXTERNAL_FIELDS_LOAD
(PID.TID 0000.0001) DEBUG_MSG: LEAVING S/R LOAD_FIELDS_DRIVER
(PID.TID 0000.0001) DEBUG_MSG: CALLING S/R DO_ATMOSPHERIC_PHYS
(PID.TID 0000.0001) DEBUG_MSG: ENTERED S/R DO_ATMOSPHERIC_PHYS
(PID.TID 0000.0001) DEBUG_MSG: LEAVING S/R DO_ATMOSPHERIC_PHYS
(PID.TID 0000.0001) DEBUG_MSG: CALLING S/R DO_OCEANIC_PHYS
(PID.TID 0000.0001) DEBUG_MSG: ENTERED S/R DO_OCEANIC_PHYS
(PID.TID 0000.0001) DEBUG_MSG: CALLING S/R EXTERNAL_FORCING_SURF
(PID.TID 0000.0001) DEBUG_MSG: CALLING S/R FIND_RHO_2D (xNr)
(PID.TID 0000.0001) DEBUG_MSG:                  ENTERING UPWARD K LOOP (bi=   1, bj=   1)
(PID.TID 0000.0001) DEBUG_MSG: CALLING S/R GRAD_SIGMA
(PID.TID 0000.0001) DEBUG_MSG: CALLING S/R CALC_IVDC
(PID.TID 0000.0001) DEBUG_MSG: CALLING S/R GRAD_SIGMA
(PID.TID 0000.0001) DEBUG_MSG: CALLING S/R CALC_IVDC
(PID.TID 0000.0001) DEBUG_MSG: CALLING S/R GRAD_SIGMA
(PID.TID 0000.0001) DEBUG_MSG: CALLING S/R CALC_IVDC
(PID.TID 0000.0001) DEBUG_MSG: CALLING S/R GRAD_SIGMA
(PID.TID 0000.0001) DEBUG_MSG: CALLING S/R CALC_IVDC
(PID.TID 0000.0001) DEBUG_MSG: CALLING S/R GRAD_SIGMA
(PID.TID 0000.0001) DEBUG_MSG: CALLING S/R CALC_IVDC
(PID.TID 0000.0001) DEBUG_MSG: CALLING S/R GRAD_SIGMA
(PID.TID 0000.0001) DEBUG_MSG: CALLING S/R CALC_IVDC
(PID.TID 0000.0001) DEBUG_MSG: CALLING S/R GRAD_SIGMA
(PID.TID 0000.0001) DEBUG_MSG: CALLING S/R CALC_IVDC
(PID.TID 0000.0001) DEBUG_MSG: CALLING S/R GRAD_SIGMA
(PID.TID 0000.0001) DEBUG_MSG: CALLING S/R CALC_IVDC
(PID.TID 0000.0001) DEBUG_MSG: CALLING S/R GRAD_SIGMA
(PID.TID 0000.0001) DEBUG_MSG: CALLING S/R CALC_IVDC
(PID.TID 0000.0001) DEBUG_MSG: CALLING S/R GRAD_SIGMA
(PID.TID 0000.0001) DEBUG_MSG: CALLING S/R CALC_IVDC
(PID.TID 0000.0001) DEBUG_MSG: CALLING S/R GRAD_SIGMA
(PID.TID 0000.0001) DEBUG_MSG: CALLING S/R CALC_IVDC
(PID.TID 0000.0001) DEBUG_MSG: CALLING S/R GRAD_SIGMA
(PID.TID 0000.0001) DEBUG_MSG: CALLING S/R CALC_IVDC
(PID.TID 0000.0001) DEBUG_MSG: CALLING S/R GRAD_SIGMA
(PID.TID 0000.0001) DEBUG_MSG: CALLING S/R CALC_IVDC
(PID.TID 0000.0001) DEBUG_MSG: CALLING S/R GRAD_SIGMA
(PID.TID 0000.0001) DEBUG_MSG: CALLING S/R CALC_IVDC
(PID.TID 0000.0001) DEBUG_MSG: CALLING S/R GRAD_SIGMA
(PID.TID 0000.0001) DEBUG_MSG: CALLING S/R CALC_IVDC
(PID.TID 0000.0001) DEBUG_MSG: CALLING S/R GRAD_SIGMA
(PID.TID 0000.0001) DEBUG_MSG: CALLING S/R GMREDI_CALC_TENSOR
(PID.TID 0000.0001) DEBUG_MSG: LEAVING S/R DO_OCEANIC_PHYS
(PID.TID 0000.0001) DEBUG_MSG: CALLING S/R DYNAMICS
(PID.TID 0000.0001) DEBUG_MSG: ENTERED S/R DYNAMICS
DEBUG_STATS_RL:                EtaN (DYNAMICS)  min= -1.00799996117270E+00
DEBUG_STATS_RL:                EtaN (DYNAMICS)  max=  1.32065793082555E+00
DEBUG_STATS_RL:                EtaN (DYNAMICS) mean=  4.07068215942470E-02
DEBUG_STATS_RL:                EtaN (DYNAMICS) S.D.=  7.87928638500408E-02
DEBUG_STATS_RL:                Uvel (DYNAMICS)  min= -6.77826612519338E-01
DEBUG_STATS_RL:                Uvel (DYNAMICS)  max=  6.53588229841763E-01
DEBUG_STATS_RL:                Uvel (DYNAMICS) mean= -4.03695584420739E-04
DEBUG_STATS_RL:                Uvel (DYNAMICS) S.D.=  1.83305999207608E-02
DEBUG_STATS_RL:                Vvel (DYNAMICS)  min= -6.07104128112199E-01
DEBUG_STATS_RL:                Vvel (DYNAMICS)  max=  5.09602814541744E-01
DEBUG_STATS_RL:                Vvel (DYNAMICS) mean= -5.42074402171488E-04
DEBUG_STATS_RL:                Vvel (DYNAMICS) S.D.=  1.93829087479261E-02
DEBUG_STATS_RL:                Wvel (DYNAMICS)  min= -2.27355793848408E-04
DEBUG_STATS_RL:                Wvel (DYNAMICS)  max=  1.31425708963435E-04
DEBUG_STATS_RL:                Wvel (DYNAMICS) mean= -3.17920682610996E-07
DEBUG_STATS_RL:                Wvel (DYNAMICS) S.D.=  7.25643182517770E-06
DEBUG_STATS_RL:               Theta (DYNAMICS)  min=  1.60977266596984E+01
DEBUG_STATS_RL:               Theta (DYNAMICS)  max=  2.33469726491989E+01
DEBUG_STATS_RL:               Theta (DYNAMICS) mean=  2.00027842692026E+01
DEBUG_STATS_RL:               Theta (DYNAMICS) S.D.=  9.01374729316015E-02
DEBUG_STATS_RL:                Salt (DYNAMICS)  min=  2.42449590393757E+01
DEBUG_STATS_RL:                Salt (DYNAMICS)  max=  3.51509198870382E+01
DEBUG_STATS_RL:                Salt (DYNAMICS) mean=  3.49971204028394E+01
DEBUG_STATS_RL:                Salt (DYNAMICS) S.D.=  1.22980819664660E-01
DEBUG_STATS_RL:                  Gu (DYNAMICS)  min= -6.93041654601563E-01
DEBUG_STATS_RL:                  Gu (DYNAMICS)  max=  6.53468081171797E-01
DEBUG_STATS_RL:                  Gu (DYNAMICS) mean= -3.93411755644425E-04
DEBUG_STATS_RL:                  Gu (DYNAMICS) S.D.=  1.84630984731393E-02
DEBUG_STATS_RL:                  Gv (DYNAMICS)  min= -5.97081232307765E-01
DEBUG_STATS_RL:                  Gv (DYNAMICS)  max=  4.80464731618860E-01
DEBUG_STATS_RL:                  Gv (DYNAMICS) mean= -5.56077844563677E-04
DEBUG_STATS_RL:                  Gv (DYNAMICS) S.D.=  1.92591324697115E-02
DEBUG_STATS_RL:               GuNm1 (DYNAMICS)  min= -3.04986493461240E-05
DEBUG_STATS_RL:               GuNm1 (DYNAMICS)  max=  2.98948527961641E-05
DEBUG_STATS_RL:               GuNm1 (DYNAMICS) mean=  1.25162860552646E-08
DEBUG_STATS_RL:               GuNm1 (DYNAMICS) S.D.=  1.35764243717340E-06
DEBUG_STATS_RL:               GvNm1 (DYNAMICS)  min= -3.39444971276109E-05
DEBUG_STATS_RL:               GvNm1 (DYNAMICS)  max=  2.14674194472591E-05
DEBUG_STATS_RL:               GvNm1 (DYNAMICS) mean= -1.68771126277219E-08
DEBUG_STATS_RL:               GvNm1 (DYNAMICS) S.D.=  1.19675160867350E-06
DEBUG_STATS_RL:               GtNm1 (DYNAMICS)  min= -7.80646470871144E-06
DEBUG_STATS_RL:               GtNm1 (DYNAMICS)  max=  4.77270409373980E-06
DEBUG_STATS_RL:               GtNm1 (DYNAMICS) mean=  4.63404091606451E-10
DEBUG_STATS_RL:               GtNm1 (DYNAMICS) S.D.=  8.80129418245559E-08
DEBUG_STATS_RL:               GsNm1 (DYNAMICS)  min= -1.59176832449181E-05
DEBUG_STATS_RL:               GsNm1 (DYNAMICS)  max=  2.17971168896877E-06
DEBUG_STATS_RL:               GsNm1 (DYNAMICS) mean= -4.56928018755276E-09
DEBUG_STATS_RL:               GsNm1 (DYNAMICS) S.D.=  1.85738655802347E-07
(PID.TID 0000.0001) DEBUG_MSG: LEAVING S/R DYNAMICS
DEBUG_STATS_RL:    cg2d_b (SOLVE_FOR_PRESSURE)  min= -1.65459922585382E+05
DEBUG_STATS_RL:    cg2d_b (SOLVE_FOR_PRESSURE)  max=  1.16624267418048E+05
DEBUG_STATS_RL:    cg2d_b (SOLVE_FOR_PRESSURE) mean= -3.98151065368892E+03
DEBUG_STATS_RL:    cg2d_b (SOLVE_FOR_PRESSURE) S.D.=  7.32902751703326E+03
 cg2d: Sum(rhs),rhsMax =  -1.06359756576242E+02  3.16964362207986E+01
(PID.TID 0000.0001)  cg2d: iter=     1 ; resid.=  3.60479523110244E-02
(PID.TID 0000.0001)  cg2d: iter=     2 ; resid.=  4.99800049567637E-03
(PID.TID 0000.0001)  cg2d: iter=     3 ; resid.=  1.26363210955552E-03
(PID.TID 0000.0001)  cg2d: iter=     4 ; resid.=  4.09085056890754E-04
(PID.TID 0000.0001)  cg2d: iter=     5 ; resid.=  1.12850327940820E-04
(PID.TID 0000.0001)  cg2d: iter=     6 ; resid.=  2.54122884429046E-05
(PID.TID 0000.0001)  cg2d: iter=     7 ; resid.=  4.99521911248921E-06
(PID.TID 0000.0001)  cg2d: iter=     8 ; resid.=  1.00428282037978E-06
(PID.TID 0000.0001)  cg2d: iter=     9 ; resid.=  2.46970492578392E-07
(PID.TID 0000.0001)  cg2d: iter=    10 ; resid.=  7.55664060896822E-08
DEBUG_STATS_RL:    cg2d_x (SOLVE_FOR_PRESSURE)  min= -1.23109766789680E+01
DEBUG_STATS_RL:    cg2d_x (SOLVE_FOR_PRESSURE)  max=  1.35555174054686E+01
DEBUG_STATS_RL:    cg2d_x (SOLVE_FOR_PRESSURE) mean=  4.02326363242713E-01
DEBUG_STATS_RL:    cg2d_x (SOLVE_FOR_PRESSURE) S.D.=  7.76275226282444E-01
(PID.TID 0000.0001)      cg2d_init_res =   3.22469827897497E-01
(PID.TID 0000.0001)      cg2d_iters(min,last) =      -1      10
(PID.TID 0000.0001)      cg2d_last_res =   7.55664060896822E-08
(PID.TID 0000.0001) DEBUG_MSG: CALLING S/R UPDATE_ETAH
(PID.TID 0000.0001) DEBUG_MSG: ENTERED S/R CALC_R_STAR
(PID.TID 0000.0001) DEBUG_MSG: LEAVING S/R CALC_R_STAR
(PID.TID 0000.0001) DEBUG_MSG: CALLING S/R DO_STAGGER_FIELDS_EXCH.
(PID.TID 0000.0001) DEBUG_MSG: CALLING S/R THERMODYNAMICS
(PID.TID 0000.0001) DEBUG_MSG: ENTERED S/R THERMODYNAMICS
(PID.TID 0000.0001) DEBUG_MSG: CALLING S/R TEMP_INTEGRATE
(PID.TID 0000.0001) DEBUG_MSG: CALLING S/R SALT_INTEGRATE
DEBUG_STATS_RL:          Uvel (THERMODYNAMICS)  min= -6.84267147693043E-01
DEBUG_STATS_RL:          Uvel (THERMODYNAMICS)  max=  6.07241435465308E-01
DEBUG_STATS_RL:          Uvel (THERMODYNAMICS) mean= -3.94313943631358E-04
DEBUG_STATS_RL:          Uvel (THERMODYNAMICS) S.D.=  1.84218564657258E-02
DEBUG_STATS_RL:          Vvel (THERMODYNAMICS)  min= -5.88229285272695E-01
DEBUG_STATS_RL:          Vvel (THERMODYNAMICS)  max=  4.44352098208735E-01
DEBUG_STATS_RL:          Vvel (THERMODYNAMICS) mean= -5.56428277316105E-04
DEBUG_STATS_RL:          Vvel (THERMODYNAMICS) S.D.=  1.92133420540800E-02
DEBUG_STATS_RL:          Wvel (THERMODYNAMICS)  min= -2.22908190126476E-04
DEBUG_STATS_RL:          Wvel (THERMODYNAMICS)  max=  1.29755921673992E-04
DEBUG_STATS_RL:          Wvel (THERMODYNAMICS) mean= -3.08633989783870E-07
DEBUG_STATS_RL:          Wvel (THERMODYNAMICS) S.D.=  7.20482354125692E-06
DEBUG_STATS_RL:         Theta (THERMODYNAMICS)  min=  1.60911328001065E+01
DEBUG_STATS_RL:         Theta (THERMODYNAMICS)  max=  2.33796570588803E+01
DEBUG_STATS_RL:         Theta (THERMODYNAMICS) mean=  2.00028847381020E+01
DEBUG_STATS_RL:         Theta (THERMODYNAMICS) S.D.=  9.07162125813505E-02
DEBUG_STATS_RL:          Salt (THERMODYNAMICS)  min=  2.41803822961285E+01
DEBUG_STATS_RL:          Salt (THERMODYNAMICS)  max=  3.51509018905379E+01
DEBUG_STATS_RL:          Salt (THERMODYNAMICS) mean=  3.49970968803406E+01
DEBUG_STATS_RL:          Salt (THERMODYNAMICS) S.D.=  1.23766576556650E-01
DEBUG_STATS_RL:         GtNm1 (THERMODYNAMICS)  min= -7.23393975512594E-06
DEBUG_STATS_RL:         GtNm1 (THERMODYNAMICS)  max=  4.78081531981971E-06
DEBUG_STATS_RL:         GtNm1 (THERMODYNAMICS) mean=  5.24071211438416E-10
DEBUG_STATS_RL:         GtNm1 (THERMODYNAMICS) S.D.=  8.50840824366628E-08
DEBUG_STATS_RL:         GsNm1 (THERMODYNAMICS)  min= -1.58466709961340E-05
DEBUG_STATS_RL:         GsNm1 (THERMODYNAMICS)  max=  2.18134034436517E-06
DEBUG_STATS_RL:         GsNm1 (THERMODYNAMICS) mean= -4.56240951978643E-09
DEBUG_STATS_RL:         GsNm1 (THERMODYNAMICS) S.D.=  1.84877723427219E-07
(PID.TID 0000.0001) DEBUG_MSG: LEAVING S/R THERMODYNAMICS
(PID.TID 0000.0001) // =======================================================
(PID.TID 0000.0001) // Begin MONITOR dynamic field statistics
(PID.TID 0000.0001) // =======================================================
(PID.TID 0000.0001) %MON time_tsnumber                =                    66
(PID.TID 0000.0001) %MON time_secondsf                =   5.9400000000000E+04
(PID.TID 0000.0001) %MON dynstat_eta_max              =   1.3818060563446E+00
(PID.TID 0000.0001) %MON dynstat_eta_min              =  -1.2549415615281E+00
(PID.TID 0000.0001) %MON dynstat_eta_mean             =   3.9173190372231E-02
(PID.TID 0000.0001) %MON dynstat_eta_sd               =   7.2636727492018E-02
(PID.TID 0000.0001) %MON dynstat_eta_del2             =   1.2164973172948E-03
(PID.TID 0000.0001) %MON dynstat_uvel_max             =   6.0724143546531E-01
(PID.TID 0000.0001) %MON dynstat_uvel_min             =  -6.8426714769304E-01
(PID.TID 0000.0001) %MON dynstat_uvel_mean            =   4.0976491133794E-06
(PID.TID 0000.0001) %MON dynstat_uvel_sd              =   6.2968312535606E-03
(PID.TID 0000.0001) %MON dynstat_uvel_del2            =   1.0636312755595E-04
(PID.TID 0000.0001) %MON dynstat_vvel_max             =   4.4435209820874E-01
(PID.TID 0000.0001) %MON dynstat_vvel_min             =  -5.8822928527270E-01
(PID.TID 0000.0001) %MON dynstat_vvel_mean            =   9.4133951599620E-04
(PID.TID 0000.0001) %MON dynstat_vvel_sd              =   6.4920038025237E-03
(PID.TID 0000.0001) %MON dynstat_vvel_del2            =   1.1033139646238E-04
(PID.TID 0000.0001) %MON dynstat_wvel_max             =   1.2975592167399E-04
(PID.TID 0000.0001) %MON dynstat_wvel_min             =  -2.2290819012648E-04
(PID.TID 0000.0001) %MON dynstat_wvel_mean            =  -2.7861142452861E-07
(PID.TID 0000.0001) %MON dynstat_wvel_sd              =   6.9264477366836E-06
(PID.TID 0000.0001) %MON dynstat_wvel_del2            =   7.3295693166084E-08
(PID.TID 0000.0001) %MON dynstat_theta_max            =   2.3379657058880E+01
(PID.TID 0000.0001) %MON dynstat_theta_min            =   1.6091132800107E+01
(PID.TID 0000.0001) %MON dynstat_theta_mean           =   1.9997902663424E+01
(PID.TID 0000.0001) %MON dynstat_theta_sd             =   2.9994943188257E-02
(PID.TID 0000.0001) %MON dynstat_theta_del2           =   5.2596224985617E-04
(PID.TID 0000.0001) %MON dynstat_salt_max             =   3.5150901890538E+01
(PID.TID 0000.0001) %MON dynstat_salt_min             =   2.4180382296128E+01
(PID.TID 0000.0001) %MON dynstat_salt_mean            =   3.4999622929413E+01
(PID.TID 0000.0001) %MON dynstat_salt_sd              =   3.8207801032511E-02
(PID.TID 0000.0001) %MON dynstat_salt_del2            =   1.3190268884735E-03
(PID.TID 0000.0001) %MON dynstat_sst_max              =   2.3379657058880E+01
(PID.TID 0000.0001) %MON dynstat_sst_min              =   1.6091132800107E+01
(PID.TID 0000.0001) %MON dynstat_sst_mean             =   2.0137101628947E+01
(PID.TID 0000.0001) %MON dynstat_sst_sd               =   2.7898844226494E-01
(PID.TID 0000.0001) %MON dynstat_sst_del2             =   6.1104458248839E-03
(PID.TID 0000.0001) %MON dynstat_sss_max              =   3.5150901890538E+01
(PID.TID 0000.0001) %MON dynstat_sss_min              =   2.4180382296128E+01
(PID.TID 0000.0001) %MON dynstat_sss_mean             =   3.4965514374697E+01
(PID.TID 0000.0001) %MON dynstat_sss_sd               =   4.6068817149684E-01
(PID.TID 0000.0001) %MON dynstat_sss_del2             =   1.7855556601043E-02
(PID.TID 0000.0001) %MON forcing_qnet_max             =   2.7912148437500E+03
(PID.TID 0000.0001) %MON forcing_qnet_min             =  -3.2763247070312E+03
(PID.TID 0000.0001) %MON forcing_qnet_mean            =  -1.7496484100128E+01
(PID.TID 0000.0001) %MON forcing_qnet_sd              =   4.7365878860111E+02
(PID.TID 0000.0001) %MON forcing_qnet_del2            =   6.0950548122495E+00
(PID.TID 0000.0001) %MON forcing_qsw_max              =   0.0000000000000E+00
(PID.TID 0000.0001) %MON forcing_qsw_min              =  -1.0713188782636E+02
(PID.TID 0000.0001) %MON forcing_qsw_mean             =  -1.6274354061621E+01
(PID.TID 0000.0001) %MON forcing_qsw_sd               =   2.8238252478424E+01
(PID.TID 0000.0001) %MON forcing_qsw_del2             =   2.2993787584138E-01
(PID.TID 0000.0001) %MON forcing_empmr_max            =   5.6580179370940E-03
(PID.TID 0000.0001) %MON forcing_empmr_min            =  -8.1330135464668E-02
(PID.TID 0000.0001) %MON forcing_empmr_mean           =  -3.8769354369587E-04
(PID.TID 0000.0001) %MON forcing_empmr_sd             =   3.6108808499259E-03
(PID.TID 0000.0001) %MON forcing_empmr_del2           =   1.4126503831727E-04
(PID.TID 0000.0001) %MON forcing_fu_max               =   5.9591354840457E-01
(PID.TID 0000.0001) %MON forcing_fu_min               =  -6.2577227980405E-01
(PID.TID 0000.0001) %MON forcing_fu_mean              =  -8.8981449496887E-04
(PID.TID 0000.0001) %MON forcing_fu_sd                =   8.7123285390735E-02
(PID.TID 0000.0001) %MON forcing_fu_del2              =   7.3205517063622E-04
(PID.TID 0000.0001) %MON forcing_fv_max               =   3.9639395804853E-01
(PID.TID 0000.0001) %MON forcing_fv_min               =  -4.1000605970239E-01
(PID.TID 0000.0001) %MON forcing_fv_mean              =  -7.1581057265057E-03
(PID.TID 0000.0001) %MON forcing_fv_sd                =   7.3811980191466E-02
(PID.TID 0000.0001) %MON forcing_fv_del2              =   6.1775714857378E-04
(PID.TID 0000.0001) %MON trAdv_CFL_u_max              =   2.0068555069188E-03
(PID.TID 0000.0001) %MON trAdv_CFL_v_max              =   1.7329218792518E-03
(PID.TID 0000.0001) %MON trAdv_CFL_w_max              =   3.2193130618871E-03
(PID.TID 0000.0001) %MON advcfl_uvel_max              =   2.0250084771472E-03
(PID.TID 0000.0001) %MON advcfl_vvel_max              =   1.7198096285579E-03
(PID.TID 0000.0001) %MON advcfl_wvel_max              =   5.6577485540639E-03
(PID.TID 0000.0001) %MON advcfl_W_hf_max              =   3.2193130618871E-03
(PID.TID 0000.0001) %MON pe_b_mean                    =   9.0729260680990E-06
(PID.TID 0000.0001) %MON ke_max                       =   2.2116453929595E-01
(PID.TID 0000.0001) %MON ke_mean                      =   3.8181626714004E-05
(PID.TID 0000.0001) %MON ke_vol                       =   1.3398165772919E+18
(PID.TID 0000.0001) %MON vort_r_min                   =  -4.1161725503001E-06
(PID.TID 0000.0001) %MON vort_r_max                   =   2.9784082190369E-06
(PID.TID 0000.0001) %MON vort_a_mean                  =  -2.0549865324846E-05
(PID.TID 0000.0001) %MON vort_a_sd                    =   7.5259485248819E-05
(PID.TID 0000.0001) %MON vort_p_mean                  =  -2.4783260083289E-05
(PID.TID 0000.0001) %MON vort_p_sd                    =   1.2810525889594E-04
(PID.TID 0000.0001) %MON surfExpan_theta_mean         =  -2.4134799119175E-07
(PID.TID 0000.0001) %MON surfExpan_salt_mean          =   1.5834829593561E-06
(PID.TID 0000.0001) // =======================================================
(PID.TID 0000.0001) // End MONITOR dynamic field statistics
(PID.TID 0000.0001) // =======================================================
(PID.TID 0000.0001) DEBUG_MSG: LEAVING S/R FORWARD_STEP
(PID.TID 0000.0001) DEBUG_MSG: ENTERED S/R FORWARD_STEP
(PID.TID 0000.0001) DEBUG_MSG: CALLING S/R LOAD_FIELDS_DRIVER
(PID.TID 0000.0001) DEBUG_MSG: ENTERED S/R LOAD_FIELDS_DRIVER
(PID.TID 0000.0001) DEBUG_MSG: CALLING S/R EXTERNAL_FIELDS_LOAD
(PID.TID 0000.0001) DEBUG_MSG: LEAVING S/R LOAD_FIELDS_DRIVER
(PID.TID 0000.0001) DEBUG_MSG: CALLING S/R DO_ATMOSPHERIC_PHYS
(PID.TID 0000.0001) DEBUG_MSG: ENTERED S/R DO_ATMOSPHERIC_PHYS
(PID.TID 0000.0001) DEBUG_MSG: LEAVING S/R DO_ATMOSPHERIC_PHYS
(PID.TID 0000.0001) DEBUG_MSG: CALLING S/R DO_OCEANIC_PHYS
(PID.TID 0000.0001) DEBUG_MSG: ENTERED S/R DO_OCEANIC_PHYS
(PID.TID 0000.0001) DEBUG_MSG: CALLING S/R EXTERNAL_FORCING_SURF
(PID.TID 0000.0001) DEBUG_MSG: CALLING S/R FIND_RHO_2D (xNr)
(PID.TID 0000.0001) DEBUG_MSG:                  ENTERING UPWARD K LOOP (bi=   1, bj=   1)
(PID.TID 0000.0001) DEBUG_MSG: CALLING S/R GRAD_SIGMA
(PID.TID 0000.0001) DEBUG_MSG: CALLING S/R CALC_IVDC
(PID.TID 0000.0001) DEBUG_MSG: CALLING S/R GRAD_SIGMA
(PID.TID 0000.0001) DEBUG_MSG: CALLING S/R CALC_IVDC
(PID.TID 0000.0001) DEBUG_MSG: CALLING S/R GRAD_SIGMA
(PID.TID 0000.0001) DEBUG_MSG: CALLING S/R CALC_IVDC
(PID.TID 0000.0001) DEBUG_MSG: CALLING S/R GRAD_SIGMA
(PID.TID 0000.0001) DEBUG_MSG: CALLING S/R CALC_IVDC
(PID.TID 0000.0001) DEBUG_MSG: CALLING S/R GRAD_SIGMA
(PID.TID 0000.0001) DEBUG_MSG: CALLING S/R CALC_IVDC
(PID.TID 0000.0001) DEBUG_MSG: CALLING S/R GRAD_SIGMA
(PID.TID 0000.0001) DEBUG_MSG: CALLING S/R CALC_IVDC
(PID.TID 0000.0001) DEBUG_MSG: CALLING S/R GRAD_SIGMA
(PID.TID 0000.0001) DEBUG_MSG: CALLING S/R CALC_IVDC
(PID.TID 0000.0001) DEBUG_MSG: CALLING S/R GRAD_SIGMA
(PID.TID 0000.0001) DEBUG_MSG: CALLING S/R CALC_IVDC
(PID.TID 0000.0001) DEBUG_MSG: CALLING S/R GRAD_SIGMA
(PID.TID 0000.0001) DEBUG_MSG: CALLING S/R CALC_IVDC
(PID.TID 0000.0001) DEBUG_MSG: CALLING S/R GRAD_SIGMA
(PID.TID 0000.0001) DEBUG_MSG: CALLING S/R CALC_IVDC
(PID.TID 0000.0001) DEBUG_MSG: CALLING S/R GRAD_SIGMA
(PID.TID 0000.0001) DEBUG_MSG: CALLING S/R CALC_IVDC
(PID.TID 0000.0001) DEBUG_MSG: CALLING S/R GRAD_SIGMA
(PID.TID 0000.0001) DEBUG_MSG: CALLING S/R CALC_IVDC
(PID.TID 0000.0001) DEBUG_MSG: CALLING S/R GRAD_SIGMA
(PID.TID 0000.0001) DEBUG_MSG: CALLING S/R CALC_IVDC
(PID.TID 0000.0001) DEBUG_MSG: CALLING S/R GRAD_SIGMA
(PID.TID 0000.0001) DEBUG_MSG: CALLING S/R CALC_IVDC
(PID.TID 0000.0001) DEBUG_MSG: CALLING S/R GRAD_SIGMA
(PID.TID 0000.0001) DEBUG_MSG: CALLING S/R CALC_IVDC
(PID.TID 0000.0001) DEBUG_MSG: CALLING S/R GRAD_SIGMA
(PID.TID 0000.0001) DEBUG_MSG: CALLING S/R GMREDI_CALC_TENSOR
(PID.TID 0000.0001) DEBUG_MSG: LEAVING S/R DO_OCEANIC_PHYS
(PID.TID 0000.0001) DEBUG_MSG: CALLING S/R DYNAMICS
(PID.TID 0000.0001) DEBUG_MSG: ENTERED S/R DYNAMICS
DEBUG_STATS_RL:                EtaN (DYNAMICS)  min= -1.25494156152806E+00
DEBUG_STATS_RL:                EtaN (DYNAMICS)  max=  1.38180605634462E+00
DEBUG_STATS_RL:                EtaN (DYNAMICS) mean=  4.10118612011742E-02
DEBUG_STATS_RL:                EtaN (DYNAMICS) S.D.=  7.91310121140689E-02
DEBUG_STATS_RL:                Uvel (DYNAMICS)  min= -6.84267147693043E-01
DEBUG_STATS_RL:                Uvel (DYNAMICS)  max=  6.07241435465308E-01
DEBUG_STATS_RL:                Uvel (DYNAMICS) mean= -3.94313943631358E-04
DEBUG_STATS_RL:                Uvel (DYNAMICS) S.D.=  1.84218564657258E-02
DEBUG_STATS_RL:                Vvel (DYNAMICS)  min= -5.88229285272695E-01
DEBUG_STATS_RL:                Vvel (DYNAMICS)  max=  4.44352098208735E-01
DEBUG_STATS_RL:                Vvel (DYNAMICS) mean= -5.56428277316105E-04
DEBUG_STATS_RL:                Vvel (DYNAMICS) S.D.=  1.92133420540800E-02
DEBUG_STATS_RL:                Wvel (DYNAMICS)  min= -2.22908190126476E-04
DEBUG_STATS_RL:                Wvel (DYNAMICS)  max=  1.29755921673992E-04
DEBUG_STATS_RL:                Wvel (DYNAMICS) mean= -3.08633989783870E-07
DEBUG_STATS_RL:                Wvel (DYNAMICS) S.D.=  7.20482354125692E-06
DEBUG_STATS_RL:               Theta (DYNAMICS)  min=  1.60911328001065E+01
DEBUG_STATS_RL:               Theta (DYNAMICS)  max=  2.33796570588803E+01
DEBUG_STATS_RL:               Theta (DYNAMICS) mean=  2.00028847381020E+01
DEBUG_STATS_RL:               Theta (DYNAMICS) S.D.=  9.07162125813505E-02
DEBUG_STATS_RL:                Salt (DYNAMICS)  min=  2.41803822961285E+01
DEBUG_STATS_RL:                Salt (DYNAMICS)  max=  3.51509018905379E+01
DEBUG_STATS_RL:                Salt (DYNAMICS) mean=  3.49970968803406E+01
DEBUG_STATS_RL:                Salt (DYNAMICS) S.D.=  1.23766576556650E-01
DEBUG_STATS_RL:                  Gu (DYNAMICS)  min= -6.99153311432935E-01
DEBUG_STATS_RL:                  Gu (DYNAMICS)  max=  6.06003667334736E-01
DEBUG_STATS_RL:                  Gu (DYNAMICS) mean= -3.86501420091407E-04
DEBUG_STATS_RL:                  Gu (DYNAMICS) S.D.=  1.85815728240333E-02
DEBUG_STATS_RL:                  Gv (DYNAMICS)  min= -5.79992040467166E-01
DEBUG_STATS_RL:                  Gv (DYNAMICS)  max=  4.16771229823853E-01
DEBUG_STATS_RL:                  Gv (DYNAMICS) mean= -5.69933473563858E-04
DEBUG_STATS_RL:                  Gv (DYNAMICS) S.D.=  1.91106910958612E-02
DEBUG_STATS_RL:               GuNm1 (DYNAMICS)  min= -3.03096107636190E-05
DEBUG_STATS_RL:               GuNm1 (DYNAMICS)  max=  2.89215538656657E-05
DEBUG_STATS_RL:               GuNm1 (DYNAMICS) mean=  9.78950860865342E-09
DEBUG_STATS_RL:               GuNm1 (DYNAMICS) S.D.=  1.33779450927369E-06
DEBUG_STATS_RL:               GvNm1 (DYNAMICS)  min= -3.25825273425847E-05
DEBUG_STATS_RL:               GvNm1 (DYNAMICS)  max=  2.27612456102228E-05
DEBUG_STATS_RL:               GvNm1 (DYNAMICS) mean= -1.64310172371179E-08
DEBUG_STATS_RL:               GvNm1 (DYNAMICS) S.D.=  1.20142700784803E-06
DEBUG_STATS_RL:               GtNm1 (DYNAMICS)  min= -7.23393975512594E-06
DEBUG_STATS_RL:               GtNm1 (DYNAMICS)  max=  4.78081531981971E-06
DEBUG_STATS_RL:               GtNm1 (DYNAMICS) mean=  5.24071211438416E-10
DEBUG_STATS_RL:               GtNm1 (DYNAMICS) S.D.=  8.50840824366628E-08
DEBUG_STATS_RL:               GsNm1 (DYNAMICS)  min= -1.58466709961340E-05
DEBUG_STATS_RL:               GsNm1 (DYNAMICS)  max=  2.18134034436517E-06
DEBUG_STATS_RL:               GsNm1 (DYNAMICS) mean= -4.56240951978643E-09
DEBUG_STATS_RL:               GsNm1 (DYNAMICS) S.D.=  1.84877723427219E-07
(PID.TID 0000.0001) DEBUG_MSG: LEAVING S/R DYNAMICS
DEBUG_STATS_RL:    cg2d_b (SOLVE_FOR_PRESSURE)  min= -1.72425207842588E+05
DEBUG_STATS_RL:    cg2d_b (SOLVE_FOR_PRESSURE)  max=  1.36701551080482E+05
DEBUG_STATS_RL:    cg2d_b (SOLVE_FOR_PRESSURE) mean= -4.01561844256690E+03
DEBUG_STATS_RL:    cg2d_b (SOLVE_FOR_PRESSURE) S.D.=  7.40378086369903E+03
 cg2d: Sum(rhs),rhsMax =  -1.02937579361072E+02  3.30307455596705E+01
(PID.TID 0000.0001)  cg2d: iter=     1 ; resid.=  3.47349690016265E-02
(PID.TID 0000.0001)  cg2d: iter=     2 ; resid.=  4.70401079665102E-03
(PID.TID 0000.0001)  cg2d: iter=     3 ; resid.=  1.17933004976545E-03
(PID.TID 0000.0001)  cg2d: iter=     4 ; resid.=  3.89879961298841E-04
(PID.TID 0000.0001)  cg2d: iter=     5 ; resid.=  1.04857118291916E-04
(PID.TID 0000.0001)  cg2d: iter=     6 ; resid.=  2.32442424268688E-05
(PID.TID 0000.0001)  cg2d: iter=     7 ; resid.=  4.86167554594012E-06
(PID.TID 0000.0001)  cg2d: iter=     8 ; resid.=  1.05582115708199E-06
(PID.TID 0000.0001)  cg2d: iter=     9 ; resid.=  2.88433129112815E-07
(PID.TID 0000.0001)  cg2d: iter=    10 ; resid.=  9.33009760134316E-08
DEBUG_STATS_RL:    cg2d_x (SOLVE_FOR_PRESSURE)  min= -1.44366099037613E+01
DEBUG_STATS_RL:    cg2d_x (SOLVE_FOR_PRESSURE)  max=  1.41242846231756E+01
DEBUG_STATS_RL:    cg2d_x (SOLVE_FOR_PRESSURE) mean=  4.05207829345153E-01
DEBUG_STATS_RL:    cg2d_x (SOLVE_FOR_PRESSURE) S.D.=  7.82106101969602E-01
(PID.TID 0000.0001)      cg2d_init_res =   2.97351528194903E-01
(PID.TID 0000.0001)      cg2d_iters(min,last) =      -1      10
(PID.TID 0000.0001)      cg2d_last_res =   9.33009760134316E-08
(PID.TID 0000.0001) DEBUG_MSG: CALLING S/R UPDATE_ETAH
(PID.TID 0000.0001) DEBUG_MSG: ENTERED S/R CALC_R_STAR
(PID.TID 0000.0001) DEBUG_MSG: LEAVING S/R CALC_R_STAR
(PID.TID 0000.0001) DEBUG_MSG: CALLING S/R DO_STAGGER_FIELDS_EXCH.
(PID.TID 0000.0001) DEBUG_MSG: CALLING S/R THERMODYNAMICS
(PID.TID 0000.0001) DEBUG_MSG: ENTERED S/R THERMODYNAMICS
(PID.TID 0000.0001) DEBUG_MSG: CALLING S/R TEMP_INTEGRATE
(PID.TID 0000.0001) DEBUG_MSG: CALLING S/R SALT_INTEGRATE
DEBUG_STATS_RL:          Uvel (THERMODYNAMICS)  min= -6.87485292418937E-01
DEBUG_STATS_RL:          Uvel (THERMODYNAMICS)  max=  5.92427464961521E-01
DEBUG_STATS_RL:          Uvel (THERMODYNAMICS) mean= -3.87965552205894E-04
DEBUG_STATS_RL:          Uvel (THERMODYNAMICS) S.D.=  1.85241872796612E-02
DEBUG_STATS_RL:          Vvel (THERMODYNAMICS)  min= -5.67535544098288E-01
DEBUG_STATS_RL:          Vvel (THERMODYNAMICS)  max=  3.74972011984119E-01
DEBUG_STATS_RL:          Vvel (THERMODYNAMICS) mean= -5.72040474486727E-04
DEBUG_STATS_RL:          Vvel (THERMODYNAMICS) S.D.=  1.90517486857361E-02
DEBUG_STATS_RL:          Wvel (THERMODYNAMICS)  min= -2.18156464417513E-04
DEBUG_STATS_RL:          Wvel (THERMODYNAMICS)  max=  1.31410117176833E-04
DEBUG_STATS_RL:          Wvel (THERMODYNAMICS) mean= -3.01486474207002E-07
DEBUG_STATS_RL:          Wvel (THERMODYNAMICS) S.D.=  7.15533453314737E-06
DEBUG_STATS_RL:         Theta (THERMODYNAMICS)  min=  1.60848432987036E+01
DEBUG_STATS_RL:         Theta (THERMODYNAMICS)  max=  2.34119358688731E+01
DEBUG_STATS_RL:         Theta (THERMODYNAMICS) mean=  2.00029864751917E+01
DEBUG_STATS_RL:         Theta (THERMODYNAMICS) S.D.=  9.12901112507589E-02
DEBUG_STATS_RL:          Salt (THERMODYNAMICS)  min=  2.41172642666200E+01
DEBUG_STATS_RL:          Salt (THERMODYNAMICS)  max=  3.51508825962536E+01
DEBUG_STATS_RL:          Salt (THERMODYNAMICS) mean=  3.49970740746923E+01
DEBUG_STATS_RL:          Salt (THERMODYNAMICS) S.D.=  1.24535738549522E-01
DEBUG_STATS_RL:         GtNm1 (THERMODYNAMICS)  min= -6.83547625431867E-06
DEBUG_STATS_RL:         GtNm1 (THERMODYNAMICS)  max=  4.78663685155840E-06
DEBUG_STATS_RL:         GtNm1 (THERMODYNAMICS) mean=  5.90946715415366E-10
DEBUG_STATS_RL:         GtNm1 (THERMODYNAMICS) S.D.=  8.16388269777962E-08
DEBUG_STATS_RL:         GsNm1 (THERMODYNAMICS)  min= -1.57733578157875E-05
DEBUG_STATS_RL:         GsNm1 (THERMODYNAMICS)  max=  2.18497042501400E-06
DEBUG_STATS_RL:         GsNm1 (THERMODYNAMICS) mean= -4.55119731193956E-09
DEBUG_STATS_RL:         GsNm1 (THERMODYNAMICS) S.D.=  1.83895524454662E-07
(PID.TID 0000.0001) DEBUG_MSG: LEAVING S/R THERMODYNAMICS
(PID.TID 0000.0001) // =======================================================
(PID.TID 0000.0001) // Begin MONITOR dynamic field statistics
(PID.TID 0000.0001) // =======================================================
(PID.TID 0000.0001) %MON time_tsnumber                =                    67
(PID.TID 0000.0001) %MON time_secondsf                =   6.0300000000000E+04
(PID.TID 0000.0001) %MON dynstat_eta_max              =   1.4397843663680E+00
(PID.TID 0000.0001) %MON dynstat_eta_min              =  -1.4716218097073E+00
(PID.TID 0000.0001) %MON dynstat_eta_mean             =   3.9508769257510E-02
(PID.TID 0000.0001) %MON dynstat_eta_sd               =   7.3379592178741E-02
(PID.TID 0000.0001) %MON dynstat_eta_del2             =   1.2709420536298E-03
(PID.TID 0000.0001) %MON dynstat_uvel_max             =   5.9242746496152E-01
(PID.TID 0000.0001) %MON dynstat_uvel_min             =  -6.8748529241894E-01
(PID.TID 0000.0001) %MON dynstat_uvel_mean            =   7.9801349108314E-06
(PID.TID 0000.0001) %MON dynstat_uvel_sd              =   6.3339093033097E-03
(PID.TID 0000.0001) %MON dynstat_uvel_del2            =   1.0496816232953E-04
(PID.TID 0000.0001) %MON dynstat_vvel_max             =   3.7497201198412E-01
(PID.TID 0000.0001) %MON dynstat_vvel_min             =  -5.6753554409829E-01
(PID.TID 0000.0001) %MON dynstat_vvel_mean            =   9.2901504138086E-04
(PID.TID 0000.0001) %MON dynstat_vvel_sd              =   6.4446232747098E-03
(PID.TID 0000.0001) %MON dynstat_vvel_del2            =   1.0754226087633E-04
(PID.TID 0000.0001) %MON dynstat_wvel_max             =   1.3141011717683E-04
(PID.TID 0000.0001) %MON dynstat_wvel_min             =  -2.1815646441751E-04
(PID.TID 0000.0001) %MON dynstat_wvel_mean            =  -2.6691063016327E-07
(PID.TID 0000.0001) %MON dynstat_wvel_sd              =   6.8846045763116E-06
(PID.TID 0000.0001) %MON dynstat_wvel_del2            =   7.2838349328614E-08
(PID.TID 0000.0001) %MON dynstat_theta_max            =   2.3411935868873E+01
(PID.TID 0000.0001) %MON dynstat_theta_min            =   1.6084843298704E+01
(PID.TID 0000.0001) %MON dynstat_theta_mean           =   1.9997903804250E+01
(PID.TID 0000.0001) %MON dynstat_theta_sd             =   3.0171175125869E-02
(PID.TID 0000.0001) %MON dynstat_theta_del2           =   5.2857785158050E-04
(PID.TID 0000.0001) %MON dynstat_salt_max             =   3.5150882596254E+01
(PID.TID 0000.0001) %MON dynstat_salt_min             =   2.4117264266620E+01
(PID.TID 0000.0001) %MON dynstat_salt_mean            =   3.4999619999798E+01
(PID.TID 0000.0001) %MON dynstat_salt_sd              =   3.8444311324975E-02
(PID.TID 0000.0001) %MON dynstat_salt_del2            =   1.3266482550691E-03
(PID.TID 0000.0001) %MON dynstat_sst_max              =   2.3411935868873E+01
(PID.TID 0000.0001) %MON dynstat_sst_min              =   1.6084843298704E+01
(PID.TID 0000.0001) %MON dynstat_sst_mean             =   2.0138651263064E+01
(PID.TID 0000.0001) %MON dynstat_sst_sd               =   2.8081096553718E-01
(PID.TID 0000.0001) %MON dynstat_sst_del2             =   6.1489456736594E-03
(PID.TID 0000.0001) %MON dynstat_sss_max              =   3.5150882596254E+01
(PID.TID 0000.0001) %MON dynstat_sss_min              =   2.4117264266620E+01
(PID.TID 0000.0001) %MON dynstat_sss_mean             =   3.4965243485851E+01
(PID.TID 0000.0001) %MON dynstat_sss_sd               =   4.6353673899720E-01
(PID.TID 0000.0001) %MON dynstat_sss_del2             =   1.7958329367328E-02
(PID.TID 0000.0001) %MON forcing_qnet_max             =   2.7545961914062E+03
(PID.TID 0000.0001) %MON forcing_qnet_min             =  -3.2293388671875E+03
(PID.TID 0000.0001) %MON forcing_qnet_mean            =  -1.7526550531032E+01
(PID.TID 0000.0001) %MON forcing_qnet_sd              =   4.7170552331753E+02
(PID.TID 0000.0001) %MON forcing_qnet_del2            =   6.0222614561669E+00
(PID.TID 0000.0001) %MON forcing_qsw_max              =   0.0000000000000E+00
(PID.TID 0000.0001) %MON forcing_qsw_min              =  -1.0771091128233E+02
(PID.TID 0000.0001) %MON forcing_qsw_mean             =  -1.6394181891973E+01
(PID.TID 0000.0001) %MON forcing_qsw_sd               =   2.8407872539761E+01
(PID.TID 0000.0001) %MON forcing_qsw_del2             =   2.3261008295671E-01
(PID.TID 0000.0001) %MON forcing_empmr_max            =   5.5997627787292E-03
(PID.TID 0000.0001) %MON forcing_empmr_min            =  -8.0491885542870E-02
(PID.TID 0000.0001) %MON forcing_empmr_mean           =  -3.8591571807130E-04
(PID.TID 0000.0001) %MON forcing_empmr_sd             =   3.5744539376964E-03
(PID.TID 0000.0001) %MON forcing_empmr_del2           =   1.3980967057039E-04
(PID.TID 0000.0001) %MON forcing_fu_max               =   5.9307697299204E-01
(PID.TID 0000.0001) %MON forcing_fu_min               =  -6.2741757247739E-01
(PID.TID 0000.0001) %MON forcing_fu_mean              =  -8.1656547168113E-04
(PID.TID 0000.0001) %MON forcing_fu_sd                =   8.6995415549274E-02
(PID.TID 0000.0001) %MON forcing_fu_del2              =   7.3107344765696E-04
(PID.TID 0000.0001) %MON forcing_fv_max               =   3.9572837960754E-01
(PID.TID 0000.0001) %MON forcing_fv_min               =  -4.0643011102634E-01
(PID.TID 0000.0001) %MON forcing_fv_mean              =  -7.1808512178658E-03
(PID.TID 0000.0001) %MON forcing_fv_sd                =   7.3451619292703E-02
(PID.TID 0000.0001) %MON forcing_fv_del2              =   6.1446767474868E-04
(PID.TID 0000.0001) %MON trAdv_CFL_u_max              =   2.0182603886738E-03
(PID.TID 0000.0001) %MON trAdv_CFL_v_max              =   1.6742047391428E-03
(PID.TID 0000.0001) %MON trAdv_CFL_w_max              =   3.1853492785775E-03
(PID.TID 0000.0001) %MON advcfl_uvel_max              =   1.9978385532682E-03
(PID.TID 0000.0001) %MON advcfl_vvel_max              =   1.6593072084750E-03
(PID.TID 0000.0001) %MON advcfl_wvel_max              =   5.5994355160257E-03
(PID.TID 0000.0001) %MON advcfl_W_hf_max              =   3.1853492785775E-03
(PID.TID 0000.0001) %MON pe_b_mean                    =   9.2526009133327E-06
(PID.TID 0000.0001) %MON ke_max                       =   2.1757350459149E-01
(PID.TID 0000.0001) %MON ke_mean                      =   3.8101794949283E-05
(PID.TID 0000.0001) %MON ke_vol                       =   1.3398166999672E+18
(PID.TID 0000.0001) %MON vort_r_min                   =  -4.0546461097180E-06
(PID.TID 0000.0001) %MON vort_r_max                   =   2.8203524681782E-06
(PID.TID 0000.0001) %MON vort_a_mean                  =  -2.0549865324846E-05
(PID.TID 0000.0001) %MON vort_a_sd                    =   7.5259483507776E-05
(PID.TID 0000.0001) %MON vort_p_mean                  =  -2.4783257659272E-05
(PID.TID 0000.0001) %MON vort_p_sd                    =   1.2810526229291E-04
(PID.TID 0000.0001) %MON surfExpan_theta_mean         =  -2.6967882912468E-07
(PID.TID 0000.0001) %MON surfExpan_salt_mean          =   1.5797858018978E-06
(PID.TID 0000.0001) // =======================================================
(PID.TID 0000.0001) // End MONITOR dynamic field statistics
(PID.TID 0000.0001) // =======================================================
 Computing Diagnostic #     81  oceTAUX      Counter:       1   Parms: UU      U1      
           Vector  Mate for  oceTAUX      Diagnostic #     82  oceTAUY  exists 
(PID.TID 0000.0001)  MDS_WRITE_FIELD: it,rec,kS,kL,kH=      66    -1  32   1   1 file=oceTAUX.0000000066
 Computing Diagnostic #     82  oceTAUY      Counter:       1   Parms: VV      U1      
           Vector  Mate for  oceTAUY      Diagnostic #     81  oceTAUX  exists 
(PID.TID 0000.0001)  MDS_WRITE_FIELD: it,rec,kS,kL,kH=      66    -1  32   1   1 file=oceTAUY.0000000066
 Computing Diagnostic #     85  oceFWflx     Counter:       1   Parms: SM      U1      
(PID.TID 0000.0001)  MDS_WRITE_FIELD: it,rec,kS,kL,kH=      66    -1  32   1   1 file=oceFWflx.0000000066
 Computing Diagnostic #     86  oceSflux     Counter:       1   Parms: SM      U1      
(PID.TID 0000.0001)  MDS_WRITE_FIELD: it,rec,kS,kL,kH=      66    -1  32   1   1 file=oceSflux.0000000066
 Computing Diagnostic #     87  oceQnet      Counter:       1   Parms: SM      U1      
(PID.TID 0000.0001)  MDS_WRITE_FIELD: it,rec,kS,kL,kH=      66    -1  32   1   1 file=oceQnet.0000000066
 Computing Diagnostic #     88  oceQsw       Counter:       1   Parms: SM      U1      
(PID.TID 0000.0001)  MDS_WRITE_FIELD: it,rec,kS,kL,kH=      66    -1  32   1   1 file=oceQsw.0000000066
 Computing Diagnostic #     27  SALT         Counter:       1   Parms: SMR     MR      
(PID.TID 0000.0001)  MDS_WRITE_FIELD: it,rec,kS,kL,kH=      66    -1  32   1   1 file=SSS.0000000066
 Computing Diagnostic #     26  THETA        Counter:       1   Parms: SMR     MR      
(PID.TID 0000.0001)  MDS_WRITE_FIELD: it,rec,kS,kL,kH=      66    -1  32   1   1 file=SST.0000000066
 Computing Diagnostic #     45  UVELMASS     Counter:       1   Parms: UUr     MR      
           Vector  Mate for  UVELMASS     Diagnostic #     46  VVELMASS exists 
(PID.TID 0000.0001)  MDS_WRITE_FIELD: it,rec,kS,kL,kH=      66    -1  32   1   1 file=UVEL1.0000000066
 Computing Diagnostic #     46  VVELMASS     Counter:       1   Parms: VVr     MR      
           Vector  Mate for  VVELMASS     Diagnostic #     45  UVELMASS exists 
(PID.TID 0000.0001)  MDS_WRITE_FIELD: it,rec,kS,kL,kH=      66    -1  32   1   1 file=VVEL1.0000000066
 Computing Diagnostic #     83  atmPload     Counter:       1   Parms: SM      U1      
(PID.TID 0000.0001)  MDS_WRITE_FIELD: it,rec,kS,kL,kH=      66    -1  32   1   1 file=atmPload.0000000066
(PID.TID 0000.0001)  write diagnostics summary to file: diagnostics_status.0000000067.txt
(PID.TID 0000.0001) DEBUG_MSG: LEAVING S/R FORWARD_STEP
(PID.TID 0000.0001) DEBUG_MSG: ENTERED S/R FORWARD_STEP
(PID.TID 0000.0001) DEBUG_MSG: CALLING S/R LOAD_FIELDS_DRIVER
(PID.TID 0000.0001) DEBUG_MSG: ENTERED S/R LOAD_FIELDS_DRIVER
(PID.TID 0000.0001) DEBUG_MSG: CALLING S/R EXTERNAL_FIELDS_LOAD
(PID.TID 0000.0001) DEBUG_MSG: LEAVING S/R LOAD_FIELDS_DRIVER
(PID.TID 0000.0001) DEBUG_MSG: CALLING S/R DO_ATMOSPHERIC_PHYS
(PID.TID 0000.0001) DEBUG_MSG: ENTERED S/R DO_ATMOSPHERIC_PHYS
(PID.TID 0000.0001) DEBUG_MSG: LEAVING S/R DO_ATMOSPHERIC_PHYS
(PID.TID 0000.0001) DEBUG_MSG: CALLING S/R DO_OCEANIC_PHYS
(PID.TID 0000.0001) DEBUG_MSG: ENTERED S/R DO_OCEANIC_PHYS
(PID.TID 0000.0001) DEBUG_MSG: CALLING S/R EXTERNAL_FORCING_SURF
(PID.TID 0000.0001) DEBUG_MSG: CALLING S/R FIND_RHO_2D (xNr)
(PID.TID 0000.0001) DEBUG_MSG:                  ENTERING UPWARD K LOOP (bi=   1, bj=   1)
(PID.TID 0000.0001) DEBUG_MSG: CALLING S/R GRAD_SIGMA
(PID.TID 0000.0001) DEBUG_MSG: CALLING S/R CALC_IVDC
(PID.TID 0000.0001) DEBUG_MSG: CALLING S/R GRAD_SIGMA
(PID.TID 0000.0001) DEBUG_MSG: CALLING S/R CALC_IVDC
(PID.TID 0000.0001) DEBUG_MSG: CALLING S/R GRAD_SIGMA
(PID.TID 0000.0001) DEBUG_MSG: CALLING S/R CALC_IVDC
(PID.TID 0000.0001) DEBUG_MSG: CALLING S/R GRAD_SIGMA
(PID.TID 0000.0001) DEBUG_MSG: CALLING S/R CALC_IVDC
(PID.TID 0000.0001) DEBUG_MSG: CALLING S/R GRAD_SIGMA
(PID.TID 0000.0001) DEBUG_MSG: CALLING S/R CALC_IVDC
(PID.TID 0000.0001) DEBUG_MSG: CALLING S/R GRAD_SIGMA
(PID.TID 0000.0001) DEBUG_MSG: CALLING S/R CALC_IVDC
(PID.TID 0000.0001) DEBUG_MSG: CALLING S/R GRAD_SIGMA
(PID.TID 0000.0001) DEBUG_MSG: CALLING S/R CALC_IVDC
(PID.TID 0000.0001) DEBUG_MSG: CALLING S/R GRAD_SIGMA
(PID.TID 0000.0001) DEBUG_MSG: CALLING S/R CALC_IVDC
(PID.TID 0000.0001) DEBUG_MSG: CALLING S/R GRAD_SIGMA
(PID.TID 0000.0001) DEBUG_MSG: CALLING S/R CALC_IVDC
(PID.TID 0000.0001) DEBUG_MSG: CALLING S/R GRAD_SIGMA
(PID.TID 0000.0001) DEBUG_MSG: CALLING S/R CALC_IVDC
(PID.TID 0000.0001) DEBUG_MSG: CALLING S/R GRAD_SIGMA
(PID.TID 0000.0001) DEBUG_MSG: CALLING S/R CALC_IVDC
(PID.TID 0000.0001) DEBUG_MSG: CALLING S/R GRAD_SIGMA
(PID.TID 0000.0001) DEBUG_MSG: CALLING S/R CALC_IVDC
(PID.TID 0000.0001) DEBUG_MSG: CALLING S/R GRAD_SIGMA
(PID.TID 0000.0001) DEBUG_MSG: CALLING S/R CALC_IVDC
(PID.TID 0000.0001) DEBUG_MSG: CALLING S/R GRAD_SIGMA
(PID.TID 0000.0001) DEBUG_MSG: CALLING S/R CALC_IVDC
(PID.TID 0000.0001) DEBUG_MSG: CALLING S/R GRAD_SIGMA
(PID.TID 0000.0001) DEBUG_MSG: CALLING S/R CALC_IVDC
(PID.TID 0000.0001) DEBUG_MSG: CALLING S/R GRAD_SIGMA
(PID.TID 0000.0001) DEBUG_MSG: CALLING S/R GMREDI_CALC_TENSOR
(PID.TID 0000.0001) DEBUG_MSG: LEAVING S/R DO_OCEANIC_PHYS
(PID.TID 0000.0001) DEBUG_MSG: CALLING S/R DYNAMICS
(PID.TID 0000.0001) DEBUG_MSG: ENTERED S/R DYNAMICS
DEBUG_STATS_RL:                EtaN (DYNAMICS)  min= -1.47162180970726E+00
DEBUG_STATS_RL:                EtaN (DYNAMICS)  max=  1.43978436636804E+00
DEBUG_STATS_RL:                EtaN (DYNAMICS) mean=  4.13055886310981E-02
DEBUG_STATS_RL:                EtaN (DYNAMICS) S.D.=  7.97253929092411E-02
DEBUG_STATS_RL:                Uvel (DYNAMICS)  min= -6.87485292418937E-01
DEBUG_STATS_RL:                Uvel (DYNAMICS)  max=  5.92427464961521E-01
DEBUG_STATS_RL:                Uvel (DYNAMICS) mean= -3.87965552205894E-04
DEBUG_STATS_RL:                Uvel (DYNAMICS) S.D.=  1.85241872796612E-02
DEBUG_STATS_RL:                Vvel (DYNAMICS)  min= -5.67535544098288E-01
DEBUG_STATS_RL:                Vvel (DYNAMICS)  max=  3.74972011984119E-01
DEBUG_STATS_RL:                Vvel (DYNAMICS) mean= -5.72040474486727E-04
DEBUG_STATS_RL:                Vvel (DYNAMICS) S.D.=  1.90517486857361E-02
DEBUG_STATS_RL:                Wvel (DYNAMICS)  min= -2.18156464417513E-04
DEBUG_STATS_RL:                Wvel (DYNAMICS)  max=  1.31410117176833E-04
DEBUG_STATS_RL:                Wvel (DYNAMICS) mean= -3.01486474207002E-07
DEBUG_STATS_RL:                Wvel (DYNAMICS) S.D.=  7.15533453314737E-06
DEBUG_STATS_RL:               Theta (DYNAMICS)  min=  1.60848432987036E+01
DEBUG_STATS_RL:               Theta (DYNAMICS)  max=  2.34119358688731E+01
DEBUG_STATS_RL:               Theta (DYNAMICS) mean=  2.00029864751917E+01
DEBUG_STATS_RL:               Theta (DYNAMICS) S.D.=  9.12901112507589E-02
DEBUG_STATS_RL:                Salt (DYNAMICS)  min=  2.41172642666200E+01
DEBUG_STATS_RL:                Salt (DYNAMICS)  max=  3.51508825962536E+01
DEBUG_STATS_RL:                Salt (DYNAMICS) mean=  3.49970740746923E+01
DEBUG_STATS_RL:                Salt (DYNAMICS) S.D.=  1.24535738549522E-01
DEBUG_STATS_RL:                  Gu (DYNAMICS)  min= -7.01910724846813E-01
DEBUG_STATS_RL:                  Gu (DYNAMICS)  max=  5.72350097685148E-01
DEBUG_STATS_RL:                  Gu (DYNAMICS) mean= -3.82528454220668E-04
DEBUG_STATS_RL:                  Gu (DYNAMICS) S.D.=  1.87061192126635E-02
DEBUG_STATS_RL:                  Gv (DYNAMICS)  min= -5.59692000273741E-01
DEBUG_STATS_RL:                  Gv (DYNAMICS)  max=  3.49323179551724E-01
DEBUG_STATS_RL:                  Gv (DYNAMICS) mean= -5.85001930157765E-04
DEBUG_STATS_RL:                  Gv (DYNAMICS) S.D.=  1.89731093463930E-02
DEBUG_STATS_RL:               GuNm1 (DYNAMICS)  min= -2.98918822643120E-05
DEBUG_STATS_RL:               GuNm1 (DYNAMICS)  max=  2.76461592671286E-05
DEBUG_STATS_RL:               GuNm1 (DYNAMICS) mean=  7.12222083248286E-09
DEBUG_STATS_RL:               GuNm1 (DYNAMICS) S.D.=  1.31465961451798E-06
DEBUG_STATS_RL:               GvNm1 (DYNAMICS)  min= -3.07673317307032E-05
DEBUG_STATS_RL:               GvNm1 (DYNAMICS)  max=  2.39699982613554E-05
DEBUG_STATS_RL:               GvNm1 (DYNAMICS) mean= -1.59051830653924E-08
DEBUG_STATS_RL:               GvNm1 (DYNAMICS) S.D.=  1.20819826294143E-06
DEBUG_STATS_RL:               GtNm1 (DYNAMICS)  min= -6.83547625431867E-06
DEBUG_STATS_RL:               GtNm1 (DYNAMICS)  max=  4.78663685155840E-06
DEBUG_STATS_RL:               GtNm1 (DYNAMICS) mean=  5.90946715415366E-10
DEBUG_STATS_RL:               GtNm1 (DYNAMICS) S.D.=  8.16388269777962E-08
DEBUG_STATS_RL:               GsNm1 (DYNAMICS)  min= -1.57733578157875E-05
DEBUG_STATS_RL:               GsNm1 (DYNAMICS)  max=  2.18497042501400E-06
DEBUG_STATS_RL:               GsNm1 (DYNAMICS) mean= -4.55119731193956E-09
DEBUG_STATS_RL:               GsNm1 (DYNAMICS) S.D.=  1.83895524454662E-07
(PID.TID 0000.0001) DEBUG_MSG: LEAVING S/R DYNAMICS
DEBUG_STATS_RL:    cg2d_b (SOLVE_FOR_PRESSURE)  min= -1.78954402678815E+05
DEBUG_STATS_RL:    cg2d_b (SOLVE_FOR_PRESSURE)  max=  1.53782966065816E+05
DEBUG_STATS_RL:    cg2d_b (SOLVE_FOR_PRESSURE) mean= -4.04945047678799E+03
DEBUG_STATS_RL:    cg2d_b (SOLVE_FOR_PRESSURE) S.D.=  7.49791375656785E+03
 cg2d: Sum(rhs),rhsMax =  -1.00017495180195E+02  3.42815149572739E+01
(PID.TID 0000.0001)  cg2d: iter=     1 ; resid.=  3.37597121648728E-02
(PID.TID 0000.0001)  cg2d: iter=     2 ; resid.=  4.45720832331875E-03
(PID.TID 0000.0001)  cg2d: iter=     3 ; resid.=  1.09396564755365E-03
(PID.TID 0000.0001)  cg2d: iter=     4 ; resid.=  3.68606723702799E-04
(PID.TID 0000.0001)  cg2d: iter=     5 ; resid.=  9.83960840208104E-05
(PID.TID 0000.0001)  cg2d: iter=     6 ; resid.=  2.16048356810954E-05
(PID.TID 0000.0001)  cg2d: iter=     7 ; resid.=  4.86258489940017E-06
(PID.TID 0000.0001)  cg2d: iter=     8 ; resid.=  1.16757827061436E-06
(PID.TID 0000.0001)  cg2d: iter=     9 ; resid.=  3.47913489565152E-07
(PID.TID 0000.0001)  cg2d: iter=    10 ; resid.=  1.10414967534834E-07
(PID.TID 0000.0001)  cg2d: iter=    11 ; resid.=  2.73939350661685E-08
DEBUG_STATS_RL:    cg2d_x (SOLVE_FOR_PRESSURE)  min= -1.62456736838674E+01
DEBUG_STATS_RL:    cg2d_x (SOLVE_FOR_PRESSURE)  max=  1.46572655805615E+01
DEBUG_STATS_RL:    cg2d_x (SOLVE_FOR_PRESSURE) mean=  4.07960208406008E-01
DEBUG_STATS_RL:    cg2d_x (SOLVE_FOR_PRESSURE) S.D.=  7.89402801924645E-01
(PID.TID 0000.0001)      cg2d_init_res =   2.74398022772346E-01
(PID.TID 0000.0001)      cg2d_iters(min,last) =      -1      11
(PID.TID 0000.0001)      cg2d_last_res =   2.73939350661685E-08
(PID.TID 0000.0001) DEBUG_MSG: CALLING S/R UPDATE_ETAH
(PID.TID 0000.0001) DEBUG_MSG: ENTERED S/R CALC_R_STAR
(PID.TID 0000.0001) DEBUG_MSG: LEAVING S/R CALC_R_STAR
(PID.TID 0000.0001) DEBUG_MSG: CALLING S/R DO_STAGGER_FIELDS_EXCH.
(PID.TID 0000.0001) DEBUG_MSG: CALLING S/R THERMODYNAMICS
(PID.TID 0000.0001) DEBUG_MSG: ENTERED S/R THERMODYNAMICS
(PID.TID 0000.0001) DEBUG_MSG: CALLING S/R TEMP_INTEGRATE
(PID.TID 0000.0001) DEBUG_MSG: CALLING S/R SALT_INTEGRATE
DEBUG_STATS_RL:          Uvel (THERMODYNAMICS)  min= -6.87314890180003E-01
DEBUG_STATS_RL:          Uvel (THERMODYNAMICS)  max=  5.83654798818070E-01
DEBUG_STATS_RL:          Uvel (THERMODYNAMICS) mean= -3.84658337002682E-04
DEBUG_STATS_RL:          Uvel (THERMODYNAMICS) S.D.=  1.86382010866552E-02
DEBUG_STATS_RL:          Vvel (THERMODYNAMICS)  min= -5.43922418218365E-01
DEBUG_STATS_RL:          Vvel (THERMODYNAMICS)  max=  3.17873493133475E-01
DEBUG_STATS_RL:          Vvel (THERMODYNAMICS) mean= -5.88624054243360E-04
DEBUG_STATS_RL:          Vvel (THERMODYNAMICS) S.D.=  1.89078448695013E-02
DEBUG_STATS_RL:          Wvel (THERMODYNAMICS)  min= -2.13142642574135E-04
DEBUG_STATS_RL:          Wvel (THERMODYNAMICS)  max=  1.34667242026724E-04
DEBUG_STATS_RL:          Wvel (THERMODYNAMICS) mean= -2.93214555875781E-07
DEBUG_STATS_RL:          Wvel (THERMODYNAMICS) S.D.=  7.10841214071537E-06
DEBUG_STATS_RL:         Theta (THERMODYNAMICS)  min=  1.60789000711710E+01
DEBUG_STATS_RL:         Theta (THERMODYNAMICS)  max=  2.34438118091542E+01
DEBUG_STATS_RL:         Theta (THERMODYNAMICS) mean=  2.00030870249416E+01
DEBUG_STATS_RL:         Theta (THERMODYNAMICS) S.D.=  9.18589283941331E-02
DEBUG_STATS_RL:          Salt (THERMODYNAMICS)  min=  2.40555666495666E+01
DEBUG_STATS_RL:          Salt (THERMODYNAMICS)  max=  3.51508645981458E+01
DEBUG_STATS_RL:          Salt (THERMODYNAMICS) mean=  3.49970513759656E+01
DEBUG_STATS_RL:          Salt (THERMODYNAMICS) S.D.=  1.25288617671373E-01
DEBUG_STATS_RL:         GtNm1 (THERMODYNAMICS)  min= -6.41441613197307E-06
DEBUG_STATS_RL:         GtNm1 (THERMODYNAMICS)  max=  4.78981693107899E-06
DEBUG_STATS_RL:         GtNm1 (THERMODYNAMICS) mean=  6.62200133355071E-10
DEBUG_STATS_RL:         GtNm1 (THERMODYNAMICS) S.D.=  7.79407919321313E-08
DEBUG_STATS_RL:         GsNm1 (THERMODYNAMICS)  min= -1.56981291548144E-05
DEBUG_STATS_RL:         GsNm1 (THERMODYNAMICS)  max=  2.19093591143049E-06
DEBUG_STATS_RL:         GsNm1 (THERMODYNAMICS) mean= -4.53784386838196E-09
DEBUG_STATS_RL:         GsNm1 (THERMODYNAMICS) S.D.=  1.82845899481155E-07
(PID.TID 0000.0001) DEBUG_MSG: LEAVING S/R THERMODYNAMICS
(PID.TID 0000.0001) // =======================================================
(PID.TID 0000.0001) // Begin MONITOR dynamic field statistics
(PID.TID 0000.0001) // =======================================================
(PID.TID 0000.0001) %MON time_tsnumber                =                    68
(PID.TID 0000.0001) %MON time_secondsf                =   6.1200000000000E+04
(PID.TID 0000.0001) %MON dynstat_eta_max              =   1.4941147377725E+00
(PID.TID 0000.0001) %MON dynstat_eta_min              =  -1.6560319747255E+00
(PID.TID 0000.0001) %MON dynstat_eta_mean             =   3.9841635054565E-02
(PID.TID 0000.0001) %MON dynstat_eta_sd               =   7.4286248282819E-02
(PID.TID 0000.0001) %MON dynstat_eta_del2             =   1.3310296112600E-03
(PID.TID 0000.0001) %MON dynstat_uvel_max             =   5.8365479881807E-01
(PID.TID 0000.0001) %MON dynstat_uvel_min             =  -6.8731489018000E-01
(PID.TID 0000.0001) %MON dynstat_uvel_mean            =   1.0061020883941E-05
(PID.TID 0000.0001) %MON dynstat_uvel_sd              =   6.3726407030816E-03
(PID.TID 0000.0001) %MON dynstat_uvel_del2            =   1.0347093108582E-04
(PID.TID 0000.0001) %MON dynstat_vvel_max             =   3.1787349313348E-01
(PID.TID 0000.0001) %MON dynstat_vvel_min             =  -5.4392241821836E-01
(PID.TID 0000.0001) %MON dynstat_vvel_mean            =   9.1354731585627E-04
(PID.TID 0000.0001) %MON dynstat_vvel_sd              =   6.4029940056574E-03
(PID.TID 0000.0001) %MON dynstat_vvel_del2            =   1.0463287324393E-04
(PID.TID 0000.0001) %MON dynstat_wvel_max             =   1.3466724202672E-04
(PID.TID 0000.0001) %MON dynstat_wvel_min             =  -2.1314264257413E-04
(PID.TID 0000.0001) %MON dynstat_wvel_mean            =  -2.5489785286603E-07
(PID.TID 0000.0001) %MON dynstat_wvel_sd              =   6.8444758979269E-06
(PID.TID 0000.0001) %MON dynstat_wvel_del2            =   7.2444763930196E-08
(PID.TID 0000.0001) %MON dynstat_theta_max            =   2.3443811809154E+01
(PID.TID 0000.0001) %MON dynstat_theta_min            =   1.6078900071171E+01
(PID.TID 0000.0001) %MON dynstat_theta_mean           =   1.9997904933290E+01
(PID.TID 0000.0001) %MON dynstat_theta_sd             =   3.0346092577513E-02
(PID.TID 0000.0001) %MON dynstat_theta_del2           =   5.3105858856953E-04
(PID.TID 0000.0001) %MON dynstat_salt_max             =   3.5150864598146E+01
(PID.TID 0000.0001) %MON dynstat_salt_min             =   2.4055566649567E+01
(PID.TID 0000.0001) %MON dynstat_salt_mean            =   3.4999617100803E+01
(PID.TID 0000.0001) %MON dynstat_salt_sd              =   3.8675742973007E-02
(PID.TID 0000.0001) %MON dynstat_salt_del2            =   1.3340867780245E-03
(PID.TID 0000.0001) %MON dynstat_sst_max              =   2.3443811809154E+01
(PID.TID 0000.0001) %MON dynstat_sst_min              =   1.6078900071171E+01
(PID.TID 0000.0001) %MON dynstat_sst_mean             =   2.0140158943293E+01
(PID.TID 0000.0001) %MON dynstat_sst_sd               =   2.8262229771366E-01
(PID.TID 0000.0001) %MON dynstat_sst_del2             =   6.1855232589027E-03
(PID.TID 0000.0001) %MON dynstat_sss_max              =   3.5150864598146E+01
(PID.TID 0000.0001) %MON dynstat_sss_min              =   2.4055566649567E+01
(PID.TID 0000.0001) %MON dynstat_sss_mean             =   3.4964964611301E+01
(PID.TID 0000.0001) %MON dynstat_sss_sd               =   4.6632374325233E-01
(PID.TID 0000.0001) %MON dynstat_sss_del2             =   1.8058614604323E-02
(PID.TID 0000.0001) %MON forcing_qnet_max             =   2.7174467773438E+03
(PID.TID 0000.0001) %MON forcing_qnet_min             =  -3.1829619140625E+03
(PID.TID 0000.0001) %MON forcing_qnet_mean            =  -1.7326718580497E+01
(PID.TID 0000.0001) %MON forcing_qnet_sd              =   4.7016331148207E+02
(PID.TID 0000.0001) %MON forcing_qnet_del2            =   5.9974397676962E+00
(PID.TID 0000.0001) %MON forcing_qsw_max              =   0.0000000000000E+00
(PID.TID 0000.0001) %MON forcing_qsw_min              =  -1.0818510141522E+02
(PID.TID 0000.0001) %MON forcing_qsw_mean             =  -1.6484366302837E+01
(PID.TID 0000.0001) %MON forcing_qsw_sd               =   2.8503451965896E+01
(PID.TID 0000.0001) %MON forcing_qsw_del2             =   2.3477665686324E-01
(PID.TID 0000.0001) %MON forcing_empmr_max            =   5.5420980788767E-03
(PID.TID 0000.0001) %MON forcing_empmr_min            =  -7.9662866890430E-02
(PID.TID 0000.0001) %MON forcing_empmr_mean           =  -3.8279566661315E-04
(PID.TID 0000.0001) %MON forcing_empmr_sd             =   3.5384947494000E-03
(PID.TID 0000.0001) %MON forcing_empmr_del2           =   1.3837080078280E-04
(PID.TID 0000.0001) %MON forcing_fu_max               =   5.9626991502232E-01
(PID.TID 0000.0001) %MON forcing_fu_min               =  -6.2776386346350E-01
(PID.TID 0000.0001) %MON forcing_fu_mean              =  -7.1664048440283E-04
(PID.TID 0000.0001) %MON forcing_fu_sd                =   8.6871103574112E-02
(PID.TID 0000.0001) %MON forcing_fu_del2              =   7.2980509818869E-04
(PID.TID 0000.0001) %MON forcing_fv_max               =   3.9161942558519E-01
(PID.TID 0000.0001) %MON forcing_fv_min               =  -4.0216034795546E-01
(PID.TID 0000.0001) %MON forcing_fv_mean              =  -7.2290894425101E-03
(PID.TID 0000.0001) %MON forcing_fv_sd                =   7.3118846754419E-02
(PID.TID 0000.0001) %MON forcing_fv_del2              =   6.1119742005259E-04
(PID.TID 0000.0001) %MON trAdv_CFL_u_max              =   2.0197805241951E-03
(PID.TID 0000.0001) %MON trAdv_CFL_v_max              =   1.6065623658967E-03
(PID.TID 0000.0001) %MON trAdv_CFL_w_max              =   3.1404336087451E-03
(PID.TID 0000.0001) %MON advcfl_uvel_max              =   1.9973433628019E-03
(PID.TID 0000.0001) %MON advcfl_vvel_max              =   1.5902693651283E-03
(PID.TID 0000.0001) %MON advcfl_wvel_max              =   5.5417646532473E-03
(PID.TID 0000.0001) %MON advcfl_W_hf_max              =   3.1404336087451E-03
(PID.TID 0000.0001) %MON pe_b_mean                    =   9.4661405686015E-06
(PID.TID 0000.0001) %MON ke_max                       =   2.1195322216188E-01
(PID.TID 0000.0001) %MON ke_mean                      =   3.8066611066180E-05
(PID.TID 0000.0001) %MON ke_vol                       =   1.3398168220799E+18
(PID.TID 0000.0001) %MON vort_r_min                   =  -3.9715091031767E-06
(PID.TID 0000.0001) %MON vort_r_max                   =   2.6381849389999E-06
(PID.TID 0000.0001) %MON vort_a_mean                  =  -2.0549865324846E-05
(PID.TID 0000.0001) %MON vort_a_sd                    =   7.5259481023533E-05
(PID.TID 0000.0001) %MON vort_p_mean                  =  -2.4783255261273E-05
(PID.TID 0000.0001) %MON vort_p_sd                    =   1.2810526100857E-04
(PID.TID 0000.0001) %MON surfExpan_theta_mean         =  -2.9824563086503E-07
(PID.TID 0000.0001) %MON surfExpan_salt_mean          =   1.5756492795619E-06
(PID.TID 0000.0001) // =======================================================
(PID.TID 0000.0001) // End MONITOR dynamic field statistics
(PID.TID 0000.0001) // =======================================================
(PID.TID 0000.0001) DEBUG_MSG: LEAVING S/R FORWARD_STEP
(PID.TID 0000.0001) DEBUG_MSG: ENTERED S/R FORWARD_STEP
(PID.TID 0000.0001) DEBUG_MSG: CALLING S/R LOAD_FIELDS_DRIVER
(PID.TID 0000.0001) DEBUG_MSG: ENTERED S/R LOAD_FIELDS_DRIVER
(PID.TID 0000.0001) DEBUG_MSG: CALLING S/R EXTERNAL_FIELDS_LOAD
(PID.TID 0000.0001) DEBUG_MSG: LEAVING S/R LOAD_FIELDS_DRIVER
(PID.TID 0000.0001) DEBUG_MSG: CALLING S/R DO_ATMOSPHERIC_PHYS
(PID.TID 0000.0001) DEBUG_MSG: ENTERED S/R DO_ATMOSPHERIC_PHYS
(PID.TID 0000.0001) DEBUG_MSG: LEAVING S/R DO_ATMOSPHERIC_PHYS
(PID.TID 0000.0001) DEBUG_MSG: CALLING S/R DO_OCEANIC_PHYS
(PID.TID 0000.0001) DEBUG_MSG: ENTERED S/R DO_OCEANIC_PHYS
(PID.TID 0000.0001) DEBUG_MSG: CALLING S/R EXTERNAL_FORCING_SURF
(PID.TID 0000.0001) DEBUG_MSG: CALLING S/R FIND_RHO_2D (xNr)
(PID.TID 0000.0001) DEBUG_MSG:                  ENTERING UPWARD K LOOP (bi=   1, bj=   1)
(PID.TID 0000.0001) DEBUG_MSG: CALLING S/R GRAD_SIGMA
(PID.TID 0000.0001) DEBUG_MSG: CALLING S/R CALC_IVDC
(PID.TID 0000.0001) DEBUG_MSG: CALLING S/R GRAD_SIGMA
(PID.TID 0000.0001) DEBUG_MSG: CALLING S/R CALC_IVDC
(PID.TID 0000.0001) DEBUG_MSG: CALLING S/R GRAD_SIGMA
(PID.TID 0000.0001) DEBUG_MSG: CALLING S/R CALC_IVDC
(PID.TID 0000.0001) DEBUG_MSG: CALLING S/R GRAD_SIGMA
(PID.TID 0000.0001) DEBUG_MSG: CALLING S/R CALC_IVDC
(PID.TID 0000.0001) DEBUG_MSG: CALLING S/R GRAD_SIGMA
(PID.TID 0000.0001) DEBUG_MSG: CALLING S/R CALC_IVDC
(PID.TID 0000.0001) DEBUG_MSG: CALLING S/R GRAD_SIGMA
(PID.TID 0000.0001) DEBUG_MSG: CALLING S/R CALC_IVDC
(PID.TID 0000.0001) DEBUG_MSG: CALLING S/R GRAD_SIGMA
(PID.TID 0000.0001) DEBUG_MSG: CALLING S/R CALC_IVDC
(PID.TID 0000.0001) DEBUG_MSG: CALLING S/R GRAD_SIGMA
(PID.TID 0000.0001) DEBUG_MSG: CALLING S/R CALC_IVDC
(PID.TID 0000.0001) DEBUG_MSG: CALLING S/R GRAD_SIGMA
(PID.TID 0000.0001) DEBUG_MSG: CALLING S/R CALC_IVDC
(PID.TID 0000.0001) DEBUG_MSG: CALLING S/R GRAD_SIGMA
(PID.TID 0000.0001) DEBUG_MSG: CALLING S/R CALC_IVDC
(PID.TID 0000.0001) DEBUG_MSG: CALLING S/R GRAD_SIGMA
(PID.TID 0000.0001) DEBUG_MSG: CALLING S/R CALC_IVDC
(PID.TID 0000.0001) DEBUG_MSG: CALLING S/R GRAD_SIGMA
(PID.TID 0000.0001) DEBUG_MSG: CALLING S/R CALC_IVDC
(PID.TID 0000.0001) DEBUG_MSG: CALLING S/R GRAD_SIGMA
(PID.TID 0000.0001) DEBUG_MSG: CALLING S/R CALC_IVDC
(PID.TID 0000.0001) DEBUG_MSG: CALLING S/R GRAD_SIGMA
(PID.TID 0000.0001) DEBUG_MSG: CALLING S/R CALC_IVDC
(PID.TID 0000.0001) DEBUG_MSG: CALLING S/R GRAD_SIGMA
(PID.TID 0000.0001) DEBUG_MSG: CALLING S/R CALC_IVDC
(PID.TID 0000.0001) DEBUG_MSG: CALLING S/R GRAD_SIGMA
(PID.TID 0000.0001) DEBUG_MSG: CALLING S/R GMREDI_CALC_TENSOR
(PID.TID 0000.0001) DEBUG_MSG: LEAVING S/R DO_OCEANIC_PHYS
(PID.TID 0000.0001) DEBUG_MSG: CALLING S/R DYNAMICS
(PID.TID 0000.0001) DEBUG_MSG: ENTERED S/R DYNAMICS
DEBUG_STATS_RL:                EtaN (DYNAMICS)  min= -1.65603197472549E+00
DEBUG_STATS_RL:                EtaN (DYNAMICS)  max=  1.49411473777248E+00
DEBUG_STATS_RL:                EtaN (DYNAMICS) mean=  4.15861577923422E-02
DEBUG_STATS_RL:                EtaN (DYNAMICS) S.D.=  8.04691948356158E-02
DEBUG_STATS_RL:                Uvel (DYNAMICS)  min= -6.87314890180003E-01
DEBUG_STATS_RL:                Uvel (DYNAMICS)  max=  5.83654798818070E-01
DEBUG_STATS_RL:                Uvel (DYNAMICS) mean= -3.84658337002682E-04
DEBUG_STATS_RL:                Uvel (DYNAMICS) S.D.=  1.86382010866552E-02
DEBUG_STATS_RL:                Vvel (DYNAMICS)  min= -5.43922418218365E-01
DEBUG_STATS_RL:                Vvel (DYNAMICS)  max=  3.17873493133475E-01
DEBUG_STATS_RL:                Vvel (DYNAMICS) mean= -5.88624054243360E-04
DEBUG_STATS_RL:                Vvel (DYNAMICS) S.D.=  1.89078448695013E-02
DEBUG_STATS_RL:                Wvel (DYNAMICS)  min= -2.13142642574135E-04
DEBUG_STATS_RL:                Wvel (DYNAMICS)  max=  1.34667242026724E-04
DEBUG_STATS_RL:                Wvel (DYNAMICS) mean= -2.93214555875781E-07
DEBUG_STATS_RL:                Wvel (DYNAMICS) S.D.=  7.10841214071537E-06
DEBUG_STATS_RL:               Theta (DYNAMICS)  min=  1.60789000711710E+01
DEBUG_STATS_RL:               Theta (DYNAMICS)  max=  2.34438118091542E+01
DEBUG_STATS_RL:               Theta (DYNAMICS) mean=  2.00030870249416E+01
DEBUG_STATS_RL:               Theta (DYNAMICS) S.D.=  9.18589283941331E-02
DEBUG_STATS_RL:                Salt (DYNAMICS)  min=  2.40555666495666E+01
DEBUG_STATS_RL:                Salt (DYNAMICS)  max=  3.51508645981458E+01
DEBUG_STATS_RL:                Salt (DYNAMICS) mean=  3.49970513759656E+01
DEBUG_STATS_RL:                Salt (DYNAMICS) S.D.=  1.25288617671373E-01
DEBUG_STATS_RL:                  Gu (DYNAMICS)  min= -7.01150576918399E-01
DEBUG_STATS_RL:                  Gu (DYNAMICS)  max=  5.62918742960600E-01
DEBUG_STATS_RL:                  Gu (DYNAMICS) mean= -3.81644924524297E-04
DEBUG_STATS_RL:                  Gu (DYNAMICS) S.D.=  1.88374333697815E-02
DEBUG_STATS_RL:                  Gv (DYNAMICS)  min= -5.36137145483349E-01
DEBUG_STATS_RL:                  Gv (DYNAMICS)  max=  3.03851052289716E-01
DEBUG_STATS_RL:                  Gv (DYNAMICS) mean= -6.00717774183343E-04
DEBUG_STATS_RL:                  Gv (DYNAMICS) S.D.=  1.88545305704068E-02
DEBUG_STATS_RL:               GuNm1 (DYNAMICS)  min= -2.92424287950246E-05
DEBUG_STATS_RL:               GuNm1 (DYNAMICS)  max=  2.60624509447836E-05
DEBUG_STATS_RL:               GuNm1 (DYNAMICS) mean=  4.44351847700251E-09
DEBUG_STATS_RL:               GuNm1 (DYNAMICS) S.D.=  1.28875237386489E-06
DEBUG_STATS_RL:               GvNm1 (DYNAMICS)  min= -2.85518498940869E-05
DEBUG_STATS_RL:               GvNm1 (DYNAMICS)  max=  2.50714509980956E-05
DEBUG_STATS_RL:               GvNm1 (DYNAMICS) mean= -1.51233104508735E-08
DEBUG_STATS_RL:               GvNm1 (DYNAMICS) S.D.=  1.21703184170763E-06
DEBUG_STATS_RL:               GtNm1 (DYNAMICS)  min= -6.41441613197307E-06
DEBUG_STATS_RL:               GtNm1 (DYNAMICS)  max=  4.78981693107899E-06
DEBUG_STATS_RL:               GtNm1 (DYNAMICS) mean=  6.62200133355071E-10
DEBUG_STATS_RL:               GtNm1 (DYNAMICS) S.D.=  7.79407919321313E-08
DEBUG_STATS_RL:               GsNm1 (DYNAMICS)  min= -1.56981291548144E-05
DEBUG_STATS_RL:               GsNm1 (DYNAMICS)  max=  2.19093591143049E-06
DEBUG_STATS_RL:               GsNm1 (DYNAMICS) mean= -4.53784386838196E-09
DEBUG_STATS_RL:               GsNm1 (DYNAMICS) S.D.=  1.82845899481155E-07
(PID.TID 0000.0001) DEBUG_MSG: LEAVING S/R DYNAMICS
DEBUG_STATS_RL:    cg2d_b (SOLVE_FOR_PRESSURE)  min= -1.84989331704418E+05
DEBUG_STATS_RL:    cg2d_b (SOLVE_FOR_PRESSURE)  max=  1.67739638285300E+05
DEBUG_STATS_RL:    cg2d_b (SOLVE_FOR_PRESSURE) mean= -4.08312404919265E+03
DEBUG_STATS_RL:    cg2d_b (SOLVE_FOR_PRESSURE) S.D.=  7.60157390122572E+03
 cg2d: Sum(rhs),rhsMax =  -9.75591842575455E+01  3.54376000077693E+01
(PID.TID 0000.0001)  cg2d: iter=     1 ; resid.=  3.29651962070969E-02
(PID.TID 0000.0001)  cg2d: iter=     2 ; resid.=  4.24417505967413E-03
(PID.TID 0000.0001)  cg2d: iter=     3 ; resid.=  9.97017468528231E-04
(PID.TID 0000.0001)  cg2d: iter=     4 ; resid.=  3.38740433086310E-04
(PID.TID 0000.0001)  cg2d: iter=     5 ; resid.=  9.23713684970685E-05
(PID.TID 0000.0001)  cg2d: iter=     6 ; resid.=  2.03249440820552E-05
(PID.TID 0000.0001)  cg2d: iter=     7 ; resid.=  4.81402583778673E-06
(PID.TID 0000.0001)  cg2d: iter=     8 ; resid.=  1.19580940589982E-06
(PID.TID 0000.0001)  cg2d: iter=     9 ; resid.=  3.50561158670890E-07
(PID.TID 0000.0001)  cg2d: iter=    10 ; resid.=  1.10935460351109E-07
(PID.TID 0000.0001)  cg2d: iter=    11 ; resid.=  2.74101178253227E-08
DEBUG_STATS_RL:    cg2d_x (SOLVE_FOR_PRESSURE)  min= -1.77244405261657E+01
DEBUG_STATS_RL:    cg2d_x (SOLVE_FOR_PRESSURE)  max=  1.51497401667363E+01
DEBUG_STATS_RL:    cg2d_x (SOLVE_FOR_PRESSURE) mean=  4.10607677165623E-01
DEBUG_STATS_RL:    cg2d_x (SOLVE_FOR_PRESSURE) S.D.=  7.97172131907686E-01
(PID.TID 0000.0001)      cg2d_init_res =   2.53591137181322E-01
(PID.TID 0000.0001)      cg2d_iters(min,last) =      -1      11
(PID.TID 0000.0001)      cg2d_last_res =   2.74101178253227E-08
(PID.TID 0000.0001) DEBUG_MSG: CALLING S/R UPDATE_ETAH
(PID.TID 0000.0001) DEBUG_MSG: ENTERED S/R CALC_R_STAR
(PID.TID 0000.0001) DEBUG_MSG: LEAVING S/R CALC_R_STAR
(PID.TID 0000.0001) DEBUG_MSG: CALLING S/R DO_STAGGER_FIELDS_EXCH.
(PID.TID 0000.0001) DEBUG_MSG: CALLING S/R THERMODYNAMICS
(PID.TID 0000.0001) DEBUG_MSG: ENTERED S/R THERMODYNAMICS
(PID.TID 0000.0001) DEBUG_MSG: CALLING S/R TEMP_INTEGRATE
(PID.TID 0000.0001) DEBUG_MSG: CALLING S/R SALT_INTEGRATE
DEBUG_STATS_RL:          Uvel (THERMODYNAMICS)  min= -6.83632523854877E-01
DEBUG_STATS_RL:          Uvel (THERMODYNAMICS)  max=  5.68194258147744E-01
DEBUG_STATS_RL:          Uvel (THERMODYNAMICS) mean= -3.84528958533426E-04
DEBUG_STATS_RL:          Uvel (THERMODYNAMICS) S.D.=  1.87645577810209E-02
DEBUG_STATS_RL:          Vvel (THERMODYNAMICS)  min= -5.17359231468773E-01
DEBUG_STATS_RL:          Vvel (THERMODYNAMICS)  max=  3.02916947213028E-01
DEBUG_STATS_RL:          Vvel (THERMODYNAMICS) mean= -6.05603210889504E-04
DEBUG_STATS_RL:          Vvel (THERMODYNAMICS) S.D.=  1.87898447019408E-02
DEBUG_STATS_RL:          Wvel (THERMODYNAMICS)  min= -2.07906355459318E-04
DEBUG_STATS_RL:          Wvel (THERMODYNAMICS)  max=  1.37676692493116E-04
DEBUG_STATS_RL:          Wvel (THERMODYNAMICS) mean= -2.87565403260777E-07
DEBUG_STATS_RL:          Wvel (THERMODYNAMICS) S.D.=  7.06365916649070E-06
DEBUG_STATS_RL:         Theta (THERMODYNAMICS)  min=  1.60733815248345E+01
DEBUG_STATS_RL:         Theta (THERMODYNAMICS)  max=  2.34752965977613E+01
DEBUG_STATS_RL:         Theta (THERMODYNAMICS) mean=  2.00031879301043E+01
DEBUG_STATS_RL:         Theta (THERMODYNAMICS) S.D.=  9.24259865717263E-02
DEBUG_STATS_RL:          Salt (THERMODYNAMICS)  min=  2.39952513128810E+01
DEBUG_STATS_RL:          Salt (THERMODYNAMICS)  max=  3.51508499803671E+01
DEBUG_STATS_RL:          Salt (THERMODYNAMICS) mean=  3.49970289611610E+01
DEBUG_STATS_RL:          Salt (THERMODYNAMICS) S.D.=  1.26025918847256E-01
DEBUG_STATS_RL:         GtNm1 (THERMODYNAMICS)  min= -5.91576642827705E-06
DEBUG_STATS_RL:         GtNm1 (THERMODYNAMICS)  max=  4.79003682588588E-06
DEBUG_STATS_RL:         GtNm1 (THERMODYNAMICS) mean=  7.35212826279468E-10
DEBUG_STATS_RL:         GtNm1 (THERMODYNAMICS) S.D.=  7.41563186853227E-08
DEBUG_STATS_RL:         GsNm1 (THERMODYNAMICS)  min= -1.56210492464365E-05
DEBUG_STATS_RL:         GsNm1 (THERMODYNAMICS)  max=  2.19937911915044E-06
DEBUG_STATS_RL:         GsNm1 (THERMODYNAMICS) mean= -4.52245318185035E-09
DEBUG_STATS_RL:         GsNm1 (THERMODYNAMICS) S.D.=  1.81737497573968E-07
(PID.TID 0000.0001) DEBUG_MSG: LEAVING S/R THERMODYNAMICS
(PID.TID 0000.0001) // =======================================================
(PID.TID 0000.0001) // Begin MONITOR dynamic field statistics
(PID.TID 0000.0001) // =======================================================
(PID.TID 0000.0001) %MON time_tsnumber                =                    69
(PID.TID 0000.0001) %MON time_secondsf                =   6.2100000000000E+04
(PID.TID 0000.0001) %MON dynstat_eta_max              =   1.5443160207336E+00
(PID.TID 0000.0001) %MON dynstat_eta_min              =  -1.8067727334965E+00
(PID.TID 0000.0001) %MON dynstat_eta_mean             =   4.0172941781347E-02
(PID.TID 0000.0001) %MON dynstat_eta_sd               =   7.5254843312759E-02
(PID.TID 0000.0001) %MON dynstat_eta_del2             =   1.3910158789883E-03
(PID.TID 0000.0001) %MON dynstat_uvel_max             =   5.6819425814774E-01
(PID.TID 0000.0001) %MON dynstat_uvel_min             =  -6.8363252385488E-01
(PID.TID 0000.0001) %MON dynstat_uvel_mean            =   1.0316310598570E-05
(PID.TID 0000.0001) %MON dynstat_uvel_sd              =   6.4128165963880E-03
(PID.TID 0000.0001) %MON dynstat_uvel_del2            =   1.0191108963241E-04
(PID.TID 0000.0001) %MON dynstat_vvel_max             =   3.0291694721303E-01
(PID.TID 0000.0001) %MON dynstat_vvel_min             =  -5.1735923146877E-01
(PID.TID 0000.0001) %MON dynstat_vvel_mean            =   8.9524999994157E-04
(PID.TID 0000.0001) %MON dynstat_vvel_sd              =   6.3693185841223E-03
(PID.TID 0000.0001) %MON dynstat_vvel_del2            =   1.0176812692023E-04
(PID.TID 0000.0001) %MON dynstat_wvel_max             =   1.3767669249312E-04
(PID.TID 0000.0001) %MON dynstat_wvel_min             =  -2.0790635545932E-04
(PID.TID 0000.0001) %MON dynstat_wvel_mean            =  -2.4420660603305E-07
(PID.TID 0000.0001) %MON dynstat_wvel_sd              =   6.8062407985053E-06
(PID.TID 0000.0001) %MON dynstat_wvel_del2            =   7.2110256657102E-08
(PID.TID 0000.0001) %MON dynstat_theta_max            =   2.3475296597761E+01
(PID.TID 0000.0001) %MON dynstat_theta_min            =   1.6073381524835E+01
(PID.TID 0000.0001) %MON dynstat_theta_mean           =   1.9997906159890E+01
(PID.TID 0000.0001) %MON dynstat_theta_sd             =   3.0521148142482E-02
(PID.TID 0000.0001) %MON dynstat_theta_del2           =   5.3347738403349E-04
(PID.TID 0000.0001) %MON dynstat_salt_max             =   3.5150849980367E+01
(PID.TID 0000.0001) %MON dynstat_salt_min             =   2.3995251312881E+01
(PID.TID 0000.0001) %MON dynstat_salt_mean            =   3.4999614229737E+01
(PID.TID 0000.0001) %MON dynstat_salt_sd              =   3.8902368612868E-02
(PID.TID 0000.0001) %MON dynstat_salt_del2            =   1.3413465587726E-03
(PID.TID 0000.0001) %MON dynstat_sst_max              =   2.3475296597761E+01
(PID.TID 0000.0001) %MON dynstat_sst_min              =   1.6073381524835E+01
(PID.TID 0000.0001) %MON dynstat_sst_mean             =   2.0141679325226E+01
(PID.TID 0000.0001) %MON dynstat_sst_sd               =   2.8442444295617E-01
(PID.TID 0000.0001) %MON dynstat_sst_del2             =   6.2214339977170E-03
(PID.TID 0000.0001) %MON dynstat_sss_max              =   3.5150849980367E+01
(PID.TID 0000.0001) %MON dynstat_sss_min              =   2.3995251312881E+01
(PID.TID 0000.0001) %MON dynstat_sss_mean             =   3.4964693332254E+01
(PID.TID 0000.0001) %MON dynstat_sss_sd               =   4.6905401823640E-01
(PID.TID 0000.0001) %MON dynstat_sss_del2             =   1.8156492259599E-02
(PID.TID 0000.0001) %MON forcing_qnet_max             =   2.6807707519531E+03
(PID.TID 0000.0001) %MON forcing_qnet_min             =  -3.1382587890625E+03
(PID.TID 0000.0001) %MON forcing_qnet_mean            =  -1.8979716802820E+01
(PID.TID 0000.0001) %MON forcing_qnet_sd              =   4.6893919650357E+02
(PID.TID 0000.0001) %MON forcing_qnet_del2            =   6.0110424002076E+00
(PID.TID 0000.0001) %MON forcing_qsw_max              =   0.0000000000000E+00
(PID.TID 0000.0001) %MON forcing_qsw_min              =  -1.0888958463927E+02
(PID.TID 0000.0001) %MON forcing_qsw_mean             =  -1.6826812362912E+01
(PID.TID 0000.0001) %MON forcing_qsw_sd               =   2.8728467518123E+01
(PID.TID 0000.0001) %MON forcing_qsw_del2             =   2.3720731221281E-01
(PID.TID 0000.0001) %MON forcing_empmr_max            =   5.4850238375366E-03
(PID.TID 0000.0001) %MON forcing_empmr_min            =  -7.8842237591743E-02
(PID.TID 0000.0001) %MON forcing_empmr_mean           =  -3.8100273579916E-04
(PID.TID 0000.0001) %MON forcing_empmr_sd             =   3.5030435059661E-03
(PID.TID 0000.0001) %MON forcing_empmr_del2           =   1.3695275899644E-04
(PID.TID 0000.0001) %MON forcing_fu_max               =   5.9487484380542E-01
(PID.TID 0000.0001) %MON forcing_fu_min               =  -6.3129819644504E-01
(PID.TID 0000.0001) %MON forcing_fu_mean              =  -6.3614274047405E-04
(PID.TID 0000.0001) %MON forcing_fu_sd                =   8.6738772608627E-02
(PID.TID 0000.0001) %MON forcing_fu_del2              =   7.2917986642924E-04
(PID.TID 0000.0001) %MON forcing_fv_max               =   3.9021865076564E-01
(PID.TID 0000.0001) %MON forcing_fv_min               =  -3.9778556198402E-01
(PID.TID 0000.0001) %MON forcing_fv_mean              =  -7.2393256259801E-03
(PID.TID 0000.0001) %MON forcing_fv_sd                =   7.2800090686703E-02
(PID.TID 0000.0001) %MON forcing_fv_del2              =   6.0834735586807E-04
(PID.TID 0000.0001) %MON trAdv_CFL_u_max              =   2.0109970295301E-03
(PID.TID 0000.0001) %MON trAdv_CFL_v_max              =   1.5298784575131E-03
(PID.TID 0000.0001) %MON trAdv_CFL_w_max              =   3.0848451577741E-03
(PID.TID 0000.0001) %MON advcfl_uvel_max              =   1.9866423725514E-03
(PID.TID 0000.0001) %MON advcfl_vvel_max              =   1.5126064104252E-03
(PID.TID 0000.0001) %MON advcfl_wvel_max              =   5.4846773976865E-03
(PID.TID 0000.0001) %MON advcfl_W_hf_max              =   3.0848451577741E-03
(PID.TID 0000.0001) %MON pe_b_mean                    =   9.6944126036282E-06
(PID.TID 0000.0001) %MON ke_max                       =   2.0437330369684E-01
(PID.TID 0000.0001) %MON ke_mean                      =   3.8087753219554E-05
(PID.TID 0000.0001) %MON ke_vol                       =   1.3398169432054E+18
(PID.TID 0000.0001) %MON vort_r_min                   =  -3.8669424869834E-06
(PID.TID 0000.0001) %MON vort_r_max                   =   2.6129055607985E-06
(PID.TID 0000.0001) %MON vort_a_mean                  =  -2.0549865324846E-05
(PID.TID 0000.0001) %MON vort_a_sd                    =   7.5259477873441E-05
(PID.TID 0000.0001) %MON vort_p_mean                  =  -2.4783252891984E-05
(PID.TID 0000.0001) %MON vort_p_sd                    =   1.2810525516322E-04
(PID.TID 0000.0001) %MON surfExpan_theta_mean         =  -3.2663555572341E-07
(PID.TID 0000.0001) %MON surfExpan_salt_mean          =   1.5711575333900E-06
(PID.TID 0000.0001) // =======================================================
(PID.TID 0000.0001) // End MONITOR dynamic field statistics
(PID.TID 0000.0001) // =======================================================
(PID.TID 0000.0001) DEBUG_MSG: LEAVING S/R FORWARD_STEP
(PID.TID 0000.0001) DEBUG_MSG: ENTERED S/R FORWARD_STEP
(PID.TID 0000.0001) DEBUG_MSG: CALLING S/R LOAD_FIELDS_DRIVER
(PID.TID 0000.0001) DEBUG_MSG: ENTERED S/R LOAD_FIELDS_DRIVER
(PID.TID 0000.0001) DEBUG_MSG: CALLING S/R EXTERNAL_FIELDS_LOAD
(PID.TID 0000.0001) DEBUG_MSG: LEAVING S/R LOAD_FIELDS_DRIVER
(PID.TID 0000.0001) DEBUG_MSG: CALLING S/R DO_ATMOSPHERIC_PHYS
(PID.TID 0000.0001) DEBUG_MSG: ENTERED S/R DO_ATMOSPHERIC_PHYS
(PID.TID 0000.0001) DEBUG_MSG: LEAVING S/R DO_ATMOSPHERIC_PHYS
(PID.TID 0000.0001) DEBUG_MSG: CALLING S/R DO_OCEANIC_PHYS
(PID.TID 0000.0001) DEBUG_MSG: ENTERED S/R DO_OCEANIC_PHYS
(PID.TID 0000.0001) DEBUG_MSG: CALLING S/R EXTERNAL_FORCING_SURF
(PID.TID 0000.0001) DEBUG_MSG: CALLING S/R FIND_RHO_2D (xNr)
(PID.TID 0000.0001) DEBUG_MSG:                  ENTERING UPWARD K LOOP (bi=   1, bj=   1)
(PID.TID 0000.0001) DEBUG_MSG: CALLING S/R GRAD_SIGMA
(PID.TID 0000.0001) DEBUG_MSG: CALLING S/R CALC_IVDC
(PID.TID 0000.0001) DEBUG_MSG: CALLING S/R GRAD_SIGMA
(PID.TID 0000.0001) DEBUG_MSG: CALLING S/R CALC_IVDC
(PID.TID 0000.0001) DEBUG_MSG: CALLING S/R GRAD_SIGMA
(PID.TID 0000.0001) DEBUG_MSG: CALLING S/R CALC_IVDC
(PID.TID 0000.0001) DEBUG_MSG: CALLING S/R GRAD_SIGMA
(PID.TID 0000.0001) DEBUG_MSG: CALLING S/R CALC_IVDC
(PID.TID 0000.0001) DEBUG_MSG: CALLING S/R GRAD_SIGMA
(PID.TID 0000.0001) DEBUG_MSG: CALLING S/R CALC_IVDC
(PID.TID 0000.0001) DEBUG_MSG: CALLING S/R GRAD_SIGMA
(PID.TID 0000.0001) DEBUG_MSG: CALLING S/R CALC_IVDC
(PID.TID 0000.0001) DEBUG_MSG: CALLING S/R GRAD_SIGMA
(PID.TID 0000.0001) DEBUG_MSG: CALLING S/R CALC_IVDC
(PID.TID 0000.0001) DEBUG_MSG: CALLING S/R GRAD_SIGMA
(PID.TID 0000.0001) DEBUG_MSG: CALLING S/R CALC_IVDC
(PID.TID 0000.0001) DEBUG_MSG: CALLING S/R GRAD_SIGMA
(PID.TID 0000.0001) DEBUG_MSG: CALLING S/R CALC_IVDC
(PID.TID 0000.0001) DEBUG_MSG: CALLING S/R GRAD_SIGMA
(PID.TID 0000.0001) DEBUG_MSG: CALLING S/R CALC_IVDC
(PID.TID 0000.0001) DEBUG_MSG: CALLING S/R GRAD_SIGMA
(PID.TID 0000.0001) DEBUG_MSG: CALLING S/R CALC_IVDC
(PID.TID 0000.0001) DEBUG_MSG: CALLING S/R GRAD_SIGMA
(PID.TID 0000.0001) DEBUG_MSG: CALLING S/R CALC_IVDC
(PID.TID 0000.0001) DEBUG_MSG: CALLING S/R GRAD_SIGMA
(PID.TID 0000.0001) DEBUG_MSG: CALLING S/R CALC_IVDC
(PID.TID 0000.0001) DEBUG_MSG: CALLING S/R GRAD_SIGMA
(PID.TID 0000.0001) DEBUG_MSG: CALLING S/R CALC_IVDC
(PID.TID 0000.0001) DEBUG_MSG: CALLING S/R GRAD_SIGMA
(PID.TID 0000.0001) DEBUG_MSG: CALLING S/R CALC_IVDC
(PID.TID 0000.0001) DEBUG_MSG: CALLING S/R GRAD_SIGMA
(PID.TID 0000.0001) DEBUG_MSG: CALLING S/R GMREDI_CALC_TENSOR
(PID.TID 0000.0001) DEBUG_MSG: LEAVING S/R DO_OCEANIC_PHYS
(PID.TID 0000.0001) DEBUG_MSG: CALLING S/R DYNAMICS
(PID.TID 0000.0001) DEBUG_MSG: ENTERED S/R DYNAMICS
DEBUG_STATS_RL:                EtaN (DYNAMICS)  min= -1.80677273349653E+00
DEBUG_STATS_RL:                EtaN (DYNAMICS)  max=  1.54431602073364E+00
DEBUG_STATS_RL:                EtaN (DYNAMICS) mean=  4.18560323006877E-02
DEBUG_STATS_RL:                EtaN (DYNAMICS) S.D.=  8.12611754682380E-02
DEBUG_STATS_RL:                Uvel (DYNAMICS)  min= -6.83632523854877E-01
DEBUG_STATS_RL:                Uvel (DYNAMICS)  max=  5.68194258147744E-01
DEBUG_STATS_RL:                Uvel (DYNAMICS) mean= -3.84528958533426E-04
DEBUG_STATS_RL:                Uvel (DYNAMICS) S.D.=  1.87645577810209E-02
DEBUG_STATS_RL:                Vvel (DYNAMICS)  min= -5.17359231468773E-01
DEBUG_STATS_RL:                Vvel (DYNAMICS)  max=  3.02916947213028E-01
DEBUG_STATS_RL:                Vvel (DYNAMICS) mean= -6.05603210889504E-04
DEBUG_STATS_RL:                Vvel (DYNAMICS) S.D.=  1.87898447019408E-02
DEBUG_STATS_RL:                Wvel (DYNAMICS)  min= -2.07906355459318E-04
DEBUG_STATS_RL:                Wvel (DYNAMICS)  max=  1.37676692493116E-04
DEBUG_STATS_RL:                Wvel (DYNAMICS) mean= -2.87565403260777E-07
DEBUG_STATS_RL:                Wvel (DYNAMICS) S.D.=  7.06365916649070E-06
DEBUG_STATS_RL:               Theta (DYNAMICS)  min=  1.60733815248345E+01
DEBUG_STATS_RL:               Theta (DYNAMICS)  max=  2.34752965977613E+01
DEBUG_STATS_RL:               Theta (DYNAMICS) mean=  2.00031879301043E+01
DEBUG_STATS_RL:               Theta (DYNAMICS) S.D.=  9.24259865717263E-02
DEBUG_STATS_RL:                Salt (DYNAMICS)  min=  2.39952513128810E+01
DEBUG_STATS_RL:                Salt (DYNAMICS)  max=  3.51508499803671E+01
DEBUG_STATS_RL:                Salt (DYNAMICS) mean=  3.49970289611610E+01
DEBUG_STATS_RL:                Salt (DYNAMICS) S.D.=  1.26025918847256E-01
DEBUG_STATS_RL:                  Gu (DYNAMICS)  min= -6.96753650897154E-01
DEBUG_STATS_RL:                  Gu (DYNAMICS)  max=  5.46996875554551E-01
DEBUG_STATS_RL:                  Gu (DYNAMICS) mean= -3.83929198380517E-04
DEBUG_STATS_RL:                  Gu (DYNAMICS) S.D.=  1.89753591008695E-02
DEBUG_STATS_RL:                  Gv (DYNAMICS)  min= -5.09491703152184E-01
DEBUG_STATS_RL:                  Gv (DYNAMICS)  max=  2.93366775104277E-01
DEBUG_STATS_RL:                  Gv (DYNAMICS) mean= -6.16661111507979E-04
DEBUG_STATS_RL:                  Gv (DYNAMICS) S.D.=  1.87631851009153E-02
DEBUG_STATS_RL:               GuNm1 (DYNAMICS)  min= -2.83617204318011E-05
DEBUG_STATS_RL:               GuNm1 (DYNAMICS)  max=  2.42111151123944E-05
DEBUG_STATS_RL:               GuNm1 (DYNAMICS) mean=  1.76740297115636E-09
DEBUG_STATS_RL:               GuNm1 (DYNAMICS) S.D.=  1.26049292320179E-06
DEBUG_STATS_RL:               GvNm1 (DYNAMICS)  min= -2.66024533927417E-05
DEBUG_STATS_RL:               GvNm1 (DYNAMICS)  max=  2.60441031675542E-05
DEBUG_STATS_RL:               GvNm1 (DYNAMICS) mean= -1.41276260365162E-08
DEBUG_STATS_RL:               GvNm1 (DYNAMICS) S.D.=  1.22710116751787E-06
DEBUG_STATS_RL:               GtNm1 (DYNAMICS)  min= -5.91576642827705E-06
DEBUG_STATS_RL:               GtNm1 (DYNAMICS)  max=  4.79003682588588E-06
DEBUG_STATS_RL:               GtNm1 (DYNAMICS) mean=  7.35212826279468E-10
DEBUG_STATS_RL:               GtNm1 (DYNAMICS) S.D.=  7.41563186853227E-08
DEBUG_STATS_RL:               GsNm1 (DYNAMICS)  min= -1.56210492464365E-05
DEBUG_STATS_RL:               GsNm1 (DYNAMICS)  max=  2.19937911915044E-06
DEBUG_STATS_RL:               GsNm1 (DYNAMICS) mean= -4.52245318185035E-09
DEBUG_STATS_RL:               GsNm1 (DYNAMICS) S.D.=  1.81737497573968E-07
(PID.TID 0000.0001) DEBUG_MSG: LEAVING S/R DYNAMICS
DEBUG_STATS_RL:    cg2d_b (SOLVE_FOR_PRESSURE)  min= -1.90472394953409E+05
DEBUG_STATS_RL:    cg2d_b (SOLVE_FOR_PRESSURE)  max=  1.78497659502454E+05
DEBUG_STATS_RL:    cg2d_b (SOLVE_FOR_PRESSURE) mean= -4.11664871256943E+03
DEBUG_STATS_RL:    cg2d_b (SOLVE_FOR_PRESSURE) S.D.=  7.70579521833855E+03
 cg2d: Sum(rhs),rhsMax =  -9.55287369280346E+01  3.64879665367186E+01
(PID.TID 0000.0001)  cg2d: iter=     1 ; resid.=  3.22901013131145E-02
(PID.TID 0000.0001)  cg2d: iter=     2 ; resid.=  4.07029200565367E-03
(PID.TID 0000.0001)  cg2d: iter=     3 ; resid.=  8.99640917173757E-04
(PID.TID 0000.0001)  cg2d: iter=     4 ; resid.=  3.01006458152858E-04
(PID.TID 0000.0001)  cg2d: iter=     5 ; resid.=  8.64945669142567E-05
(PID.TID 0000.0001)  cg2d: iter=     6 ; resid.=  1.95279978725226E-05
(PID.TID 0000.0001)  cg2d: iter=     7 ; resid.=  4.73066531658303E-06
(PID.TID 0000.0001)  cg2d: iter=     8 ; resid.=  1.16319859578677E-06
(PID.TID 0000.0001)  cg2d: iter=     9 ; resid.=  3.26832449426472E-07
(PID.TID 0000.0001)  cg2d: iter=    10 ; resid.=  1.04582743041600E-07
(PID.TID 0000.0001)  cg2d: iter=    11 ; resid.=  2.66661254420311E-08
DEBUG_STATS_RL:    cg2d_x (SOLVE_FOR_PRESSURE)  min= -1.88649939656955E+01
DEBUG_STATS_RL:    cg2d_x (SOLVE_FOR_PRESSURE)  max=  1.55970380091339E+01
DEBUG_STATS_RL:    cg2d_x (SOLVE_FOR_PRESSURE) mean=  4.13162241989044E-01
DEBUG_STATS_RL:    cg2d_x (SOLVE_FOR_PRESSURE) S.D.=  8.04522079808094E-01
(PID.TID 0000.0001)      cg2d_init_res =   2.35034521540367E-01
(PID.TID 0000.0001)      cg2d_iters(min,last) =      -1      11
(PID.TID 0000.0001)      cg2d_last_res =   2.66661254420311E-08
(PID.TID 0000.0001) DEBUG_MSG: CALLING S/R UPDATE_ETAH
(PID.TID 0000.0001) DEBUG_MSG: ENTERED S/R CALC_R_STAR
(PID.TID 0000.0001) DEBUG_MSG: LEAVING S/R CALC_R_STAR
(PID.TID 0000.0001) DEBUG_MSG: CALLING S/R DO_STAGGER_FIELDS_EXCH.
(PID.TID 0000.0001) DEBUG_MSG: CALLING S/R THERMODYNAMICS
(PID.TID 0000.0001) DEBUG_MSG: ENTERED S/R THERMODYNAMICS
(PID.TID 0000.0001) DEBUG_MSG: CALLING S/R TEMP_INTEGRATE
(PID.TID 0000.0001) DEBUG_MSG: CALLING S/R SALT_INTEGRATE
DEBUG_STATS_RL:          Uvel (THERMODYNAMICS)  min= -6.76359638658565E-01
DEBUG_STATS_RL:          Uvel (THERMODYNAMICS)  max=  5.46446572416285E-01
DEBUG_STATS_RL:          Uvel (THERMODYNAMICS) mean= -3.87632355859196E-04
DEBUG_STATS_RL:          Uvel (THERMODYNAMICS) S.D.=  1.89027135718997E-02
DEBUG_STATS_RL:          Vvel (THERMODYNAMICS)  min= -4.88019854900926E-01
DEBUG_STATS_RL:          Vvel (THERMODYNAMICS)  max=  2.99107361066036E-01
DEBUG_STATS_RL:          Vvel (THERMODYNAMICS) mean= -6.22556169352682E-04
DEBUG_STATS_RL:          Vvel (THERMODYNAMICS) S.D.=  1.87055961868101E-02
DEBUG_STATS_RL:          Wvel (THERMODYNAMICS)  min= -2.02483848210603E-04
DEBUG_STATS_RL:          Wvel (THERMODYNAMICS)  max=  1.40372896840301E-04
DEBUG_STATS_RL:          Wvel (THERMODYNAMICS) mean= -2.83140476448548E-07
DEBUG_STATS_RL:          Wvel (THERMODYNAMICS) S.D.=  7.02302428040589E-06
DEBUG_STATS_RL:         Theta (THERMODYNAMICS)  min=  1.60683363683920E+01
DEBUG_STATS_RL:         Theta (THERMODYNAMICS)  max=  2.35063830474084E+01
DEBUG_STATS_RL:         Theta (THERMODYNAMICS) mean=  2.00032872223211E+01
DEBUG_STATS_RL:         Theta (THERMODYNAMICS) S.D.=  9.29857859642051E-02
DEBUG_STATS_RL:          Salt (THERMODYNAMICS)  min=  2.39362819898398E+01
DEBUG_STATS_RL:          Salt (THERMODYNAMICS)  max=  3.51508368934151E+01
DEBUG_STATS_RL:          Salt (THERMODYNAMICS) mean=  3.49970062642608E+01
DEBUG_STATS_RL:          Salt (THERMODYNAMICS) S.D.=  1.26747650104085E-01
DEBUG_STATS_RL:         GtNm1 (THERMODYNAMICS)  min= -5.34923395044580E-06
DEBUG_STATS_RL:         GtNm1 (THERMODYNAMICS)  max=  4.78707419890375E-06
DEBUG_STATS_RL:         GtNm1 (THERMODYNAMICS) mean=  8.11239266183006E-10
DEBUG_STATS_RL:         GtNm1 (THERMODYNAMICS) S.D.=  7.04133811597948E-08
DEBUG_STATS_RL:         GsNm1 (THERMODYNAMICS)  min= -1.55423323458236E-05
DEBUG_STATS_RL:         GsNm1 (THERMODYNAMICS)  max=  2.21024253950666E-06
DEBUG_STATS_RL:         GsNm1 (THERMODYNAMICS) mean= -4.50591611064770E-09
DEBUG_STATS_RL:         GsNm1 (THERMODYNAMICS) S.D.=  1.80591386628255E-07
(PID.TID 0000.0001) DEBUG_MSG: LEAVING S/R THERMODYNAMICS
(PID.TID 0000.0001) // =======================================================
(PID.TID 0000.0001) // Begin MONITOR dynamic field statistics
(PID.TID 0000.0001) // =======================================================
(PID.TID 0000.0001) %MON time_tsnumber                =                    70
(PID.TID 0000.0001) %MON time_secondsf                =   6.3000000000000E+04
(PID.TID 0000.0001) %MON dynstat_eta_max              =   1.5899121310598E+00
(PID.TID 0000.0001) %MON dynstat_eta_min              =  -1.9230371006478E+00
(PID.TID 0000.0001) %MON dynstat_eta_mean             =   4.0502783425600E-02
(PID.TID 0000.0001) %MON dynstat_eta_sd               =   7.6194196995357E-02
(PID.TID 0000.0001) %MON dynstat_eta_del2             =   1.4462948534388E-03
(PID.TID 0000.0001) %MON dynstat_uvel_max             =   5.4644657241628E-01
(PID.TID 0000.0001) %MON dynstat_uvel_min             =  -6.7635963865857E-01
(PID.TID 0000.0001) %MON dynstat_uvel_mean            =   8.7802326265669E-06
(PID.TID 0000.0001) %MON dynstat_uvel_sd              =   6.4539965577809E-03
(PID.TID 0000.0001) %MON dynstat_uvel_del2            =   1.0032708143274E-04
(PID.TID 0000.0001) %MON dynstat_vvel_max             =   2.9910736106604E-01
(PID.TID 0000.0001) %MON dynstat_vvel_min             =  -4.8801985490093E-01
(PID.TID 0000.0001) %MON dynstat_vvel_mean            =   8.7444203397490E-04
(PID.TID 0000.0001) %MON dynstat_vvel_sd              =   6.3456732585362E-03
(PID.TID 0000.0001) %MON dynstat_vvel_del2            =   9.9110331655220E-05
(PID.TID 0000.0001) %MON dynstat_wvel_max             =   1.4037289684030E-04
(PID.TID 0000.0001) %MON dynstat_wvel_min             =  -2.0248384821060E-04
(PID.TID 0000.0001) %MON dynstat_wvel_mean            =  -2.3400458438286E-07
(PID.TID 0000.0001) %MON dynstat_wvel_sd              =   6.7712902317932E-06
(PID.TID 0000.0001) %MON dynstat_wvel_del2            =   7.1852012615529E-08
(PID.TID 0000.0001) %MON dynstat_theta_max            =   2.3506383047408E+01
(PID.TID 0000.0001) %MON dynstat_theta_min            =   1.6068336368392E+01
(PID.TID 0000.0001) %MON dynstat_theta_mean           =   1.9997907387583E+01
(PID.TID 0000.0001) %MON dynstat_theta_sd             =   3.0694827067228E-02
(PID.TID 0000.0001) %MON dynstat_theta_del2           =   5.3591386972458E-04
(PID.TID 0000.0001) %MON dynstat_salt_max             =   3.5150836893415E+01
(PID.TID 0000.0001) %MON dynstat_salt_min             =   2.3936281989840E+01
(PID.TID 0000.0001) %MON dynstat_salt_mean            =   3.4999611380225E+01
(PID.TID 0000.0001) %MON dynstat_salt_sd              =   3.9124215954064E-02
(PID.TID 0000.0001) %MON dynstat_salt_del2            =   1.3484352475859E-03
(PID.TID 0000.0001) %MON dynstat_sst_max              =   2.3506383047408E+01
(PID.TID 0000.0001) %MON dynstat_sst_min              =   1.6068336368392E+01
(PID.TID 0000.0001) %MON dynstat_sst_mean             =   2.0143167834680E+01
(PID.TID 0000.0001) %MON dynstat_sst_sd               =   2.8620855252895E-01
(PID.TID 0000.0001) %MON dynstat_sst_del2             =   6.2567496217527E-03
(PID.TID 0000.0001) %MON dynstat_sss_max              =   3.5150836893415E+01
(PID.TID 0000.0001) %MON dynstat_sss_min              =   2.3936281989840E+01
(PID.TID 0000.0001) %MON dynstat_sss_mean             =   3.4964414768245E+01
(PID.TID 0000.0001) %MON dynstat_sss_sd               =   4.7172625603329E-01
(PID.TID 0000.0001) %MON dynstat_sss_del2             =   1.8252020004361E-02
(PID.TID 0000.0001) %MON forcing_qnet_max             =   2.6455400390625E+03
(PID.TID 0000.0001) %MON forcing_qnet_min             =  -3.0930756835938E+03
(PID.TID 0000.0001) %MON forcing_qnet_mean            =  -1.9004627752683E+01
(PID.TID 0000.0001) %MON forcing_qnet_sd              =   4.6736983198407E+02
(PID.TID 0000.0001) %MON forcing_qnet_del2            =   5.9563641063879E+00
(PID.TID 0000.0001) %MON forcing_qsw_max              =   0.0000000000000E+00
(PID.TID 0000.0001) %MON forcing_qsw_min              =  -1.0938230699281E+02
(PID.TID 0000.0001) %MON forcing_qsw_mean             =  -1.7007728980634E+01
(PID.TID 0000.0001) %MON forcing_qsw_sd               =   2.8769373661687E+01
(PID.TID 0000.0001) %MON forcing_qsw_del2             =   2.3928562866711E-01
(PID.TID 0000.0001) %MON forcing_empmr_max            =   5.4286387749016E-03
(PID.TID 0000.0001) %MON forcing_empmr_min            =  -7.8030005097389E-02
(PID.TID 0000.0001) %MON forcing_empmr_mean           =  -3.7931789089092E-04
(PID.TID 0000.0001) %MON forcing_empmr_sd             =   3.4678971775843E-03
(PID.TID 0000.0001) %MON forcing_empmr_del2           =   1.3555204604070E-04
(PID.TID 0000.0001) %MON forcing_fu_max               =   5.9279318128425E-01
(PID.TID 0000.0001) %MON forcing_fu_min               =  -6.3371496446896E-01
(PID.TID 0000.0001) %MON forcing_fu_mean              =  -5.8356991593349E-04
(PID.TID 0000.0001) %MON forcing_fu_sd                =   8.6514514861646E-02
(PID.TID 0000.0001) %MON forcing_fu_del2              =   7.2724686122393E-04
(PID.TID 0000.0001) %MON forcing_fv_max               =   3.8760748958635E-01
(PID.TID 0000.0001) %MON forcing_fv_min               =  -3.9211899746048E-01
(PID.TID 0000.0001) %MON forcing_fv_mean              =  -7.2242691815450E-03
(PID.TID 0000.0001) %MON forcing_fv_sd                =   7.2471353177273E-02
(PID.TID 0000.0001) %MON forcing_fv_del2              =   6.0501131450725E-04
(PID.TID 0000.0001) %MON trAdv_CFL_u_max              =   1.9916197693452E-03
(PID.TID 0000.0001) %MON trAdv_CFL_v_max              =   1.4470013780671E-03
(PID.TID 0000.0001) %MON trAdv_CFL_w_max              =   3.0189646161139E-03
(PID.TID 0000.0001) %MON advcfl_uvel_max              =   1.9655073015921E-03
(PID.TID 0000.0001) %MON advcfl_vvel_max              =   1.4268266922429E-03
(PID.TID 0000.0001) %MON advcfl_wvel_max              =   5.4281742676445E-03
(PID.TID 0000.0001) %MON advcfl_W_hf_max              =   3.0189646161139E-03
(PID.TID 0000.0001) %MON pe_b_mean                    =   9.9193812215915E-06
(PID.TID 0000.0001) %MON ke_max                       =   1.9497311125922E-01
(PID.TID 0000.0001) %MON ke_mean                      =   3.8174647834967E-05
(PID.TID 0000.0001) %MON ke_vol                       =   1.3398170637635E+18
(PID.TID 0000.0001) %MON vort_r_min                   =  -3.7413545332037E-06
(PID.TID 0000.0001) %MON vort_r_max                   =   2.5988258221639E-06
(PID.TID 0000.0001) %MON vort_a_mean                  =  -2.0549865324846E-05
(PID.TID 0000.0001) %MON vort_a_sd                    =   7.5259474143256E-05
(PID.TID 0000.0001) %MON vort_p_mean                  =  -2.4783250538778E-05
(PID.TID 0000.0001) %MON vort_p_sd                    =   1.2810524498457E-04
(PID.TID 0000.0001) %MON surfExpan_theta_mean         =  -3.5442144229736E-07
(PID.TID 0000.0001) %MON surfExpan_salt_mean          =   1.5662970557617E-06
(PID.TID 0000.0001) // =======================================================
(PID.TID 0000.0001) // End MONITOR dynamic field statistics
(PID.TID 0000.0001) // =======================================================
(PID.TID 0000.0001) DEBUG_MSG: LEAVING S/R FORWARD_STEP
(PID.TID 0000.0001) DEBUG_MSG: ENTERED S/R FORWARD_STEP
(PID.TID 0000.0001) DEBUG_MSG: CALLING S/R LOAD_FIELDS_DRIVER
(PID.TID 0000.0001) DEBUG_MSG: ENTERED S/R LOAD_FIELDS_DRIVER
(PID.TID 0000.0001) DEBUG_MSG: CALLING S/R EXTERNAL_FIELDS_LOAD
(PID.TID 0000.0001) DEBUG_MSG: LEAVING S/R LOAD_FIELDS_DRIVER
(PID.TID 0000.0001) DEBUG_MSG: CALLING S/R DO_ATMOSPHERIC_PHYS
(PID.TID 0000.0001) DEBUG_MSG: ENTERED S/R DO_ATMOSPHERIC_PHYS
(PID.TID 0000.0001) DEBUG_MSG: LEAVING S/R DO_ATMOSPHERIC_PHYS
(PID.TID 0000.0001) DEBUG_MSG: CALLING S/R DO_OCEANIC_PHYS
(PID.TID 0000.0001) DEBUG_MSG: ENTERED S/R DO_OCEANIC_PHYS
(PID.TID 0000.0001) DEBUG_MSG: CALLING S/R EXTERNAL_FORCING_SURF
(PID.TID 0000.0001) DEBUG_MSG: CALLING S/R FIND_RHO_2D (xNr)
(PID.TID 0000.0001) DEBUG_MSG:                  ENTERING UPWARD K LOOP (bi=   1, bj=   1)
(PID.TID 0000.0001) DEBUG_MSG: CALLING S/R GRAD_SIGMA
(PID.TID 0000.0001) DEBUG_MSG: CALLING S/R CALC_IVDC
(PID.TID 0000.0001) DEBUG_MSG: CALLING S/R GRAD_SIGMA
(PID.TID 0000.0001) DEBUG_MSG: CALLING S/R CALC_IVDC
(PID.TID 0000.0001) DEBUG_MSG: CALLING S/R GRAD_SIGMA
(PID.TID 0000.0001) DEBUG_MSG: CALLING S/R CALC_IVDC
(PID.TID 0000.0001) DEBUG_MSG: CALLING S/R GRAD_SIGMA
(PID.TID 0000.0001) DEBUG_MSG: CALLING S/R CALC_IVDC
(PID.TID 0000.0001) DEBUG_MSG: CALLING S/R GRAD_SIGMA
(PID.TID 0000.0001) DEBUG_MSG: CALLING S/R CALC_IVDC
(PID.TID 0000.0001) DEBUG_MSG: CALLING S/R GRAD_SIGMA
(PID.TID 0000.0001) DEBUG_MSG: CALLING S/R CALC_IVDC
(PID.TID 0000.0001) DEBUG_MSG: CALLING S/R GRAD_SIGMA
(PID.TID 0000.0001) DEBUG_MSG: CALLING S/R CALC_IVDC
(PID.TID 0000.0001) DEBUG_MSG: CALLING S/R GRAD_SIGMA
(PID.TID 0000.0001) DEBUG_MSG: CALLING S/R CALC_IVDC
(PID.TID 0000.0001) DEBUG_MSG: CALLING S/R GRAD_SIGMA
(PID.TID 0000.0001) DEBUG_MSG: CALLING S/R CALC_IVDC
(PID.TID 0000.0001) DEBUG_MSG: CALLING S/R GRAD_SIGMA
(PID.TID 0000.0001) DEBUG_MSG: CALLING S/R CALC_IVDC
(PID.TID 0000.0001) DEBUG_MSG: CALLING S/R GRAD_SIGMA
(PID.TID 0000.0001) DEBUG_MSG: CALLING S/R CALC_IVDC
(PID.TID 0000.0001) DEBUG_MSG: CALLING S/R GRAD_SIGMA
(PID.TID 0000.0001) DEBUG_MSG: CALLING S/R CALC_IVDC
(PID.TID 0000.0001) DEBUG_MSG: CALLING S/R GRAD_SIGMA
(PID.TID 0000.0001) DEBUG_MSG: CALLING S/R CALC_IVDC
(PID.TID 0000.0001) DEBUG_MSG: CALLING S/R GRAD_SIGMA
(PID.TID 0000.0001) DEBUG_MSG: CALLING S/R CALC_IVDC
(PID.TID 0000.0001) DEBUG_MSG: CALLING S/R GRAD_SIGMA
(PID.TID 0000.0001) DEBUG_MSG: CALLING S/R CALC_IVDC
(PID.TID 0000.0001) DEBUG_MSG: CALLING S/R GRAD_SIGMA
(PID.TID 0000.0001) DEBUG_MSG: CALLING S/R GMREDI_CALC_TENSOR
(PID.TID 0000.0001) DEBUG_MSG: LEAVING S/R DO_OCEANIC_PHYS
(PID.TID 0000.0001) DEBUG_MSG: CALLING S/R DYNAMICS
(PID.TID 0000.0001) DEBUG_MSG: ENTERED S/R DYNAMICS
DEBUG_STATS_RL:                EtaN (DYNAMICS)  min= -1.92303710064783E+00
DEBUG_STATS_RL:                EtaN (DYNAMICS)  max=  1.58991213105983E+00
DEBUG_STATS_RL:                EtaN (DYNAMICS) mean=  4.21164364741624E-02
DEBUG_STATS_RL:                EtaN (DYNAMICS) S.D.=  8.20104056353756E-02
DEBUG_STATS_RL:                Uvel (DYNAMICS)  min= -6.76359638658565E-01
DEBUG_STATS_RL:                Uvel (DYNAMICS)  max=  5.46446572416285E-01
DEBUG_STATS_RL:                Uvel (DYNAMICS) mean= -3.87632355859196E-04
DEBUG_STATS_RL:                Uvel (DYNAMICS) S.D.=  1.89027135718997E-02
DEBUG_STATS_RL:                Vvel (DYNAMICS)  min= -4.88019854900926E-01
DEBUG_STATS_RL:                Vvel (DYNAMICS)  max=  2.99107361066036E-01
DEBUG_STATS_RL:                Vvel (DYNAMICS) mean= -6.22556169352682E-04
DEBUG_STATS_RL:                Vvel (DYNAMICS) S.D.=  1.87055961868101E-02
DEBUG_STATS_RL:                Wvel (DYNAMICS)  min= -2.02483848210603E-04
DEBUG_STATS_RL:                Wvel (DYNAMICS)  max=  1.40372896840301E-04
DEBUG_STATS_RL:                Wvel (DYNAMICS) mean= -2.83140476448548E-07
DEBUG_STATS_RL:                Wvel (DYNAMICS) S.D.=  7.02302428040589E-06
DEBUG_STATS_RL:               Theta (DYNAMICS)  min=  1.60683363683920E+01
DEBUG_STATS_RL:               Theta (DYNAMICS)  max=  2.35063830474084E+01
DEBUG_STATS_RL:               Theta (DYNAMICS) mean=  2.00032872223211E+01
DEBUG_STATS_RL:               Theta (DYNAMICS) S.D.=  9.29857859642051E-02
DEBUG_STATS_RL:                Salt (DYNAMICS)  min=  2.39362819898398E+01
DEBUG_STATS_RL:                Salt (DYNAMICS)  max=  3.51508368934151E+01
DEBUG_STATS_RL:                Salt (DYNAMICS) mean=  3.49970062642608E+01
DEBUG_STATS_RL:                Salt (DYNAMICS) S.D.=  1.26747650104085E-01
DEBUG_STATS_RL:                  Gu (DYNAMICS)  min= -6.88648632397965E-01
DEBUG_STATS_RL:                  Gu (DYNAMICS)  max=  5.24998238541464E-01
DEBUG_STATS_RL:                  Gu (DYNAMICS) mean= -3.89235029364044E-04
DEBUG_STATS_RL:                  Gu (DYNAMICS) S.D.=  1.91195761019432E-02
DEBUG_STATS_RL:                  Gv (DYNAMICS)  min= -4.79946747292541E-01
DEBUG_STATS_RL:                  Gv (DYNAMICS)  max=  2.94885530080543E-01
DEBUG_STATS_RL:                  Gv (DYNAMICS) mean= -6.32630501012441E-04
DEBUG_STATS_RL:                  Gv (DYNAMICS) S.D.=  1.87086069641378E-02
DEBUG_STATS_RL:               GuNm1 (DYNAMICS)  min= -2.72542923288906E-05
DEBUG_STATS_RL:               GuNm1 (DYNAMICS)  max=  2.33936147738061E-05
DEBUG_STATS_RL:               GuNm1 (DYNAMICS) mean= -7.61164617303274E-10
DEBUG_STATS_RL:               GuNm1 (DYNAMICS) S.D.=  1.23027902129267E-06
DEBUG_STATS_RL:               GvNm1 (DYNAMICS)  min= -2.63039747505887E-05
DEBUG_STATS_RL:               GvNm1 (DYNAMICS)  max=  2.68672982271110E-05
DEBUG_STATS_RL:               GvNm1 (DYNAMICS) mean= -1.30870111399594E-08
DEBUG_STATS_RL:               GvNm1 (DYNAMICS) S.D.=  1.23837637651796E-06
DEBUG_STATS_RL:               GtNm1 (DYNAMICS)  min= -5.34923395044580E-06
DEBUG_STATS_RL:               GtNm1 (DYNAMICS)  max=  4.78707419890375E-06
DEBUG_STATS_RL:               GtNm1 (DYNAMICS) mean=  8.11239266183006E-10
DEBUG_STATS_RL:               GtNm1 (DYNAMICS) S.D.=  7.04133811597948E-08
DEBUG_STATS_RL:               GsNm1 (DYNAMICS)  min= -1.55423323458236E-05
DEBUG_STATS_RL:               GsNm1 (DYNAMICS)  max=  2.21024253950666E-06
DEBUG_STATS_RL:               GsNm1 (DYNAMICS) mean= -4.50591611064770E-09
DEBUG_STATS_RL:               GsNm1 (DYNAMICS) S.D.=  1.80591386628255E-07
(PID.TID 0000.0001) DEBUG_MSG: LEAVING S/R DYNAMICS
DEBUG_STATS_RL:    cg2d_b (SOLVE_FOR_PRESSURE)  min= -1.95347717945118E+05
DEBUG_STATS_RL:    cg2d_b (SOLVE_FOR_PRESSURE)  max=  1.86035936548924E+05
DEBUG_STATS_RL:    cg2d_b (SOLVE_FOR_PRESSURE) mean= -4.14997515077687E+03
DEBUG_STATS_RL:    cg2d_b (SOLVE_FOR_PRESSURE) S.D.=  7.80288843164141E+03
 cg2d: Sum(rhs),rhsMax =  -9.38986662316018E+01  3.74219109133865E+01
(PID.TID 0000.0001)  cg2d: iter=     1 ; resid.=  3.16225213966918E-02
(PID.TID 0000.0001)  cg2d: iter=     2 ; resid.=  3.93379229444058E-03
(PID.TID 0000.0001)  cg2d: iter=     3 ; resid.=  8.12066447810754E-04
(PID.TID 0000.0001)  cg2d: iter=     4 ; resid.=  2.57447585324627E-04
(PID.TID 0000.0001)  cg2d: iter=     5 ; resid.=  7.93553900818056E-05
(PID.TID 0000.0001)  cg2d: iter=     6 ; resid.=  1.89420007866838E-05
(PID.TID 0000.0001)  cg2d: iter=     7 ; resid.=  4.60523365054968E-06
(PID.TID 0000.0001)  cg2d: iter=     8 ; resid.=  1.08752131628571E-06
(PID.TID 0000.0001)  cg2d: iter=     9 ; resid.=  2.84661527110265E-07
(PID.TID 0000.0001)  cg2d: iter=    10 ; resid.=  9.10084910854331E-08
DEBUG_STATS_RL:    cg2d_x (SOLVE_FOR_PRESSURE)  min= -1.96650199564107E+01
DEBUG_STATS_RL:    cg2d_x (SOLVE_FOR_PRESSURE)  max=  1.59946311758029E+01
DEBUG_STATS_RL:    cg2d_x (SOLVE_FOR_PRESSURE) mean=  4.15630468690678E-01
DEBUG_STATS_RL:    cg2d_x (SOLVE_FOR_PRESSURE) S.D.=  8.10707631508346E-01
(PID.TID 0000.0001)      cg2d_init_res =   2.18776753663639E-01
(PID.TID 0000.0001)      cg2d_iters(min,last) =      -1      10
(PID.TID 0000.0001)      cg2d_last_res =   9.10084910854331E-08
(PID.TID 0000.0001) DEBUG_MSG: CALLING S/R UPDATE_ETAH
(PID.TID 0000.0001) DEBUG_MSG: ENTERED S/R CALC_R_STAR
(PID.TID 0000.0001) DEBUG_MSG: LEAVING S/R CALC_R_STAR
(PID.TID 0000.0001) DEBUG_MSG: CALLING S/R DO_STAGGER_FIELDS_EXCH.
(PID.TID 0000.0001) DEBUG_MSG: CALLING S/R THERMODYNAMICS
(PID.TID 0000.0001) DEBUG_MSG: ENTERED S/R THERMODYNAMICS
(PID.TID 0000.0001) DEBUG_MSG: CALLING S/R TEMP_INTEGRATE
(PID.TID 0000.0001) DEBUG_MSG: CALLING S/R SALT_INTEGRATE
DEBUG_STATS_RL:          Uvel (THERMODYNAMICS)  min= -6.65465483666551E-01
DEBUG_STATS_RL:          Uvel (THERMODYNAMICS)  max=  5.18886880061799E-01
DEBUG_STATS_RL:          Uvel (THERMODYNAMICS) mean= -3.93802939823786E-04
DEBUG_STATS_RL:          Uvel (THERMODYNAMICS) S.D.=  1.90516883405103E-02
DEBUG_STATS_RL:          Vvel (THERMODYNAMICS)  min= -4.56101600028469E-01
DEBUG_STATS_RL:          Vvel (THERMODYNAMICS)  max=  2.95390801908829E-01
DEBUG_STATS_RL:          Vvel (THERMODYNAMICS) mean= -6.39281440789098E-04
DEBUG_STATS_RL:          Vvel (THERMODYNAMICS) S.D.=  1.86638045674320E-02
DEBUG_STATS_RL:          Wvel (THERMODYNAMICS)  min= -1.96908578453841E-04
DEBUG_STATS_RL:          Wvel (THERMODYNAMICS)  max=  1.42749637308124E-04
DEBUG_STATS_RL:          Wvel (THERMODYNAMICS) mean= -2.79405556963348E-07
DEBUG_STATS_RL:          Wvel (THERMODYNAMICS) S.D.=  6.98500509559910E-06
DEBUG_STATS_RL:         Theta (THERMODYNAMICS)  min=  1.60637891071218E+01
DEBUG_STATS_RL:         Theta (THERMODYNAMICS)  max=  2.35370728558579E+01
DEBUG_STATS_RL:         Theta (THERMODYNAMICS) mean=  2.00033850758066E+01
DEBUG_STATS_RL:         Theta (THERMODYNAMICS) S.D.=  9.35426363248026E-02
DEBUG_STATS_RL:          Salt (THERMODYNAMICS)  min=  2.38786239050419E+01
DEBUG_STATS_RL:          Salt (THERMODYNAMICS)  max=  3.51508238913648E+01
DEBUG_STATS_RL:          Salt (THERMODYNAMICS) mean=  3.49969834741019E+01
DEBUG_STATS_RL:          Salt (THERMODYNAMICS) S.D.=  1.27454543313406E-01
DEBUG_STATS_RL:         GtNm1 (THERMODYNAMICS)  min= -4.72566386652992E-06
DEBUG_STATS_RL:         GtNm1 (THERMODYNAMICS)  max=  4.78058559930690E-06
DEBUG_STATS_RL:         GtNm1 (THERMODYNAMICS) mean=  8.86641793467505E-10
DEBUG_STATS_RL:         GtNm1 (THERMODYNAMICS) S.D.=  6.69665262063959E-08
DEBUG_STATS_RL:         GsNm1 (THERMODYNAMICS)  min= -1.54621786666267E-05
DEBUG_STATS_RL:         GsNm1 (THERMODYNAMICS)  max=  2.22346162280288E-06
DEBUG_STATS_RL:         GsNm1 (THERMODYNAMICS) mean= -4.48603236165811E-09
DEBUG_STATS_RL:         GsNm1 (THERMODYNAMICS) S.D.=  1.79374698661978E-07
(PID.TID 0000.0001) DEBUG_MSG: LEAVING S/R THERMODYNAMICS
(PID.TID 0000.0001) // =======================================================
(PID.TID 0000.0001) // Begin MONITOR dynamic field statistics
(PID.TID 0000.0001) // =======================================================
(PID.TID 0000.0001) %MON time_tsnumber                =                    71
(PID.TID 0000.0001) %MON time_secondsf                =   6.3900000000000E+04
(PID.TID 0000.0001) %MON dynstat_eta_max              =   1.6304415075961E+00
(PID.TID 0000.0001) %MON dynstat_eta_min              =  -2.0045891925460E+00
(PID.TID 0000.0001) %MON dynstat_eta_mean             =   4.0830674776868E-02
(PID.TID 0000.0001) %MON dynstat_eta_sd               =   7.7027848275119E-02
(PID.TID 0000.0001) %MON dynstat_eta_del2             =   1.4933577520710E-03
(PID.TID 0000.0001) %MON dynstat_uvel_max             =   5.1888688006180E-01
(PID.TID 0000.0001) %MON dynstat_uvel_min             =  -6.6546548366655E-01
(PID.TID 0000.0001) %MON dynstat_uvel_mean            =   5.5454193104288E-06
(PID.TID 0000.0001) %MON dynstat_uvel_sd              =   6.4957311725186E-03
(PID.TID 0000.0001) %MON dynstat_uvel_del2            =   9.8761855774319E-05
(PID.TID 0000.0001) %MON dynstat_vvel_max             =   2.9539080190883E-01
(PID.TID 0000.0001) %MON dynstat_vvel_min             =  -4.5610160002847E-01
(PID.TID 0000.0001) %MON dynstat_vvel_mean            =   8.5143942381063E-04
(PID.TID 0000.0001) %MON dynstat_vvel_sd              =   6.3344064840917E-03
(PID.TID 0000.0001) %MON dynstat_vvel_del2            =   9.6808491066531E-05
(PID.TID 0000.0001) %MON dynstat_wvel_max             =   1.4274963730812E-04
(PID.TID 0000.0001) %MON dynstat_wvel_min             =  -1.9690857845384E-04
(PID.TID 0000.0001) %MON dynstat_wvel_mean            =  -2.2391098101955E-07
(PID.TID 0000.0001) %MON dynstat_wvel_sd              =   6.7379705613053E-06
(PID.TID 0000.0001) %MON dynstat_wvel_del2            =   7.1641861734331E-08
(PID.TID 0000.0001) %MON dynstat_theta_max            =   2.3537072855858E+01
(PID.TID 0000.0001) %MON dynstat_theta_min            =   1.6063789107122E+01
(PID.TID 0000.0001) %MON dynstat_theta_mean           =   1.9997908619758E+01
(PID.TID 0000.0001) %MON dynstat_theta_sd             =   3.0868299093143E-02
(PID.TID 0000.0001) %MON dynstat_theta_del2           =   5.3824454712242E-04
(PID.TID 0000.0001) %MON dynstat_salt_max             =   3.5150823891365E+01
(PID.TID 0000.0001) %MON dynstat_salt_min             =   2.3878623905042E+01
(PID.TID 0000.0001) %MON dynstat_salt_mean            =   3.4999608564278E+01
(PID.TID 0000.0001) %MON dynstat_salt_sd              =   3.9341508395823E-02
(PID.TID 0000.0001) %MON dynstat_salt_del2            =   1.3553524159112E-03
(PID.TID 0000.0001) %MON dynstat_sst_max              =   2.3537072855858E+01
(PID.TID 0000.0001) %MON dynstat_sst_min              =   1.6063789107122E+01
(PID.TID 0000.0001) %MON dynstat_sst_mean             =   2.0144669045556E+01
(PID.TID 0000.0001) %MON dynstat_sst_sd               =   2.8798491688178E-01
(PID.TID 0000.0001) %MON dynstat_sst_del2             =   6.2924877013137E-03
(PID.TID 0000.0001) %MON dynstat_sss_max              =   3.5150823891365E+01
(PID.TID 0000.0001) %MON dynstat_sss_min              =   2.3878623905042E+01
(PID.TID 0000.0001) %MON dynstat_sss_mean             =   3.4964146618495E+01
(PID.TID 0000.0001) %MON dynstat_sss_sd               =   4.7434544092852E-01
(PID.TID 0000.0001) %MON dynstat_sss_del2             =   1.8345310164990E-02
(PID.TID 0000.0001) %MON forcing_qnet_max             =   2.6097854003906E+03
(PID.TID 0000.0001) %MON forcing_qnet_min             =  -3.0484775390625E+03
(PID.TID 0000.0001) %MON forcing_qnet_mean            =  -1.9090016165565E+01
(PID.TID 0000.0001) %MON forcing_qnet_sd              =   4.6610924756824E+02
(PID.TID 0000.0001) %MON forcing_qnet_del2            =   6.0398285679700E+00
(PID.TID 0000.0001) %MON forcing_qsw_max              =   0.0000000000000E+00
(PID.TID 0000.0001) %MON forcing_qsw_min              =  -1.0943183706721E+02
(PID.TID 0000.0001) %MON forcing_qsw_mean             =  -1.7156522868827E+01
(PID.TID 0000.0001) %MON forcing_qsw_sd               =   2.8739111431653E+01
(PID.TID 0000.0001) %MON forcing_qsw_del2             =   2.4075428600217E-01
(PID.TID 0000.0001) %MON forcing_empmr_max            =   5.3727454505861E-03
(PID.TID 0000.0001) %MON forcing_empmr_min            =  -7.7226169407368E-02
(PID.TID 0000.0001) %MON forcing_empmr_mean           =  -3.7707505395889E-04
(PID.TID 0000.0001) %MON forcing_empmr_sd             =   3.4332230069518E-03
(PID.TID 0000.0001) %MON forcing_empmr_del2           =   1.3416442035858E-04
(PID.TID 0000.0001) %MON forcing_fu_max               =   5.9392626490083E-01
(PID.TID 0000.0001) %MON forcing_fu_min               =  -6.3360333916960E-01
(PID.TID 0000.0001) %MON forcing_fu_mean              =  -5.1993952138003E-04
(PID.TID 0000.0001) %MON forcing_fu_sd                =   8.6272689702594E-02
(PID.TID 0000.0001) %MON forcing_fu_del2              =   7.2520397657003E-04
(PID.TID 0000.0001) %MON forcing_fv_max               =   3.8564700603486E-01
(PID.TID 0000.0001) %MON forcing_fv_min               =  -3.8772788646489E-01
(PID.TID 0000.0001) %MON forcing_fv_mean              =  -7.2505661341630E-03
(PID.TID 0000.0001) %MON forcing_fv_sd                =   7.2229321781811E-02
(PID.TID 0000.0001) %MON forcing_fv_del2              =   6.0241522296979E-04
(PID.TID 0000.0001) %MON trAdv_CFL_u_max              =   1.9614986574374E-03
(PID.TID 0000.0001) %MON trAdv_CFL_v_max              =   1.4538998385130E-03
(PID.TID 0000.0001) %MON trAdv_CFL_w_max              =   2.9432891712783E-03
(PID.TID 0000.0001) %MON advcfl_uvel_max              =   1.9338487874562E-03
(PID.TID 0000.0001) %MON advcfl_vvel_max              =   1.4037645061087E-03
(PID.TID 0000.0001) %MON advcfl_wvel_max              =   5.3722552631212E-03
(PID.TID 0000.0001) %MON advcfl_W_hf_max              =   2.9432891712783E-03
(PID.TID 0000.0001) %MON pe_b_mean                    =   1.0125070455705E-05
(PID.TID 0000.0001) %MON ke_max                       =   1.8395967846964E-01
(PID.TID 0000.0001) %MON ke_mean                      =   3.8338269868307E-05
(PID.TID 0000.0001) %MON ke_vol                       =   1.3398171837885E+18
(PID.TID 0000.0001) %MON vort_r_min                   =  -3.5953922079774E-06
(PID.TID 0000.0001) %MON vort_r_max                   =   2.5833486008946E-06
(PID.TID 0000.0001) %MON vort_a_mean                  =  -2.0549865324846E-05
(PID.TID 0000.0001) %MON vort_a_sd                    =   7.5259469920748E-05
(PID.TID 0000.0001) %MON vort_p_mean                  =  -2.4783248197418E-05
(PID.TID 0000.0001) %MON vort_p_sd                    =   1.2810523106348E-04
(PID.TID 0000.0001) %MON surfExpan_theta_mean         =  -3.8119771750303E-07
(PID.TID 0000.0001) %MON surfExpan_salt_mean          =   1.5610272127054E-06
(PID.TID 0000.0001) // =======================================================
(PID.TID 0000.0001) // End MONITOR dynamic field statistics
(PID.TID 0000.0001) // =======================================================
 Computing Diagnostic #     81  oceTAUX      Counter:       1   Parms: UU      U1      
           Vector  Mate for  oceTAUX      Diagnostic #     82  oceTAUY  exists 
(PID.TID 0000.0001)  MDS_WRITE_FIELD: it,rec,kS,kL,kH=      70    -1  32   1   1 file=oceTAUX.0000000070
 Computing Diagnostic #     82  oceTAUY      Counter:       1   Parms: VV      U1      
           Vector  Mate for  oceTAUY      Diagnostic #     81  oceTAUX  exists 
(PID.TID 0000.0001)  MDS_WRITE_FIELD: it,rec,kS,kL,kH=      70    -1  32   1   1 file=oceTAUY.0000000070
 Computing Diagnostic #     85  oceFWflx     Counter:       1   Parms: SM      U1      
(PID.TID 0000.0001)  MDS_WRITE_FIELD: it,rec,kS,kL,kH=      70    -1  32   1   1 file=oceFWflx.0000000070
 Computing Diagnostic #     86  oceSflux     Counter:       1   Parms: SM      U1      
(PID.TID 0000.0001)  MDS_WRITE_FIELD: it,rec,kS,kL,kH=      70    -1  32   1   1 file=oceSflux.0000000070
 Computing Diagnostic #     87  oceQnet      Counter:       1   Parms: SM      U1      
(PID.TID 0000.0001)  MDS_WRITE_FIELD: it,rec,kS,kL,kH=      70    -1  32   1   1 file=oceQnet.0000000070
 Computing Diagnostic #     88  oceQsw       Counter:       1   Parms: SM      U1      
(PID.TID 0000.0001)  MDS_WRITE_FIELD: it,rec,kS,kL,kH=      70    -1  32   1   1 file=oceQsw.0000000070
 Computing Diagnostic #     27  SALT         Counter:       1   Parms: SMR     MR      
(PID.TID 0000.0001)  MDS_WRITE_FIELD: it,rec,kS,kL,kH=      70    -1  32   1   1 file=SSS.0000000070
 Computing Diagnostic #     26  THETA        Counter:       1   Parms: SMR     MR      
(PID.TID 0000.0001)  MDS_WRITE_FIELD: it,rec,kS,kL,kH=      70    -1  32   1   1 file=SST.0000000070
 Computing Diagnostic #     45  UVELMASS     Counter:       1   Parms: UUr     MR      
           Vector  Mate for  UVELMASS     Diagnostic #     46  VVELMASS exists 
(PID.TID 0000.0001)  MDS_WRITE_FIELD: it,rec,kS,kL,kH=      70    -1  32   1   1 file=UVEL1.0000000070
 Computing Diagnostic #     46  VVELMASS     Counter:       1   Parms: VVr     MR      
           Vector  Mate for  VVELMASS     Diagnostic #     45  UVELMASS exists 
(PID.TID 0000.0001)  MDS_WRITE_FIELD: it,rec,kS,kL,kH=      70    -1  32   1   1 file=VVEL1.0000000070
 Computing Diagnostic #     83  atmPload     Counter:       1   Parms: SM      U1      
(PID.TID 0000.0001)  MDS_WRITE_FIELD: it,rec,kS,kL,kH=      70    -1  32   1   1 file=atmPload.0000000070
(PID.TID 0000.0001)  write diagnostics summary to file: diagnostics_status.0000000071.txt
(PID.TID 0000.0001) DEBUG_MSG: LEAVING S/R FORWARD_STEP
(PID.TID 0000.0001) DEBUG_MSG: ENTERED S/R FORWARD_STEP
(PID.TID 0000.0001) DEBUG_MSG: CALLING S/R LOAD_FIELDS_DRIVER
(PID.TID 0000.0001) DEBUG_MSG: ENTERED S/R LOAD_FIELDS_DRIVER
(PID.TID 0000.0001) DEBUG_MSG: CALLING S/R EXTERNAL_FIELDS_LOAD
(PID.TID 0000.0001) DEBUG_MSG: LEAVING S/R LOAD_FIELDS_DRIVER
(PID.TID 0000.0001) DEBUG_MSG: CALLING S/R DO_ATMOSPHERIC_PHYS
(PID.TID 0000.0001) DEBUG_MSG: ENTERED S/R DO_ATMOSPHERIC_PHYS
(PID.TID 0000.0001) DEBUG_MSG: LEAVING S/R DO_ATMOSPHERIC_PHYS
(PID.TID 0000.0001) DEBUG_MSG: CALLING S/R DO_OCEANIC_PHYS
(PID.TID 0000.0001) DEBUG_MSG: ENTERED S/R DO_OCEANIC_PHYS
(PID.TID 0000.0001) DEBUG_MSG: CALLING S/R EXTERNAL_FORCING_SURF
(PID.TID 0000.0001) DEBUG_MSG: CALLING S/R FIND_RHO_2D (xNr)
(PID.TID 0000.0001) DEBUG_MSG:                  ENTERING UPWARD K LOOP (bi=   1, bj=   1)
(PID.TID 0000.0001) DEBUG_MSG: CALLING S/R GRAD_SIGMA
(PID.TID 0000.0001) DEBUG_MSG: CALLING S/R CALC_IVDC
(PID.TID 0000.0001) DEBUG_MSG: CALLING S/R GRAD_SIGMA
(PID.TID 0000.0001) DEBUG_MSG: CALLING S/R CALC_IVDC
(PID.TID 0000.0001) DEBUG_MSG: CALLING S/R GRAD_SIGMA
(PID.TID 0000.0001) DEBUG_MSG: CALLING S/R CALC_IVDC
(PID.TID 0000.0001) DEBUG_MSG: CALLING S/R GRAD_SIGMA
(PID.TID 0000.0001) DEBUG_MSG: CALLING S/R CALC_IVDC
(PID.TID 0000.0001) DEBUG_MSG: CALLING S/R GRAD_SIGMA
(PID.TID 0000.0001) DEBUG_MSG: CALLING S/R CALC_IVDC
(PID.TID 0000.0001) DEBUG_MSG: CALLING S/R GRAD_SIGMA
(PID.TID 0000.0001) DEBUG_MSG: CALLING S/R CALC_IVDC
(PID.TID 0000.0001) DEBUG_MSG: CALLING S/R GRAD_SIGMA
(PID.TID 0000.0001) DEBUG_MSG: CALLING S/R CALC_IVDC
(PID.TID 0000.0001) DEBUG_MSG: CALLING S/R GRAD_SIGMA
(PID.TID 0000.0001) DEBUG_MSG: CALLING S/R CALC_IVDC
(PID.TID 0000.0001) DEBUG_MSG: CALLING S/R GRAD_SIGMA
(PID.TID 0000.0001) DEBUG_MSG: CALLING S/R CALC_IVDC
(PID.TID 0000.0001) DEBUG_MSG: CALLING S/R GRAD_SIGMA
(PID.TID 0000.0001) DEBUG_MSG: CALLING S/R CALC_IVDC
(PID.TID 0000.0001) DEBUG_MSG: CALLING S/R GRAD_SIGMA
(PID.TID 0000.0001) DEBUG_MSG: CALLING S/R CALC_IVDC
(PID.TID 0000.0001) DEBUG_MSG: CALLING S/R GRAD_SIGMA
(PID.TID 0000.0001) DEBUG_MSG: CALLING S/R CALC_IVDC
(PID.TID 0000.0001) DEBUG_MSG: CALLING S/R GRAD_SIGMA
(PID.TID 0000.0001) DEBUG_MSG: CALLING S/R CALC_IVDC
(PID.TID 0000.0001) DEBUG_MSG: CALLING S/R GRAD_SIGMA
(PID.TID 0000.0001) DEBUG_MSG: CALLING S/R CALC_IVDC
(PID.TID 0000.0001) DEBUG_MSG: CALLING S/R GRAD_SIGMA
(PID.TID 0000.0001) DEBUG_MSG: CALLING S/R CALC_IVDC
(PID.TID 0000.0001) DEBUG_MSG: CALLING S/R GRAD_SIGMA
(PID.TID 0000.0001) DEBUG_MSG: CALLING S/R GMREDI_CALC_TENSOR
(PID.TID 0000.0001) DEBUG_MSG: LEAVING S/R DO_OCEANIC_PHYS
(PID.TID 0000.0001) DEBUG_MSG: CALLING S/R DYNAMICS
(PID.TID 0000.0001) DEBUG_MSG: ENTERED S/R DYNAMICS
DEBUG_STATS_RL:                EtaN (DYNAMICS)  min= -2.00458919254601E+00
DEBUG_STATS_RL:                EtaN (DYNAMICS)  max=  1.63044150759612E+00
DEBUG_STATS_RL:                EtaN (DYNAMICS) mean=  4.23680394160264E-02
DEBUG_STATS_RL:                EtaN (DYNAMICS) S.D.=  8.26409411395973E-02
DEBUG_STATS_RL:                Uvel (DYNAMICS)  min= -6.65465483666551E-01
DEBUG_STATS_RL:                Uvel (DYNAMICS)  max=  5.18886880061799E-01
DEBUG_STATS_RL:                Uvel (DYNAMICS) mean= -3.93802939823786E-04
DEBUG_STATS_RL:                Uvel (DYNAMICS) S.D.=  1.90516883405103E-02
DEBUG_STATS_RL:                Vvel (DYNAMICS)  min= -4.56101600028469E-01
DEBUG_STATS_RL:                Vvel (DYNAMICS)  max=  2.95390801908829E-01
DEBUG_STATS_RL:                Vvel (DYNAMICS) mean= -6.39281440789098E-04
DEBUG_STATS_RL:                Vvel (DYNAMICS) S.D.=  1.86638045674320E-02
DEBUG_STATS_RL:                Wvel (DYNAMICS)  min= -1.96908578453841E-04
DEBUG_STATS_RL:                Wvel (DYNAMICS)  max=  1.42749637308124E-04
DEBUG_STATS_RL:                Wvel (DYNAMICS) mean= -2.79405556963348E-07
DEBUG_STATS_RL:                Wvel (DYNAMICS) S.D.=  6.98500509559910E-06
DEBUG_STATS_RL:               Theta (DYNAMICS)  min=  1.60637891071218E+01
DEBUG_STATS_RL:               Theta (DYNAMICS)  max=  2.35370728558579E+01
DEBUG_STATS_RL:               Theta (DYNAMICS) mean=  2.00033850758066E+01
DEBUG_STATS_RL:               Theta (DYNAMICS) S.D.=  9.35426363248026E-02
DEBUG_STATS_RL:                Salt (DYNAMICS)  min=  2.38786239050419E+01
DEBUG_STATS_RL:                Salt (DYNAMICS)  max=  3.51508238913648E+01
DEBUG_STATS_RL:                Salt (DYNAMICS) mean=  3.49969834741019E+01
DEBUG_STATS_RL:                Salt (DYNAMICS) S.D.=  1.27454543313406E-01
DEBUG_STATS_RL:                  Gu (DYNAMICS)  min= -6.76813663056059E-01
DEBUG_STATS_RL:                  Gu (DYNAMICS)  max=  4.97409322237887E-01
DEBUG_STATS_RL:                  Gu (DYNAMICS) mean= -3.97659262186932E-04
DEBUG_STATS_RL:                  Gu (DYNAMICS) S.D.=  1.92679474785236E-02
DEBUG_STATS_RL:                  Gv (DYNAMICS)  min= -4.47717445694175E-01
DEBUG_STATS_RL:                  Gv (DYNAMICS)  max=  2.95002598465163E-01
DEBUG_STATS_RL:                  Gv (DYNAMICS) mean= -6.48200207739536E-04
DEBUG_STATS_RL:                  Gv (DYNAMICS) S.D.=  1.86968286177078E-02
DEBUG_STATS_RL:               GuNm1 (DYNAMICS)  min= -2.59294586797346E-05
DEBUG_STATS_RL:               GuNm1 (DYNAMICS)  max=  2.37989696376876E-05
DEBUG_STATS_RL:               GuNm1 (DYNAMICS) mean= -3.27006207541661E-09
DEBUG_STATS_RL:               GuNm1 (DYNAMICS) S.D.=  1.19872166294382E-06
DEBUG_STATS_RL:               GvNm1 (DYNAMICS)  min= -2.57511986304316E-05
DEBUG_STATS_RL:               GvNm1 (DYNAMICS)  max=  2.75214642355287E-05
DEBUG_STATS_RL:               GvNm1 (DYNAMICS) mean= -1.19089481141552E-08
DEBUG_STATS_RL:               GvNm1 (DYNAMICS) S.D.=  1.24973787303257E-06
DEBUG_STATS_RL:               GtNm1 (DYNAMICS)  min= -4.72566386652992E-06
DEBUG_STATS_RL:               GtNm1 (DYNAMICS)  max=  4.78058559930690E-06
DEBUG_STATS_RL:               GtNm1 (DYNAMICS) mean=  8.86641793467505E-10
DEBUG_STATS_RL:               GtNm1 (DYNAMICS) S.D.=  6.69665262063959E-08
DEBUG_STATS_RL:               GsNm1 (DYNAMICS)  min= -1.54621786666267E-05
DEBUG_STATS_RL:               GsNm1 (DYNAMICS)  max=  2.22346162280288E-06
DEBUG_STATS_RL:               GsNm1 (DYNAMICS) mean= -4.48603236165811E-09
DEBUG_STATS_RL:               GsNm1 (DYNAMICS) S.D.=  1.79374698661978E-07
(PID.TID 0000.0001) DEBUG_MSG: LEAVING S/R DYNAMICS
DEBUG_STATS_RL:    cg2d_b (SOLVE_FOR_PRESSURE)  min= -1.99562145790040E+05
DEBUG_STATS_RL:    cg2d_b (SOLVE_FOR_PRESSURE)  max=  1.90382983703460E+05
DEBUG_STATS_RL:    cg2d_b (SOLVE_FOR_PRESSURE) mean= -4.18311800008415E+03
DEBUG_STATS_RL:    cg2d_b (SOLVE_FOR_PRESSURE) S.D.=  7.88664407692819E+03
 cg2d: Sum(rhs),rhsMax =  -9.26497432024243E+01  3.82292504872630E+01
(PID.TID 0000.0001)  cg2d: iter=     1 ; resid.=  3.09743125956236E-02
(PID.TID 0000.0001)  cg2d: iter=     2 ; resid.=  3.84562962823686E-03
(PID.TID 0000.0001)  cg2d: iter=     3 ; resid.=  7.55805582707175E-04
(PID.TID 0000.0001)  cg2d: iter=     4 ; resid.=  2.20974885725981E-04
(PID.TID 0000.0001)  cg2d: iter=     5 ; resid.=  7.13291421922538E-05
(PID.TID 0000.0001)  cg2d: iter=     6 ; resid.=  1.84148346211677E-05
(PID.TID 0000.0001)  cg2d: iter=     7 ; resid.=  4.47900186655526E-06
(PID.TID 0000.0001)  cg2d: iter=     8 ; resid.=  1.01646703974942E-06
(PID.TID 0000.0001)  cg2d: iter=     9 ; resid.=  2.45562881117782E-07
(PID.TID 0000.0001)  cg2d: iter=    10 ; resid.=  7.44854258680641E-08
DEBUG_STATS_RL:    cg2d_x (SOLVE_FOR_PRESSURE)  min= -2.01274607163290E+01
DEBUG_STATS_RL:    cg2d_x (SOLVE_FOR_PRESSURE)  max=  1.63382144455323E+01
DEBUG_STATS_RL:    cg2d_x (SOLVE_FOR_PRESSURE) mean=  4.18023669303888E-01
DEBUG_STATS_RL:    cg2d_x (SOLVE_FOR_PRESSURE) S.D.=  8.15160606934182E-01
(PID.TID 0000.0001)      cg2d_init_res =   2.04989382576958E-01
(PID.TID 0000.0001)      cg2d_iters(min,last) =      -1      10
(PID.TID 0000.0001)      cg2d_last_res =   7.44854258680641E-08
(PID.TID 0000.0001) DEBUG_MSG: CALLING S/R UPDATE_ETAH
(PID.TID 0000.0001) DEBUG_MSG: ENTERED S/R CALC_R_STAR
(PID.TID 0000.0001) DEBUG_MSG: LEAVING S/R CALC_R_STAR
(PID.TID 0000.0001) DEBUG_MSG: CALLING S/R DO_STAGGER_FIELDS_EXCH.
(PID.TID 0000.0001) DEBUG_MSG: CALLING S/R THERMODYNAMICS
(PID.TID 0000.0001) DEBUG_MSG: ENTERED S/R THERMODYNAMICS
(PID.TID 0000.0001) DEBUG_MSG: CALLING S/R TEMP_INTEGRATE
(PID.TID 0000.0001) DEBUG_MSG: CALLING S/R SALT_INTEGRATE
DEBUG_STATS_RL:          Uvel (THERMODYNAMICS)  min= -6.50967849953813E-01
DEBUG_STATS_RL:          Uvel (THERMODYNAMICS)  max=  4.86058640872828E-01
DEBUG_STATS_RL:          Uvel (THERMODYNAMICS) mean= -4.03122054355648E-04
DEBUG_STATS_RL:          Uvel (THERMODYNAMICS) S.D.=  1.92084748820557E-02
DEBUG_STATS_RL:          Vvel (THERMODYNAMICS)  min= -4.21822745746870E-01
DEBUG_STATS_RL:          Vvel (THERMODYNAMICS)  max=  2.92796355613271E-01
DEBUG_STATS_RL:          Vvel (THERMODYNAMICS) mean= -6.55370232550130E-04
DEBUG_STATS_RL:          Vvel (THERMODYNAMICS) S.D.=  1.86692693862882E-02
DEBUG_STATS_RL:          Wvel (THERMODYNAMICS)  min= -1.91212311472947E-04
DEBUG_STATS_RL:          Wvel (THERMODYNAMICS)  max=  1.44885113853110E-04
DEBUG_STATS_RL:          Wvel (THERMODYNAMICS) mean= -2.76070263688788E-07
DEBUG_STATS_RL:          Wvel (THERMODYNAMICS) S.D.=  6.94996067686259E-06
DEBUG_STATS_RL:         Theta (THERMODYNAMICS)  min=  1.60597673863648E+01
DEBUG_STATS_RL:         Theta (THERMODYNAMICS)  max=  2.35673766322044E+01
DEBUG_STATS_RL:         Theta (THERMODYNAMICS) mean=  2.00034836577663E+01
DEBUG_STATS_RL:         Theta (THERMODYNAMICS) S.D.=  9.40990428726307E-02
DEBUG_STATS_RL:          Salt (THERMODYNAMICS)  min=  2.38222414710635E+01
DEBUG_STATS_RL:          Salt (THERMODYNAMICS)  max=  3.51508125233142E+01
DEBUG_STATS_RL:          Salt (THERMODYNAMICS) mean=  3.49969614266386E+01
DEBUG_STATS_RL:          Salt (THERMODYNAMICS) S.D.=  1.28147149468673E-01
DEBUG_STATS_RL:         GtNm1 (THERMODYNAMICS)  min= -4.05700115257291E-06
DEBUG_STATS_RL:         GtNm1 (THERMODYNAMICS)  max=  4.77043084509144E-06
DEBUG_STATS_RL:         GtNm1 (THERMODYNAMICS) mean=  9.60445390065690E-10
DEBUG_STATS_RL:         GtNm1 (THERMODYNAMICS) S.D.=  6.41204102501546E-08
DEBUG_STATS_RL:         GsNm1 (THERMODYNAMICS)  min= -1.53807663594203E-05
DEBUG_STATS_RL:         GsNm1 (THERMODYNAMICS)  max=  2.23882913210309E-06
DEBUG_STATS_RL:         GsNm1 (THERMODYNAMICS) mean= -4.46545177120674E-09
DEBUG_STATS_RL:         GsNm1 (THERMODYNAMICS) S.D.=  1.78147784999265E-07
(PID.TID 0000.0001) DEBUG_MSG: LEAVING S/R THERMODYNAMICS
(PID.TID 0000.0001) // =======================================================
(PID.TID 0000.0001) // Begin MONITOR dynamic field statistics
(PID.TID 0000.0001) // =======================================================
(PID.TID 0000.0001) %MON time_tsnumber                =                    72
(PID.TID 0000.0001) %MON time_secondsf                =   6.4800000000000E+04
(PID.TID 0000.0001) %MON dynstat_eta_max              =   1.6654652860540E+00
(PID.TID 0000.0001) %MON dynstat_eta_min              =  -2.0517289219462E+00
(PID.TID 0000.0001) %MON dynstat_eta_mean             =   4.1156759838123E-02
(PID.TID 0000.0001) %MON dynstat_eta_sd               =   7.7696309080210E-02
(PID.TID 0000.0001) %MON dynstat_eta_del2             =   1.5296748526220E-03
(PID.TID 0000.0001) %MON dynstat_uvel_max             =   4.8605864087283E-01
(PID.TID 0000.0001) %MON dynstat_uvel_min             =  -6.5096784995381E-01
(PID.TID 0000.0001) %MON dynstat_uvel_mean            =   7.1056030295520E-07
(PID.TID 0000.0001) %MON dynstat_uvel_sd              =   6.5371166285874E-03
(PID.TID 0000.0001) %MON dynstat_uvel_del2            =   9.7255883277671E-05
(PID.TID 0000.0001) %MON dynstat_vvel_max             =   2.9279635561327E-01
(PID.TID 0000.0001) %MON dynstat_vvel_min             =  -4.2182274574687E-01
(PID.TID 0000.0001) %MON dynstat_vvel_mean            =   8.2659163970318E-04
(PID.TID 0000.0001) %MON dynstat_vvel_sd              =   6.3367023462104E-03
(PID.TID 0000.0001) %MON dynstat_vvel_del2            =   9.4980305084950E-05
(PID.TID 0000.0001) %MON dynstat_wvel_max             =   1.4488511385311E-04
(PID.TID 0000.0001) %MON dynstat_wvel_min             =  -1.9121231147295E-04
(PID.TID 0000.0001) %MON dynstat_wvel_mean            =  -2.1389677012847E-07
(PID.TID 0000.0001) %MON dynstat_wvel_sd              =   6.7064967168398E-06
(PID.TID 0000.0001) %MON dynstat_wvel_del2            =   7.1469662462379E-08
(PID.TID 0000.0001) %MON dynstat_theta_max            =   2.3567376632204E+01
(PID.TID 0000.0001) %MON dynstat_theta_min            =   1.6059767386365E+01
(PID.TID 0000.0001) %MON dynstat_theta_mean           =   1.9997909805338E+01
(PID.TID 0000.0001) %MON dynstat_theta_sd             =   3.1041646396789E-02
(PID.TID 0000.0001) %MON dynstat_theta_del2           =   5.4057250253025E-04
(PID.TID 0000.0001) %MON dynstat_salt_max             =   3.5150812523314E+01
(PID.TID 0000.0001) %MON dynstat_salt_min             =   2.3822241471063E+01
(PID.TID 0000.0001) %MON dynstat_salt_mean            =   3.4999605769266E+01
(PID.TID 0000.0001) %MON dynstat_salt_sd              =   3.9554352675580E-02
(PID.TID 0000.0001) %MON dynstat_salt_del2            =   1.3621055656295E-03
(PID.TID 0000.0001) %MON dynstat_sst_max              =   2.3567376632204E+01
(PID.TID 0000.0001) %MON dynstat_sst_min              =   1.6059767386365E+01
(PID.TID 0000.0001) %MON dynstat_sst_mean             =   2.0146175523643E+01
(PID.TID 0000.0001) %MON dynstat_sst_sd               =   2.8974517093569E-01
(PID.TID 0000.0001) %MON dynstat_sst_del2             =   6.3272699514425E-03
(PID.TID 0000.0001) %MON dynstat_sss_max              =   3.5150812523314E+01
(PID.TID 0000.0001) %MON dynstat_sss_min              =   2.3822241471063E+01
(PID.TID 0000.0001) %MON dynstat_sss_mean             =   3.4963887547323E+01
(PID.TID 0000.0001) %MON dynstat_sss_sd               =   4.7691172387553E-01
(PID.TID 0000.0001) %MON dynstat_sss_del2             =   1.8436354827281E-02
(PID.TID 0000.0001) %MON forcing_qnet_max             =   2.5744865722656E+03
(PID.TID 0000.0001) %MON forcing_qnet_min             =  -3.0054909667969E+03
(PID.TID 0000.0001) %MON forcing_qnet_mean            =  -1.8313857306751E+01
(PID.TID 0000.0001) %MON forcing_qnet_sd              =   4.6383892516329E+02
(PID.TID 0000.0001) %MON forcing_qnet_del2            =   5.9048539174416E+00
(PID.TID 0000.0001) %MON forcing_qsw_max              =   0.0000000000000E+00
(PID.TID 0000.0001) %MON forcing_qsw_min              =  -1.0903797572198E+02
(PID.TID 0000.0001) %MON forcing_qsw_mean             =  -1.7270499636324E+01
(PID.TID 0000.0001) %MON forcing_qsw_sd               =   2.8639092076764E+01
(PID.TID 0000.0001) %MON forcing_qsw_del2             =   2.4158455019661E-01
(PID.TID 0000.0001) %MON forcing_empmr_max            =   5.3174421191216E-03
(PID.TID 0000.0001) %MON forcing_empmr_min            =  -7.6430708169937E-02
(PID.TID 0000.0001) %MON forcing_empmr_mean           =  -3.7499782044230E-04
(PID.TID 0000.0001) %MON forcing_empmr_sd             =   3.3988071231237E-03
(PID.TID 0000.0001) %MON forcing_empmr_del2           =   1.3278945067876E-04
(PID.TID 0000.0001) %MON forcing_fu_max               =   5.8516479827581E-01
(PID.TID 0000.0001) %MON forcing_fu_min               =  -6.3343722025048E-01
(PID.TID 0000.0001) %MON forcing_fu_mean              =  -4.9857165918170E-04
(PID.TID 0000.0001) %MON forcing_fu_sd                =   8.5880278771327E-02
(PID.TID 0000.0001) %MON forcing_fu_del2              =   7.2237637834327E-04
(PID.TID 0000.0001) %MON forcing_fv_max               =   3.8371850277709E-01
(PID.TID 0000.0001) %MON forcing_fv_min               =  -3.8324945523793E-01
(PID.TID 0000.0001) %MON forcing_fv_mean              =  -7.2801786154511E-03
(PID.TID 0000.0001) %MON forcing_fv_sd                =   7.2015906345778E-02
(PID.TID 0000.0001) %MON forcing_fv_del2              =   5.9983478271840E-04
(PID.TID 0000.0001) %MON trAdv_CFL_u_max              =   1.9206286149296E-03
(PID.TID 0000.0001) %MON trAdv_CFL_v_max              =   1.4607712547187E-03
(PID.TID 0000.0001) %MON trAdv_CFL_w_max              =   2.8583992229311E-03
(PID.TID 0000.0001) %MON advcfl_uvel_max              =   1.8917185311702E-03
(PID.TID 0000.0001) %MON advcfl_vvel_max              =   1.4085719235082E-03
(PID.TID 0000.0001) %MON advcfl_wvel_max              =   5.3169188292130E-03
(PID.TID 0000.0001) %MON advcfl_W_hf_max              =   2.8583992229311E-03
(PID.TID 0000.0001) %MON pe_b_mean                    =   1.0298467351908E-05
(PID.TID 0000.0001) %MON ke_max                       =   1.7160009096475E-01
(PID.TID 0000.0001) %MON ke_mean                      =   3.8580250575741E-05
(PID.TID 0000.0001) %MON ke_vol                       =   1.3398173031038E+18
(PID.TID 0000.0001) %MON vort_r_min                   =  -3.4299277282411E-06
(PID.TID 0000.0001) %MON vort_r_max                   =   2.5677420417825E-06
(PID.TID 0000.0001) %MON vort_a_mean                  =  -2.0549865324846E-05
(PID.TID 0000.0001) %MON vort_a_sd                    =   7.5259465300215E-05
(PID.TID 0000.0001) %MON vort_p_mean                  =  -2.4783245869492E-05
(PID.TID 0000.0001) %MON vort_p_sd                    =   1.2810521421806E-04
(PID.TID 0000.0001) %MON surfExpan_theta_mean         =  -4.0668357522390E-07
(PID.TID 0000.0001) %MON surfExpan_salt_mean          =   1.5553500379538E-06
(PID.TID 0000.0001) // =======================================================
(PID.TID 0000.0001) // End MONITOR dynamic field statistics
(PID.TID 0000.0001) // =======================================================
(PID.TID 0000.0001) DEBUG_MSG: LEAVING S/R FORWARD_STEP
(PID.TID 0000.0001) DEBUG_MSG: ENTERED S/R FORWARD_STEP
(PID.TID 0000.0001) DEBUG_MSG: CALLING S/R LOAD_FIELDS_DRIVER
(PID.TID 0000.0001) DEBUG_MSG: ENTERED S/R LOAD_FIELDS_DRIVER
(PID.TID 0000.0001) DEBUG_MSG: CALLING S/R EXTERNAL_FIELDS_LOAD
(PID.TID 0000.0001) DEBUG_MSG: LEAVING S/R LOAD_FIELDS_DRIVER
(PID.TID 0000.0001) DEBUG_MSG: CALLING S/R DO_ATMOSPHERIC_PHYS
(PID.TID 0000.0001) DEBUG_MSG: ENTERED S/R DO_ATMOSPHERIC_PHYS
(PID.TID 0000.0001) DEBUG_MSG: LEAVING S/R DO_ATMOSPHERIC_PHYS
(PID.TID 0000.0001) DEBUG_MSG: CALLING S/R DO_OCEANIC_PHYS
(PID.TID 0000.0001) DEBUG_MSG: ENTERED S/R DO_OCEANIC_PHYS
(PID.TID 0000.0001) DEBUG_MSG: CALLING S/R EXTERNAL_FORCING_SURF
(PID.TID 0000.0001) DEBUG_MSG: CALLING S/R FIND_RHO_2D (xNr)
(PID.TID 0000.0001) DEBUG_MSG:                  ENTERING UPWARD K LOOP (bi=   1, bj=   1)
(PID.TID 0000.0001) DEBUG_MSG: CALLING S/R GRAD_SIGMA
(PID.TID 0000.0001) DEBUG_MSG: CALLING S/R CALC_IVDC
(PID.TID 0000.0001) DEBUG_MSG: CALLING S/R GRAD_SIGMA
(PID.TID 0000.0001) DEBUG_MSG: CALLING S/R CALC_IVDC
(PID.TID 0000.0001) DEBUG_MSG: CALLING S/R GRAD_SIGMA
(PID.TID 0000.0001) DEBUG_MSG: CALLING S/R CALC_IVDC
(PID.TID 0000.0001) DEBUG_MSG: CALLING S/R GRAD_SIGMA
(PID.TID 0000.0001) DEBUG_MSG: CALLING S/R CALC_IVDC
(PID.TID 0000.0001) DEBUG_MSG: CALLING S/R GRAD_SIGMA
(PID.TID 0000.0001) DEBUG_MSG: CALLING S/R CALC_IVDC
(PID.TID 0000.0001) DEBUG_MSG: CALLING S/R GRAD_SIGMA
(PID.TID 0000.0001) DEBUG_MSG: CALLING S/R CALC_IVDC
(PID.TID 0000.0001) DEBUG_MSG: CALLING S/R GRAD_SIGMA
(PID.TID 0000.0001) DEBUG_MSG: CALLING S/R CALC_IVDC
(PID.TID 0000.0001) DEBUG_MSG: CALLING S/R GRAD_SIGMA
(PID.TID 0000.0001) DEBUG_MSG: CALLING S/R CALC_IVDC
(PID.TID 0000.0001) DEBUG_MSG: CALLING S/R GRAD_SIGMA
(PID.TID 0000.0001) DEBUG_MSG: CALLING S/R CALC_IVDC
(PID.TID 0000.0001) DEBUG_MSG: CALLING S/R GRAD_SIGMA
(PID.TID 0000.0001) DEBUG_MSG: CALLING S/R CALC_IVDC
(PID.TID 0000.0001) DEBUG_MSG: CALLING S/R GRAD_SIGMA
(PID.TID 0000.0001) DEBUG_MSG: CALLING S/R CALC_IVDC
(PID.TID 0000.0001) DEBUG_MSG: CALLING S/R GRAD_SIGMA
(PID.TID 0000.0001) DEBUG_MSG: CALLING S/R CALC_IVDC
(PID.TID 0000.0001) DEBUG_MSG: CALLING S/R GRAD_SIGMA
(PID.TID 0000.0001) DEBUG_MSG: CALLING S/R CALC_IVDC
(PID.TID 0000.0001) DEBUG_MSG: CALLING S/R GRAD_SIGMA
(PID.TID 0000.0001) DEBUG_MSG: CALLING S/R CALC_IVDC
(PID.TID 0000.0001) DEBUG_MSG: CALLING S/R GRAD_SIGMA
(PID.TID 0000.0001) DEBUG_MSG: CALLING S/R CALC_IVDC
(PID.TID 0000.0001) DEBUG_MSG: CALLING S/R GRAD_SIGMA
(PID.TID 0000.0001) DEBUG_MSG: CALLING S/R GMREDI_CALC_TENSOR
(PID.TID 0000.0001) DEBUG_MSG: LEAVING S/R DO_OCEANIC_PHYS
(PID.TID 0000.0001) DEBUG_MSG: CALLING S/R DYNAMICS
(PID.TID 0000.0001) DEBUG_MSG: ENTERED S/R DYNAMICS
DEBUG_STATS_RL:                EtaN (DYNAMICS)  min= -2.05172892194616E+00
DEBUG_STATS_RL:                EtaN (DYNAMICS)  max=  1.66546528605399E+00
DEBUG_STATS_RL:                EtaN (DYNAMICS) mean=  4.26119947767942E-02
DEBUG_STATS_RL:                EtaN (DYNAMICS) S.D.=  8.30948631549378E-02
DEBUG_STATS_RL:                Uvel (DYNAMICS)  min= -6.50967849953813E-01
DEBUG_STATS_RL:                Uvel (DYNAMICS)  max=  4.86058640872828E-01
DEBUG_STATS_RL:                Uvel (DYNAMICS) mean= -4.03122054355648E-04
DEBUG_STATS_RL:                Uvel (DYNAMICS) S.D.=  1.92084748820557E-02
DEBUG_STATS_RL:                Vvel (DYNAMICS)  min= -4.21822745746870E-01
DEBUG_STATS_RL:                Vvel (DYNAMICS)  max=  2.92796355613271E-01
DEBUG_STATS_RL:                Vvel (DYNAMICS) mean= -6.55370232550130E-04
DEBUG_STATS_RL:                Vvel (DYNAMICS) S.D.=  1.86692693862882E-02
DEBUG_STATS_RL:                Wvel (DYNAMICS)  min= -1.91212311472947E-04
DEBUG_STATS_RL:                Wvel (DYNAMICS)  max=  1.44885113853110E-04
DEBUG_STATS_RL:                Wvel (DYNAMICS) mean= -2.76070263688788E-07
DEBUG_STATS_RL:                Wvel (DYNAMICS) S.D.=  6.94996067686259E-06
DEBUG_STATS_RL:               Theta (DYNAMICS)  min=  1.60597673863648E+01
DEBUG_STATS_RL:               Theta (DYNAMICS)  max=  2.35673766322044E+01
DEBUG_STATS_RL:               Theta (DYNAMICS) mean=  2.00034836577663E+01
DEBUG_STATS_RL:               Theta (DYNAMICS) S.D.=  9.40990428726307E-02
DEBUG_STATS_RL:                Salt (DYNAMICS)  min=  2.38222414710635E+01
DEBUG_STATS_RL:                Salt (DYNAMICS)  max=  3.51508125233142E+01
DEBUG_STATS_RL:                Salt (DYNAMICS) mean=  3.49969614266386E+01
DEBUG_STATS_RL:                Salt (DYNAMICS) S.D.=  1.28147149468673E-01
DEBUG_STATS_RL:                  Gu (DYNAMICS)  min= -6.61275535981360E-01
DEBUG_STATS_RL:                  Gu (DYNAMICS)  max=  4.64778940710055E-01
DEBUG_STATS_RL:                  Gu (DYNAMICS) mean= -4.09174464074585E-04
DEBUG_STATS_RL:                  Gu (DYNAMICS) S.D.=  1.94183329027142E-02
DEBUG_STATS_RL:                  Gv (DYNAMICS)  min= -4.13044175562671E-01
DEBUG_STATS_RL:                  Gv (DYNAMICS)  max=  2.95604786927744E-01
DEBUG_STATS_RL:                  Gv (DYNAMICS) mean= -6.62864352044004E-04
DEBUG_STATS_RL:                  Gv (DYNAMICS) S.D.=  1.87314365507804E-02
DEBUG_STATS_RL:               GuNm1 (DYNAMICS)  min= -2.47002714809289E-05
DEBUG_STATS_RL:               GuNm1 (DYNAMICS)  max=  2.40435281687343E-05
DEBUG_STATS_RL:               GuNm1 (DYNAMICS) mean= -5.73164770895050E-09
DEBUG_STATS_RL:               GuNm1 (DYNAMICS) S.D.=  1.16684157446424E-06
DEBUG_STATS_RL:               GvNm1 (DYNAMICS)  min= -2.49612179374237E-05
DEBUG_STATS_RL:               GvNm1 (DYNAMICS)  max=  2.79912179062418E-05
DEBUG_STATS_RL:               GvNm1 (DYNAMICS) mean= -1.04915116146548E-08
DEBUG_STATS_RL:               GvNm1 (DYNAMICS) S.D.=  1.26070020398031E-06
DEBUG_STATS_RL:               GtNm1 (DYNAMICS)  min= -4.05700115257291E-06
DEBUG_STATS_RL:               GtNm1 (DYNAMICS)  max=  4.77043084509144E-06
DEBUG_STATS_RL:               GtNm1 (DYNAMICS) mean=  9.60445390065690E-10
DEBUG_STATS_RL:               GtNm1 (DYNAMICS) S.D.=  6.41204102501546E-08
DEBUG_STATS_RL:               GsNm1 (DYNAMICS)  min= -1.53807663594203E-05
DEBUG_STATS_RL:               GsNm1 (DYNAMICS)  max=  2.23882913210309E-06
DEBUG_STATS_RL:               GsNm1 (DYNAMICS) mean= -4.46545177120674E-09
DEBUG_STATS_RL:               GsNm1 (DYNAMICS) S.D.=  1.78147784999265E-07
(PID.TID 0000.0001) DEBUG_MSG: LEAVING S/R DYNAMICS
DEBUG_STATS_RL:    cg2d_b (SOLVE_FOR_PRESSURE)  min= -2.03066228643553E+05
DEBUG_STATS_RL:    cg2d_b (SOLVE_FOR_PRESSURE)  max=  1.91613682184424E+05
DEBUG_STATS_RL:    cg2d_b (SOLVE_FOR_PRESSURE) mean= -4.21607791865145E+03
DEBUG_STATS_RL:    cg2d_b (SOLVE_FOR_PRESSURE) S.D.=  7.95241796662120E+03
 cg2d: Sum(rhs),rhsMax =  -9.17684074053986E+01  3.89005123671388E+01
(PID.TID 0000.0001)  cg2d: iter=     1 ; resid.=  3.03308144965273E-02
(PID.TID 0000.0001)  cg2d: iter=     2 ; resid.=  3.79176724026670E-03
(PID.TID 0000.0001)  cg2d: iter=     3 ; resid.=  7.30383068021959E-04
(PID.TID 0000.0001)  cg2d: iter=     4 ; resid.=  2.00588014396369E-04
(PID.TID 0000.0001)  cg2d: iter=     5 ; resid.=  6.45259492927020E-05
(PID.TID 0000.0001)  cg2d: iter=     6 ; resid.=  1.75540888843663E-05
(PID.TID 0000.0001)  cg2d: iter=     7 ; resid.=  4.29131140626490E-06
(PID.TID 0000.0001)  cg2d: iter=     8 ; resid.=  9.77826469381929E-07
(PID.TID 0000.0001)  cg2d: iter=     9 ; resid.=  2.41781081288312E-07
(PID.TID 0000.0001)  cg2d: iter=    10 ; resid.=  7.29279791957880E-08
DEBUG_STATS_RL:    cg2d_x (SOLVE_FOR_PRESSURE)  min= -2.02601811353316E+01
DEBUG_STATS_RL:    cg2d_x (SOLVE_FOR_PRESSURE)  max=  1.66237845076348E+01
DEBUG_STATS_RL:    cg2d_x (SOLVE_FOR_PRESSURE) mean=  4.20355544354519E-01
DEBUG_STATS_RL:    cg2d_x (SOLVE_FOR_PRESSURE) S.D.=  8.17499516184372E-01
(PID.TID 0000.0001)      cg2d_init_res =   1.93781027574305E-01
(PID.TID 0000.0001)      cg2d_iters(min,last) =      -1      10
(PID.TID 0000.0001)      cg2d_last_res =   7.29279791957880E-08
(PID.TID 0000.0001) DEBUG_MSG: CALLING S/R UPDATE_ETAH
(PID.TID 0000.0001) DEBUG_MSG: ENTERED S/R CALC_R_STAR
(PID.TID 0000.0001) DEBUG_MSG: LEAVING S/R CALC_R_STAR
(PID.TID 0000.0001) DEBUG_MSG: CALLING S/R DO_STAGGER_FIELDS_EXCH.
(PID.TID 0000.0001) DEBUG_MSG: CALLING S/R THERMODYNAMICS
(PID.TID 0000.0001) DEBUG_MSG: ENTERED S/R THERMODYNAMICS
(PID.TID 0000.0001) DEBUG_MSG: CALLING S/R TEMP_INTEGRATE
(PID.TID 0000.0001) DEBUG_MSG: CALLING S/R SALT_INTEGRATE
DEBUG_STATS_RL:          Uvel (THERMODYNAMICS)  min= -6.32931435405403E-01
DEBUG_STATS_RL:          Uvel (THERMODYNAMICS)  max=  4.48562604723584E-01
DEBUG_STATS_RL:          Uvel (THERMODYNAMICS) mean= -4.15532328028302E-04
DEBUG_STATS_RL:          Uvel (THERMODYNAMICS) S.D.=  1.93699408822785E-02
DEBUG_STATS_RL:          Vvel (THERMODYNAMICS)  min= -3.85423969612963E-01
DEBUG_STATS_RL:          Vvel (THERMODYNAMICS)  max=  2.91650939559871E-01
DEBUG_STATS_RL:          Vvel (THERMODYNAMICS) mean= -6.70340899494111E-04
DEBUG_STATS_RL:          Vvel (THERMODYNAMICS) S.D.=  1.87240523695267E-02
DEBUG_STATS_RL:          Wvel (THERMODYNAMICS)  min= -1.85423907647154E-04
DEBUG_STATS_RL:          Wvel (THERMODYNAMICS)  max=  1.46562911081257E-04
DEBUG_STATS_RL:          Wvel (THERMODYNAMICS) mean= -2.73527242782490E-07
DEBUG_STATS_RL:          Wvel (THERMODYNAMICS) S.D.=  6.91672846310524E-06
DEBUG_STATS_RL:         Theta (THERMODYNAMICS)  min=  1.60562803739521E+01
DEBUG_STATS_RL:         Theta (THERMODYNAMICS)  max=  2.35972867283659E+01
DEBUG_STATS_RL:         Theta (THERMODYNAMICS) mean=  2.00035816621949E+01
DEBUG_STATS_RL:         Theta (THERMODYNAMICS) S.D.=  9.46529154591760E-02
DEBUG_STATS_RL:          Salt (THERMODYNAMICS)  min=  2.37671024523765E+01
DEBUG_STATS_RL:          Salt (THERMODYNAMICS)  max=  3.51508015114343E+01
DEBUG_STATS_RL:          Salt (THERMODYNAMICS) mean=  3.49969393417347E+01
DEBUG_STATS_RL:          Salt (THERMODYNAMICS) S.D.=  1.28825504749159E-01
DEBUG_STATS_RL:         GtNm1 (THERMODYNAMICS)  min= -3.49775262961571E-06
DEBUG_STATS_RL:         GtNm1 (THERMODYNAMICS)  max=  4.75648315486586E-06
DEBUG_STATS_RL:         GtNm1 (THERMODYNAMICS) mean=  1.02915141221486E-09
DEBUG_STATS_RL:         GtNm1 (THERMODYNAMICS) S.D.=  6.19737097714063E-08
DEBUG_STATS_RL:         GsNm1 (THERMODYNAMICS)  min= -1.52980993626618E-05
DEBUG_STATS_RL:         GsNm1 (THERMODYNAMICS)  max=  2.25604792870051E-06
DEBUG_STATS_RL:         GsNm1 (THERMODYNAMICS) mean= -4.44400300108966E-09
DEBUG_STATS_RL:         GsNm1 (THERMODYNAMICS) S.D.=  1.76901368314763E-07
(PID.TID 0000.0001) DEBUG_MSG: LEAVING S/R THERMODYNAMICS
(PID.TID 0000.0001) // =======================================================
(PID.TID 0000.0001) // Begin MONITOR dynamic field statistics
(PID.TID 0000.0001) // =======================================================
(PID.TID 0000.0001) %MON time_tsnumber                =                    73
(PID.TID 0000.0001) %MON time_secondsf                =   6.5700000000000E+04
(PID.TID 0000.0001) %MON dynstat_eta_max              =   1.6945753840347E+00
(PID.TID 0000.0001) %MON dynstat_eta_min              =  -2.0652580154750E+00
(PID.TID 0000.0001) %MON dynstat_eta_mean             =   4.1481045084853E-02
(PID.TID 0000.0001) %MON dynstat_eta_sd               =   7.8157751565455E-02
(PID.TID 0000.0001) %MON dynstat_eta_del2             =   1.5535755625227E-03
(PID.TID 0000.0001) %MON dynstat_uvel_max             =   4.4856260472358E-01
(PID.TID 0000.0001) %MON dynstat_uvel_min             =  -6.3293143540540E-01
(PID.TID 0000.0001) %MON dynstat_uvel_mean            =  -5.5830039626429E-06
(PID.TID 0000.0001) %MON dynstat_uvel_sd              =   6.5773287199068E-03
(PID.TID 0000.0001) %MON dynstat_uvel_del2            =   9.5847523439493E-05
(PID.TID 0000.0001) %MON dynstat_vvel_max             =   2.9165093955987E-01
(PID.TID 0000.0001) %MON dynstat_vvel_min             =  -3.8542396961296E-01
(PID.TID 0000.0001) %MON dynstat_vvel_mean            =   8.0025574193957E-04
(PID.TID 0000.0001) %MON dynstat_vvel_sd              =   6.3529549871376E-03
(PID.TID 0000.0001) %MON dynstat_vvel_del2            =   9.3701803582415E-05
(PID.TID 0000.0001) %MON dynstat_wvel_max             =   1.4656291108126E-04
(PID.TID 0000.0001) %MON dynstat_wvel_min             =  -1.8542390764715E-04
(PID.TID 0000.0001) %MON dynstat_wvel_mean            =  -2.0395887691069E-07
(PID.TID 0000.0001) %MON dynstat_wvel_sd              =   6.6758288129208E-06
(PID.TID 0000.0001) %MON dynstat_wvel_del2            =   7.1329685881347E-08
(PID.TID 0000.0001) %MON dynstat_theta_max            =   2.3597286728366E+01
(PID.TID 0000.0001) %MON dynstat_theta_min            =   1.6056280373952E+01
(PID.TID 0000.0001) %MON dynstat_theta_mean           =   1.9997911038209E+01
(PID.TID 0000.0001) %MON dynstat_theta_sd             =   3.1214304218408E-02
(PID.TID 0000.0001) %MON dynstat_theta_del2           =   5.4287776388861E-04
(PID.TID 0000.0001) %MON dynstat_salt_max             =   3.5150801511434E+01
(PID.TID 0000.0001) %MON dynstat_salt_min             =   2.3767102452376E+01
(PID.TID 0000.0001) %MON dynstat_salt_mean            =   3.4999602996809E+01
(PID.TID 0000.0001) %MON dynstat_salt_sd              =   3.9762776822690E-02
(PID.TID 0000.0001) %MON dynstat_salt_del2            =   1.3686970356200E-03
(PID.TID 0000.0001) %MON dynstat_sst_max              =   2.3597286728366E+01
(PID.TID 0000.0001) %MON dynstat_sst_min              =   1.6056280373952E+01
(PID.TID 0000.0001) %MON dynstat_sst_mean             =   2.0147671053488E+01
(PID.TID 0000.0001) %MON dynstat_sst_sd               =   2.9149527601605E-01
(PID.TID 0000.0001) %MON dynstat_sst_del2             =   6.3619584262337E-03
(PID.TID 0000.0001) %MON dynstat_sss_max              =   3.5150801511434E+01
(PID.TID 0000.0001) %MON dynstat_sss_min              =   2.3767102452376E+01
(PID.TID 0000.0001) %MON dynstat_sss_mean             =   3.4963628883731E+01
(PID.TID 0000.0001) %MON dynstat_sss_sd               =   4.7942516403856E-01
(PID.TID 0000.0001) %MON dynstat_sss_del2             =   1.8525231023640E-02
(PID.TID 0000.0001) %MON forcing_qnet_max             =   2.5396376953125E+03
(PID.TID 0000.0001) %MON forcing_qnet_min             =  -3.0527285156250E+03
(PID.TID 0000.0001) %MON forcing_qnet_mean            =  -1.9128223530638E+01
(PID.TID 0000.0001) %MON forcing_qnet_sd              =   4.6281041785748E+02
(PID.TID 0000.0001) %MON forcing_qnet_del2            =   6.1924743880481E+00
(PID.TID 0000.0001) %MON forcing_qsw_max              =   0.0000000000000E+00
(PID.TID 0000.0001) %MON forcing_qsw_min              =  -1.0898002389216E+02
(PID.TID 0000.0001) %MON forcing_qsw_mean             =  -1.7650017968192E+01
(PID.TID 0000.0001) %MON forcing_qsw_sd               =   2.8539941081844E+01
(PID.TID 0000.0001) %MON forcing_qsw_del2             =   2.4415900217135E-01
(PID.TID 0000.0001) %MON forcing_empmr_max            =   5.2627301774919E-03
(PID.TID 0000.0001) %MON forcing_empmr_min            =  -7.5642801821232E-02
(PID.TID 0000.0001) %MON forcing_empmr_mean           =  -3.7292803373956E-04
(PID.TID 0000.0001) %MON forcing_empmr_sd             =   3.3648047683084E-03
(PID.TID 0000.0001) %MON forcing_empmr_del2           =   1.3142971802400E-04
(PID.TID 0000.0001) %MON forcing_fu_max               =   5.6984608499622E-01
(PID.TID 0000.0001) %MON forcing_fu_min               =  -6.3277067271195E-01
(PID.TID 0000.0001) %MON forcing_fu_mean              =  -5.2395585658219E-04
(PID.TID 0000.0001) %MON forcing_fu_sd                =   8.5349499158233E-02
(PID.TID 0000.0001) %MON forcing_fu_del2              =   7.1866557285366E-04
(PID.TID 0000.0001) %MON forcing_fv_max               =   3.8221897814888E-01
(PID.TID 0000.0001) %MON forcing_fv_min               =  -3.7838789421253E-01
(PID.TID 0000.0001) %MON forcing_fv_mean              =  -7.2635846661072E-03
(PID.TID 0000.0001) %MON forcing_fv_sd                =   7.1759776996706E-02
(PID.TID 0000.0001) %MON forcing_fv_del2              =   5.9677781690037E-04
(PID.TID 0000.0001) %MON trAdv_CFL_u_max              =   1.8691474680488E-03
(PID.TID 0000.0001) %MON trAdv_CFL_v_max              =   1.4675442018037E-03
(PID.TID 0000.0001) %MON trAdv_CFL_w_max              =   2.7649816957114E-03
(PID.TID 0000.0001) %MON advcfl_uvel_max              =   1.8393045453804E-03
(PID.TID 0000.0001) %MON advcfl_vvel_max              =   1.4134111515287E-03
(PID.TID 0000.0001) %MON advcfl_wvel_max              =   5.2621079527813E-03
(PID.TID 0000.0001) %MON advcfl_W_hf_max              =   2.7649816957114E-03
(PID.TID 0000.0001) %MON pe_b_mean                    =   1.0429972799017E-05
(PID.TID 0000.0001) %MON ke_max                       =   1.5821062100348E-01
(PID.TID 0000.0001) %MON ke_mean                      =   3.8898391855214E-05
(PID.TID 0000.0001) %MON ke_vol                       =   1.3398174217618E+18
(PID.TID 0000.0001) %MON vort_r_min                   =  -3.2460606170452E-06
(PID.TID 0000.0001) %MON vort_r_max                   =   2.5530925066959E-06
(PID.TID 0000.0001) %MON vort_a_mean                  =  -2.0549865324846E-05
(PID.TID 0000.0001) %MON vort_a_sd                    =   7.5259460380387E-05
(PID.TID 0000.0001) %MON vort_p_mean                  =  -2.4783243554337E-05
(PID.TID 0000.0001) %MON vort_p_sd                    =   1.2810519528529E-04
(PID.TID 0000.0001) %MON surfExpan_theta_mean         =  -4.3051040531906E-07
(PID.TID 0000.0001) %MON surfExpan_salt_mean          =   1.5492564420352E-06
(PID.TID 0000.0001) // =======================================================
(PID.TID 0000.0001) // End MONITOR dynamic field statistics
(PID.TID 0000.0001) // =======================================================
(PID.TID 0000.0001) DEBUG_MSG: LEAVING S/R FORWARD_STEP
(PID.TID 0000.0001) DEBUG_MSG: ENTERED S/R FORWARD_STEP
(PID.TID 0000.0001) DEBUG_MSG: CALLING S/R LOAD_FIELDS_DRIVER
(PID.TID 0000.0001) DEBUG_MSG: ENTERED S/R LOAD_FIELDS_DRIVER
(PID.TID 0000.0001) DEBUG_MSG: CALLING S/R EXTERNAL_FIELDS_LOAD
(PID.TID 0000.0001) DEBUG_MSG: LEAVING S/R LOAD_FIELDS_DRIVER
(PID.TID 0000.0001) DEBUG_MSG: CALLING S/R DO_ATMOSPHERIC_PHYS
(PID.TID 0000.0001) DEBUG_MSG: ENTERED S/R DO_ATMOSPHERIC_PHYS
(PID.TID 0000.0001) DEBUG_MSG: LEAVING S/R DO_ATMOSPHERIC_PHYS
(PID.TID 0000.0001) DEBUG_MSG: CALLING S/R DO_OCEANIC_PHYS
(PID.TID 0000.0001) DEBUG_MSG: ENTERED S/R DO_OCEANIC_PHYS
(PID.TID 0000.0001) DEBUG_MSG: CALLING S/R EXTERNAL_FORCING_SURF
(PID.TID 0000.0001) DEBUG_MSG: CALLING S/R FIND_RHO_2D (xNr)
(PID.TID 0000.0001) DEBUG_MSG:                  ENTERING UPWARD K LOOP (bi=   1, bj=   1)
(PID.TID 0000.0001) DEBUG_MSG: CALLING S/R GRAD_SIGMA
(PID.TID 0000.0001) DEBUG_MSG: CALLING S/R CALC_IVDC
(PID.TID 0000.0001) DEBUG_MSG: CALLING S/R GRAD_SIGMA
(PID.TID 0000.0001) DEBUG_MSG: CALLING S/R CALC_IVDC
(PID.TID 0000.0001) DEBUG_MSG: CALLING S/R GRAD_SIGMA
(PID.TID 0000.0001) DEBUG_MSG: CALLING S/R CALC_IVDC
(PID.TID 0000.0001) DEBUG_MSG: CALLING S/R GRAD_SIGMA
(PID.TID 0000.0001) DEBUG_MSG: CALLING S/R CALC_IVDC
(PID.TID 0000.0001) DEBUG_MSG: CALLING S/R GRAD_SIGMA
(PID.TID 0000.0001) DEBUG_MSG: CALLING S/R CALC_IVDC
(PID.TID 0000.0001) DEBUG_MSG: CALLING S/R GRAD_SIGMA
(PID.TID 0000.0001) DEBUG_MSG: CALLING S/R CALC_IVDC
(PID.TID 0000.0001) DEBUG_MSG: CALLING S/R GRAD_SIGMA
(PID.TID 0000.0001) DEBUG_MSG: CALLING S/R CALC_IVDC
(PID.TID 0000.0001) DEBUG_MSG: CALLING S/R GRAD_SIGMA
(PID.TID 0000.0001) DEBUG_MSG: CALLING S/R CALC_IVDC
(PID.TID 0000.0001) DEBUG_MSG: CALLING S/R GRAD_SIGMA
(PID.TID 0000.0001) DEBUG_MSG: CALLING S/R CALC_IVDC
(PID.TID 0000.0001) DEBUG_MSG: CALLING S/R GRAD_SIGMA
(PID.TID 0000.0001) DEBUG_MSG: CALLING S/R CALC_IVDC
(PID.TID 0000.0001) DEBUG_MSG: CALLING S/R GRAD_SIGMA
(PID.TID 0000.0001) DEBUG_MSG: CALLING S/R CALC_IVDC
(PID.TID 0000.0001) DEBUG_MSG: CALLING S/R GRAD_SIGMA
(PID.TID 0000.0001) DEBUG_MSG: CALLING S/R CALC_IVDC
(PID.TID 0000.0001) DEBUG_MSG: CALLING S/R GRAD_SIGMA
(PID.TID 0000.0001) DEBUG_MSG: CALLING S/R CALC_IVDC
(PID.TID 0000.0001) DEBUG_MSG: CALLING S/R GRAD_SIGMA
(PID.TID 0000.0001) DEBUG_MSG: CALLING S/R CALC_IVDC
(PID.TID 0000.0001) DEBUG_MSG: CALLING S/R GRAD_SIGMA
(PID.TID 0000.0001) DEBUG_MSG: CALLING S/R CALC_IVDC
(PID.TID 0000.0001) DEBUG_MSG: CALLING S/R GRAD_SIGMA
(PID.TID 0000.0001) DEBUG_MSG: CALLING S/R GMREDI_CALC_TENSOR
(PID.TID 0000.0001) DEBUG_MSG: LEAVING S/R DO_OCEANIC_PHYS
(PID.TID 0000.0001) DEBUG_MSG: CALLING S/R DYNAMICS
(PID.TID 0000.0001) DEBUG_MSG: ENTERED S/R DYNAMICS
DEBUG_STATS_RL:                EtaN (DYNAMICS)  min= -2.06525801547503E+00
DEBUG_STATS_RL:                EtaN (DYNAMICS)  max=  1.69457538403470E+00
DEBUG_STATS_RL:                EtaN (DYNAMICS) mean=  4.28496987737228E-02
DEBUG_STATS_RL:                EtaN (DYNAMICS) S.D.=  8.33332841164207E-02
DEBUG_STATS_RL:                Uvel (DYNAMICS)  min= -6.32931435405403E-01
DEBUG_STATS_RL:                Uvel (DYNAMICS)  max=  4.48562604723584E-01
DEBUG_STATS_RL:                Uvel (DYNAMICS) mean= -4.15532328028302E-04
DEBUG_STATS_RL:                Uvel (DYNAMICS) S.D.=  1.93699408822785E-02
DEBUG_STATS_RL:                Vvel (DYNAMICS)  min= -3.85423969612963E-01
DEBUG_STATS_RL:                Vvel (DYNAMICS)  max=  2.91650939559871E-01
DEBUG_STATS_RL:                Vvel (DYNAMICS) mean= -6.70340899494111E-04
DEBUG_STATS_RL:                Vvel (DYNAMICS) S.D.=  1.87240523695267E-02
DEBUG_STATS_RL:                Wvel (DYNAMICS)  min= -1.85423907647154E-04
DEBUG_STATS_RL:                Wvel (DYNAMICS)  max=  1.46562911081257E-04
DEBUG_STATS_RL:                Wvel (DYNAMICS) mean= -2.73527242782490E-07
DEBUG_STATS_RL:                Wvel (DYNAMICS) S.D.=  6.91672846310524E-06
DEBUG_STATS_RL:               Theta (DYNAMICS)  min=  1.60562803739521E+01
DEBUG_STATS_RL:               Theta (DYNAMICS)  max=  2.35972867283659E+01
DEBUG_STATS_RL:               Theta (DYNAMICS) mean=  2.00035816621949E+01
DEBUG_STATS_RL:               Theta (DYNAMICS) S.D.=  9.46529154591760E-02
DEBUG_STATS_RL:                Salt (DYNAMICS)  min=  2.37671024523765E+01
DEBUG_STATS_RL:                Salt (DYNAMICS)  max=  3.51508015114343E+01
DEBUG_STATS_RL:                Salt (DYNAMICS) mean=  3.49969393417347E+01
DEBUG_STATS_RL:                Salt (DYNAMICS) S.D.=  1.28825504749159E-01
DEBUG_STATS_RL:                  Gu (DYNAMICS)  min= -6.42111088110330E-01
DEBUG_STATS_RL:                  Gu (DYNAMICS)  max=  4.27711161175606E-01
DEBUG_STATS_RL:                  Gu (DYNAMICS) mean= -4.23513451434604E-04
DEBUG_STATS_RL:                  Gu (DYNAMICS) S.D.=  1.95696681059585E-02
DEBUG_STATS_RL:                  Gv (DYNAMICS)  min= -3.76189470635139E-01
DEBUG_STATS_RL:                  Gv (DYNAMICS)  max=  2.94242040453678E-01
DEBUG_STATS_RL:                  Gv (DYNAMICS) mean= -6.76222672468223E-04
DEBUG_STATS_RL:                  Gv (DYNAMICS) S.D.=  1.88141367897222E-02
DEBUG_STATS_RL:               GuNm1 (DYNAMICS)  min= -2.35808437065775E-05
DEBUG_STATS_RL:               GuNm1 (DYNAMICS)  max=  2.40205263593978E-05
DEBUG_STATS_RL:               GuNm1 (DYNAMICS) mean= -7.98934037888792E-09
DEBUG_STATS_RL:               GuNm1 (DYNAMICS) S.D.=  1.13737139943287E-06
DEBUG_STATS_RL:               GvNm1 (DYNAMICS)  min= -2.39532343046157E-05
DEBUG_STATS_RL:               GvNm1 (DYNAMICS)  max=  2.82622178814389E-05
DEBUG_STATS_RL:               GvNm1 (DYNAMICS) mean= -8.85325342976843E-09
DEBUG_STATS_RL:               GvNm1 (DYNAMICS) S.D.=  1.27044856283302E-06
DEBUG_STATS_RL:               GtNm1 (DYNAMICS)  min= -3.49775262961571E-06
DEBUG_STATS_RL:               GtNm1 (DYNAMICS)  max=  4.75648315486586E-06
DEBUG_STATS_RL:               GtNm1 (DYNAMICS) mean=  1.02915141221486E-09
DEBUG_STATS_RL:               GtNm1 (DYNAMICS) S.D.=  6.19737097714063E-08
DEBUG_STATS_RL:               GsNm1 (DYNAMICS)  min= -1.52980993626618E-05
DEBUG_STATS_RL:               GsNm1 (DYNAMICS)  max=  2.25604792870051E-06
DEBUG_STATS_RL:               GsNm1 (DYNAMICS) mean= -4.44400300108966E-09
DEBUG_STATS_RL:               GsNm1 (DYNAMICS) S.D.=  1.76901368314763E-07
(PID.TID 0000.0001) DEBUG_MSG: LEAVING S/R DYNAMICS
DEBUG_STATS_RL:    cg2d_b (SOLVE_FOR_PRESSURE)  min= -2.05815257117443E+05
DEBUG_STATS_RL:    cg2d_b (SOLVE_FOR_PRESSURE)  max=  1.89846022498556E+05
DEBUG_STATS_RL:    cg2d_b (SOLVE_FOR_PRESSURE) mean= -4.24889808248666E+03
DEBUG_STATS_RL:    cg2d_b (SOLVE_FOR_PRESSURE) S.D.=  7.99712464825761E+03
 cg2d: Sum(rhs),rhsMax =  -9.12475089923711E+01  3.94271317703774E+01
(PID.TID 0000.0001)  cg2d: iter=     1 ; resid.=  2.97295766804491E-02
(PID.TID 0000.0001)  cg2d: iter=     2 ; resid.=  3.77502104221647E-03
(PID.TID 0000.0001)  cg2d: iter=     3 ; resid.=  7.44063158661363E-04
(PID.TID 0000.0001)  cg2d: iter=     4 ; resid.=  2.08044950897448E-04
(PID.TID 0000.0001)  cg2d: iter=     5 ; resid.=  6.54019974241281E-05
(PID.TID 0000.0001)  cg2d: iter=     6 ; resid.=  1.72018303012025E-05
(PID.TID 0000.0001)  cg2d: iter=     7 ; resid.=  4.04958713166794E-06
(PID.TID 0000.0001)  cg2d: iter=     8 ; resid.=  9.32833512695387E-07
(PID.TID 0000.0001)  cg2d: iter=     9 ; resid.=  2.47500027289835E-07
(PID.TID 0000.0001)  cg2d: iter=    10 ; resid.=  7.70752434033371E-08
DEBUG_STATS_RL:    cg2d_x (SOLVE_FOR_PRESSURE)  min= -2.00756232809705E+01
DEBUG_STATS_RL:    cg2d_x (SOLVE_FOR_PRESSURE)  max=  1.68477236282816E+01
DEBUG_STATS_RL:    cg2d_x (SOLVE_FOR_PRESSURE) mean=  4.22636002346150E-01
DEBUG_STATS_RL:    cg2d_x (SOLVE_FOR_PRESSURE) S.D.=  8.17494842999334E-01
(PID.TID 0000.0001)      cg2d_init_res =   1.85262527320310E-01
(PID.TID 0000.0001)      cg2d_iters(min,last) =      -1      10
(PID.TID 0000.0001)      cg2d_last_res =   7.70752434033371E-08
(PID.TID 0000.0001) DEBUG_MSG: CALLING S/R UPDATE_ETAH
(PID.TID 0000.0001) DEBUG_MSG: ENTERED S/R CALC_R_STAR
(PID.TID 0000.0001) DEBUG_MSG: LEAVING S/R CALC_R_STAR
(PID.TID 0000.0001) DEBUG_MSG: CALLING S/R DO_STAGGER_FIELDS_EXCH.
(PID.TID 0000.0001) DEBUG_MSG: CALLING S/R THERMODYNAMICS
(PID.TID 0000.0001) DEBUG_MSG: ENTERED S/R THERMODYNAMICS
(PID.TID 0000.0001) DEBUG_MSG: CALLING S/R TEMP_INTEGRATE
(PID.TID 0000.0001) DEBUG_MSG: CALLING S/R SALT_INTEGRATE
DEBUG_STATS_RL:          Uvel (THERMODYNAMICS)  min= -6.11468475181480E-01
DEBUG_STATS_RL:          Uvel (THERMODYNAMICS)  max=  4.07049204834055E-01
DEBUG_STATS_RL:          Uvel (THERMODYNAMICS) mean= -4.30755874227470E-04
DEBUG_STATS_RL:          Uvel (THERMODYNAMICS) S.D.=  1.95339850914233E-02
DEBUG_STATS_RL:          Vvel (THERMODYNAMICS)  min= -3.47165577010648E-01
DEBUG_STATS_RL:          Vvel (THERMODYNAMICS)  max=  2.88497590237557E-01
DEBUG_STATS_RL:          Vvel (THERMODYNAMICS) mean= -6.83807861246371E-04
DEBUG_STATS_RL:          Vvel (THERMODYNAMICS) S.D.=  1.88281826459348E-02
DEBUG_STATS_RL:          Wvel (THERMODYNAMICS)  min= -1.79570883848340E-04
DEBUG_STATS_RL:          Wvel (THERMODYNAMICS)  max=  1.48133241591906E-04
DEBUG_STATS_RL:          Wvel (THERMODYNAMICS) mean= -2.71215521214756E-07
DEBUG_STATS_RL:          Wvel (THERMODYNAMICS) S.D.=  6.88586954524857E-06
DEBUG_STATS_RL:         Theta (THERMODYNAMICS)  min=  1.60533170882688E+01
DEBUG_STATS_RL:         Theta (THERMODYNAMICS)  max=  2.36268132233891E+01
DEBUG_STATS_RL:         Theta (THERMODYNAMICS) mean=  2.00036801262144E+01
DEBUG_STATS_RL:         Theta (THERMODYNAMICS) S.D.=  9.52006433258835E-02
DEBUG_STATS_RL:          Salt (THERMODYNAMICS)  min=  2.37131732534386E+01
DEBUG_STATS_RL:          Salt (THERMODYNAMICS)  max=  3.51507917769306E+01
DEBUG_STATS_RL:          Salt (THERMODYNAMICS) mean=  3.49969178165269E+01
DEBUG_STATS_RL:          Salt (THERMODYNAMICS) S.D.=  1.29489714911840E-01
DEBUG_STATS_RL:         GtNm1 (THERMODYNAMICS)  min= -3.46336015748732E-06
DEBUG_STATS_RL:         GtNm1 (THERMODYNAMICS)  max=  4.73859893165590E-06
DEBUG_STATS_RL:         GtNm1 (THERMODYNAMICS) mean=  1.09508709834094E-09
DEBUG_STATS_RL:         GtNm1 (THERMODYNAMICS) S.D.=  6.06486157717247E-08
DEBUG_STATS_RL:         GsNm1 (THERMODYNAMICS)  min= -1.52146441351284E-05
DEBUG_STATS_RL:         GsNm1 (THERMODYNAMICS)  max=  2.27478590262321E-06
DEBUG_STATS_RL:         GsNm1 (THERMODYNAMICS) mean= -4.42180504428217E-09
DEBUG_STATS_RL:         GsNm1 (THERMODYNAMICS) S.D.=  1.75646399318220E-07
(PID.TID 0000.0001) DEBUG_MSG: LEAVING S/R THERMODYNAMICS
(PID.TID 0000.0001) // =======================================================
(PID.TID 0000.0001) // Begin MONITOR dynamic field statistics
(PID.TID 0000.0001) // =======================================================
(PID.TID 0000.0001) %MON time_tsnumber                =                    74
(PID.TID 0000.0001) %MON time_secondsf                =   6.6600000000000E+04
(PID.TID 0000.0001) %MON dynstat_eta_max              =   1.7174030211489E+00
(PID.TID 0000.0001) %MON dynstat_eta_min              =  -2.0464447771856E+00
(PID.TID 0000.0001) %MON dynstat_eta_mean             =   4.1803955316117E-02
(PID.TID 0000.0001) %MON dynstat_eta_sd               =   7.8386155989921E-02
(PID.TID 0000.0001) %MON dynstat_eta_del2             =   1.5641631881211E-03
(PID.TID 0000.0001) %MON dynstat_uvel_max             =   4.0704920483405E-01
(PID.TID 0000.0001) %MON dynstat_uvel_min             =  -6.1146847518148E-01
(PID.TID 0000.0001) %MON dynstat_uvel_mean            =  -1.3155892728453E-05
(PID.TID 0000.0001) %MON dynstat_uvel_sd              =   6.6159517933428E-03
(PID.TID 0000.0001) %MON dynstat_uvel_del2            =   9.4572819533939E-05
(PID.TID 0000.0001) %MON dynstat_vvel_max             =   2.8849759023756E-01
(PID.TID 0000.0001) %MON dynstat_vvel_min             =  -3.4716557701065E-01
(PID.TID 0000.0001) %MON dynstat_vvel_mean            =   7.7278117988423E-04
(PID.TID 0000.0001) %MON dynstat_vvel_sd              =   6.3830513277863E-03
(PID.TID 0000.0001) %MON dynstat_vvel_del2            =   9.2998334218380E-05
(PID.TID 0000.0001) %MON dynstat_wvel_max             =   1.4813324159191E-04
(PID.TID 0000.0001) %MON dynstat_wvel_min             =  -1.7957088384834E-04
(PID.TID 0000.0001) %MON dynstat_wvel_mean            =  -1.9443202817640E-07
(PID.TID 0000.0001) %MON dynstat_wvel_sd              =   6.6461120145113E-06
(PID.TID 0000.0001) %MON dynstat_wvel_del2            =   7.1207457886365E-08
(PID.TID 0000.0001) %MON dynstat_theta_max            =   2.3626813223389E+01
(PID.TID 0000.0001) %MON dynstat_theta_min            =   1.6053317088269E+01
(PID.TID 0000.0001) %MON dynstat_theta_mean           =   1.9997912246036E+01
(PID.TID 0000.0001) %MON dynstat_theta_sd             =   3.1385840437572E-02
(PID.TID 0000.0001) %MON dynstat_theta_del2           =   5.4519079611348E-04
(PID.TID 0000.0001) %MON dynstat_salt_max             =   3.5150791776931E+01
(PID.TID 0000.0001) %MON dynstat_salt_min             =   2.3713173253439E+01
(PID.TID 0000.0001) %MON dynstat_salt_mean            =   3.4999600238256E+01
(PID.TID 0000.0001) %MON dynstat_salt_sd              =   3.9966862921275E-02
(PID.TID 0000.0001) %MON dynstat_salt_del2            =   1.3751320114495E-03
(PID.TID 0000.0001) %MON dynstat_sst_max              =   2.3626813223389E+01
(PID.TID 0000.0001) %MON dynstat_sst_min              =   1.6053317088269E+01
(PID.TID 0000.0001) %MON dynstat_sst_mean             =   2.0149156606693E+01
(PID.TID 0000.0001) %MON dynstat_sst_sd               =   2.9322186980930E-01
(PID.TID 0000.0001) %MON dynstat_sst_del2             =   6.3960354754549E-03
(PID.TID 0000.0001) %MON dynstat_sss_max              =   3.5150791776931E+01
(PID.TID 0000.0001) %MON dynstat_sss_min              =   2.3713173253439E+01
(PID.TID 0000.0001) %MON dynstat_sss_mean             =   3.4963372742562E+01
(PID.TID 0000.0001) %MON dynstat_sss_sd               =   4.8188641032995E-01
(PID.TID 0000.0001) %MON dynstat_sss_del2             =   1.8611966538596E-02
(PID.TID 0000.0001) %MON forcing_qnet_max             =   2.5071235351562E+03
(PID.TID 0000.0001) %MON forcing_qnet_min             =  -2.9201520996094E+03
(PID.TID 0000.0001) %MON forcing_qnet_mean            =  -1.8720816913807E+01
(PID.TID 0000.0001) %MON forcing_qnet_sd              =   4.5964465719455E+02
(PID.TID 0000.0001) %MON forcing_qnet_del2            =   5.6422951898046E+00
(PID.TID 0000.0001) %MON forcing_qsw_max              =   0.0000000000000E+00
(PID.TID 0000.0001) %MON forcing_qsw_min              =  -1.0854650941188E+02
(PID.TID 0000.0001) %MON forcing_qsw_mean             =  -1.7839478366866E+01
(PID.TID 0000.0001) %MON forcing_qsw_sd               =   2.8453723658780E+01
(PID.TID 0000.0001) %MON forcing_qsw_del2             =   2.4453110719285E-01
(PID.TID 0000.0001) %MON forcing_empmr_max            =   5.2086077630520E-03
(PID.TID 0000.0001) %MON forcing_empmr_min            =  -7.4864134192467E-02
(PID.TID 0000.0001) %MON forcing_empmr_mean           =  -3.7134676595418E-04
(PID.TID 0000.0001) %MON forcing_empmr_sd             =   3.3310504955089E-03
(PID.TID 0000.0001) %MON forcing_empmr_del2           =   1.3008181940223E-04
(PID.TID 0000.0001) %MON forcing_fu_max               =   5.6484253852080E-01
(PID.TID 0000.0001) %MON forcing_fu_min               =  -6.3207942863163E-01
(PID.TID 0000.0001) %MON forcing_fu_mean              =  -5.4837062298621E-04
(PID.TID 0000.0001) %MON forcing_fu_sd                =   8.4949473678146E-02
(PID.TID 0000.0001) %MON forcing_fu_del2              =   7.1639311011013E-04
(PID.TID 0000.0001) %MON forcing_fv_max               =   3.8030603142480E-01
(PID.TID 0000.0001) %MON forcing_fv_min               =  -3.7405337414443E-01
(PID.TID 0000.0001) %MON forcing_fv_mean              =  -7.2070380712688E-03
(PID.TID 0000.0001) %MON forcing_fv_sd                =   7.1536129408783E-02
(PID.TID 0000.0001) %MON forcing_fv_del2              =   5.9391894827951E-04
(PID.TID 0000.0001) %MON trAdv_CFL_u_max              =   1.8073403609680E-03
(PID.TID 0000.0001) %MON trAdv_CFL_v_max              =   1.4741661636869E-03
(PID.TID 0000.0001) %MON trAdv_CFL_w_max              =   2.6638102085558E-03
(PID.TID 0000.0001) %MON advcfl_uvel_max              =   1.7769329864896E-03
(PID.TID 0000.0001) %MON advcfl_vvel_max              =   1.4182384873547E-03
(PID.TID 0000.0001) %MON advcfl_wvel_max              =   5.2079397699107E-03
(PID.TID 0000.0001) %MON advcfl_W_hf_max              =   2.6638102085558E-03
(PID.TID 0000.0001) %MON pe_b_mean                    =   1.0513430852018E-05
(PID.TID 0000.0001) %MON ke_max                       =   1.4414402893341E-01
(PID.TID 0000.0001) %MON ke_mean                      =   3.9290381616547E-05
(PID.TID 0000.0001) %MON ke_vol                       =   1.3398175397649E+18
(PID.TID 0000.0001) %MON vort_r_min                   =  -3.0451082992097E-06
(PID.TID 0000.0001) %MON vort_r_max                   =   2.5403160131818E-06
(PID.TID 0000.0001) %MON vort_a_mean                  =  -2.0549865324846E-05
(PID.TID 0000.0001) %MON vort_a_sd                    =   7.5259455264106E-05
(PID.TID 0000.0001) %MON vort_p_mean                  =  -2.4783241252838E-05
(PID.TID 0000.0001) %MON vort_p_sd                    =   1.2810517519783E-04
(PID.TID 0000.0001) %MON surfExpan_theta_mean         =  -4.5248420175248E-07
(PID.TID 0000.0001) %MON surfExpan_salt_mean          =   1.5427125912820E-06
(PID.TID 0000.0001) // =======================================================
(PID.TID 0000.0001) // End MONITOR dynamic field statistics
(PID.TID 0000.0001) // =======================================================
(PID.TID 0000.0001) DEBUG_MSG: LEAVING S/R FORWARD_STEP
(PID.TID 0000.0001) DEBUG_MSG: ENTERED S/R FORWARD_STEP
(PID.TID 0000.0001) DEBUG_MSG: CALLING S/R LOAD_FIELDS_DRIVER
(PID.TID 0000.0001) DEBUG_MSG: ENTERED S/R LOAD_FIELDS_DRIVER
(PID.TID 0000.0001) DEBUG_MSG: CALLING S/R EXTERNAL_FIELDS_LOAD
(PID.TID 0000.0001) DEBUG_MSG: LEAVING S/R LOAD_FIELDS_DRIVER
(PID.TID 0000.0001) DEBUG_MSG: CALLING S/R DO_ATMOSPHERIC_PHYS
(PID.TID 0000.0001) DEBUG_MSG: ENTERED S/R DO_ATMOSPHERIC_PHYS
(PID.TID 0000.0001) DEBUG_MSG: LEAVING S/R DO_ATMOSPHERIC_PHYS
(PID.TID 0000.0001) DEBUG_MSG: CALLING S/R DO_OCEANIC_PHYS
(PID.TID 0000.0001) DEBUG_MSG: ENTERED S/R DO_OCEANIC_PHYS
(PID.TID 0000.0001) DEBUG_MSG: CALLING S/R EXTERNAL_FORCING_SURF
(PID.TID 0000.0001) DEBUG_MSG: CALLING S/R FIND_RHO_2D (xNr)
(PID.TID 0000.0001) DEBUG_MSG:                  ENTERING UPWARD K LOOP (bi=   1, bj=   1)
(PID.TID 0000.0001) DEBUG_MSG: CALLING S/R GRAD_SIGMA
(PID.TID 0000.0001) DEBUG_MSG: CALLING S/R CALC_IVDC
(PID.TID 0000.0001) DEBUG_MSG: CALLING S/R GRAD_SIGMA
(PID.TID 0000.0001) DEBUG_MSG: CALLING S/R CALC_IVDC
(PID.TID 0000.0001) DEBUG_MSG: CALLING S/R GRAD_SIGMA
(PID.TID 0000.0001) DEBUG_MSG: CALLING S/R CALC_IVDC
(PID.TID 0000.0001) DEBUG_MSG: CALLING S/R GRAD_SIGMA
(PID.TID 0000.0001) DEBUG_MSG: CALLING S/R CALC_IVDC
(PID.TID 0000.0001) DEBUG_MSG: CALLING S/R GRAD_SIGMA
(PID.TID 0000.0001) DEBUG_MSG: CALLING S/R CALC_IVDC
(PID.TID 0000.0001) DEBUG_MSG: CALLING S/R GRAD_SIGMA
(PID.TID 0000.0001) DEBUG_MSG: CALLING S/R CALC_IVDC
(PID.TID 0000.0001) DEBUG_MSG: CALLING S/R GRAD_SIGMA
(PID.TID 0000.0001) DEBUG_MSG: CALLING S/R CALC_IVDC
(PID.TID 0000.0001) DEBUG_MSG: CALLING S/R GRAD_SIGMA
(PID.TID 0000.0001) DEBUG_MSG: CALLING S/R CALC_IVDC
(PID.TID 0000.0001) DEBUG_MSG: CALLING S/R GRAD_SIGMA
(PID.TID 0000.0001) DEBUG_MSG: CALLING S/R CALC_IVDC
(PID.TID 0000.0001) DEBUG_MSG: CALLING S/R GRAD_SIGMA
(PID.TID 0000.0001) DEBUG_MSG: CALLING S/R CALC_IVDC
(PID.TID 0000.0001) DEBUG_MSG: CALLING S/R GRAD_SIGMA
(PID.TID 0000.0001) DEBUG_MSG: CALLING S/R CALC_IVDC
(PID.TID 0000.0001) DEBUG_MSG: CALLING S/R GRAD_SIGMA
(PID.TID 0000.0001) DEBUG_MSG: CALLING S/R CALC_IVDC
(PID.TID 0000.0001) DEBUG_MSG: CALLING S/R GRAD_SIGMA
(PID.TID 0000.0001) DEBUG_MSG: CALLING S/R CALC_IVDC
(PID.TID 0000.0001) DEBUG_MSG: CALLING S/R GRAD_SIGMA
(PID.TID 0000.0001) DEBUG_MSG: CALLING S/R CALC_IVDC
(PID.TID 0000.0001) DEBUG_MSG: CALLING S/R GRAD_SIGMA
(PID.TID 0000.0001) DEBUG_MSG: CALLING S/R CALC_IVDC
(PID.TID 0000.0001) DEBUG_MSG: CALLING S/R GRAD_SIGMA
(PID.TID 0000.0001) DEBUG_MSG: CALLING S/R GMREDI_CALC_TENSOR
(PID.TID 0000.0001) DEBUG_MSG: LEAVING S/R DO_OCEANIC_PHYS
(PID.TID 0000.0001) DEBUG_MSG: CALLING S/R DYNAMICS
(PID.TID 0000.0001) DEBUG_MSG: ENTERED S/R DYNAMICS
DEBUG_STATS_RL:                EtaN (DYNAMICS)  min= -2.04644477718559E+00
DEBUG_STATS_RL:                EtaN (DYNAMICS)  max=  1.71740302114888E+00
DEBUG_STATS_RL:                EtaN (DYNAMICS) mean=  4.30821612521071E-02
DEBUG_STATS_RL:                EtaN (DYNAMICS) S.D.=  8.33328077684504E-02
DEBUG_STATS_RL:                Uvel (DYNAMICS)  min= -6.11468475181480E-01
DEBUG_STATS_RL:                Uvel (DYNAMICS)  max=  4.07049204834055E-01
DEBUG_STATS_RL:                Uvel (DYNAMICS) mean= -4.30755874227470E-04
DEBUG_STATS_RL:                Uvel (DYNAMICS) S.D.=  1.95339850914233E-02
DEBUG_STATS_RL:                Vvel (DYNAMICS)  min= -3.47165577010648E-01
DEBUG_STATS_RL:                Vvel (DYNAMICS)  max=  2.88497590237557E-01
DEBUG_STATS_RL:                Vvel (DYNAMICS) mean= -6.83807861246371E-04
DEBUG_STATS_RL:                Vvel (DYNAMICS) S.D.=  1.88281826459348E-02
DEBUG_STATS_RL:                Wvel (DYNAMICS)  min= -1.79570883848340E-04
DEBUG_STATS_RL:                Wvel (DYNAMICS)  max=  1.48133241591906E-04
DEBUG_STATS_RL:                Wvel (DYNAMICS) mean= -2.71215521214756E-07
DEBUG_STATS_RL:                Wvel (DYNAMICS) S.D.=  6.88586954524857E-06
DEBUG_STATS_RL:               Theta (DYNAMICS)  min=  1.60533170882688E+01
DEBUG_STATS_RL:               Theta (DYNAMICS)  max=  2.36268132233891E+01
DEBUG_STATS_RL:               Theta (DYNAMICS) mean=  2.00036801262144E+01
DEBUG_STATS_RL:               Theta (DYNAMICS) S.D.=  9.52006433258835E-02
DEBUG_STATS_RL:                Salt (DYNAMICS)  min=  2.37131732534386E+01
DEBUG_STATS_RL:                Salt (DYNAMICS)  max=  3.51507917769306E+01
DEBUG_STATS_RL:                Salt (DYNAMICS) mean=  3.49969178165269E+01
DEBUG_STATS_RL:                Salt (DYNAMICS) S.D.=  1.29489714911840E-01
DEBUG_STATS_RL:                  Gu (DYNAMICS)  min= -6.19446019065092E-01
DEBUG_STATS_RL:                  Gu (DYNAMICS)  max=  3.86856251366299E-01
DEBUG_STATS_RL:                  Gu (DYNAMICS) mean= -4.40549940654589E-04
DEBUG_STATS_RL:                  Gu (DYNAMICS) S.D.=  1.97190218308512E-02
DEBUG_STATS_RL:                  Gv (DYNAMICS)  min= -3.37436069579055E-01
DEBUG_STATS_RL:                  Gv (DYNAMICS)  max=  2.90885576674366E-01
DEBUG_STATS_RL:                  Gv (DYNAMICS) mean= -6.87925789303619E-04
DEBUG_STATS_RL:                  Gv (DYNAMICS) S.D.=  1.89448851817365E-02
DEBUG_STATS_RL:               GuNm1 (DYNAMICS)  min= -2.29331880738764E-05
DEBUG_STATS_RL:               GuNm1 (DYNAMICS)  max=  2.37321784736102E-05
DEBUG_STATS_RL:               GuNm1 (DYNAMICS) mean= -1.00902411454093E-08
DEBUG_STATS_RL:               GuNm1 (DYNAMICS) S.D.=  1.11062382369602E-06
DEBUG_STATS_RL:               GvNm1 (DYNAMICS)  min= -2.27479346203554E-05
DEBUG_STATS_RL:               GvNm1 (DYNAMICS)  max=  2.83284385844604E-05
DEBUG_STATS_RL:               GvNm1 (DYNAMICS) mean= -7.02593174151220E-09
DEBUG_STATS_RL:               GvNm1 (DYNAMICS) S.D.=  1.27830305391918E-06
DEBUG_STATS_RL:               GtNm1 (DYNAMICS)  min= -3.46336015748732E-06
DEBUG_STATS_RL:               GtNm1 (DYNAMICS)  max=  4.73859893165590E-06
DEBUG_STATS_RL:               GtNm1 (DYNAMICS) mean=  1.09508709834094E-09
DEBUG_STATS_RL:               GtNm1 (DYNAMICS) S.D.=  6.06486157717247E-08
DEBUG_STATS_RL:               GsNm1 (DYNAMICS)  min= -1.52146441351284E-05
DEBUG_STATS_RL:               GsNm1 (DYNAMICS)  max=  2.27478590262321E-06
DEBUG_STATS_RL:               GsNm1 (DYNAMICS) mean= -4.42180504428217E-09
DEBUG_STATS_RL:               GsNm1 (DYNAMICS) S.D.=  1.75646399318220E-07
(PID.TID 0000.0001) DEBUG_MSG: LEAVING S/R DYNAMICS
DEBUG_STATS_RL:    cg2d_b (SOLVE_FOR_PRESSURE)  min= -2.07770125739586E+05
DEBUG_STATS_RL:    cg2d_b (SOLVE_FOR_PRESSURE)  max=  1.85236964501938E+05
DEBUG_STATS_RL:    cg2d_b (SOLVE_FOR_PRESSURE) mean= -4.28156388070565E+03
DEBUG_STATS_RL:    cg2d_b (SOLVE_FOR_PRESSURE) S.D.=  8.01934047605899E+03
 cg2d: Sum(rhs),rhsMax =  -9.10838951719100E+01  3.98016174321231E+01
(PID.TID 0000.0001)  cg2d: iter=     1 ; resid.=  2.92000827685221E-02
(PID.TID 0000.0001)  cg2d: iter=     2 ; resid.=  3.77911477190353E-03
(PID.TID 0000.0001)  cg2d: iter=     3 ; resid.=  7.81794967737290E-04
(PID.TID 0000.0001)  cg2d: iter=     4 ; resid.=  2.30867244819297E-04
(PID.TID 0000.0001)  cg2d: iter=     5 ; resid.=  7.02049768826559E-05
(PID.TID 0000.0001)  cg2d: iter=     6 ; resid.=  1.72701147528534E-05
(PID.TID 0000.0001)  cg2d: iter=     7 ; resid.=  3.79995257718005E-06
(PID.TID 0000.0001)  cg2d: iter=     8 ; resid.=  8.28381491033029E-07
(PID.TID 0000.0001)  cg2d: iter=     9 ; resid.=  2.00835607975101E-07
(PID.TID 0000.0001)  cg2d: iter=    10 ; resid.=  5.98494010898647E-08
DEBUG_STATS_RL:    cg2d_x (SOLVE_FOR_PRESSURE)  min= -1.95903681127848E+01
DEBUG_STATS_RL:    cg2d_x (SOLVE_FOR_PRESSURE)  max=  1.70068692515101E+01
DEBUG_STATS_RL:    cg2d_x (SOLVE_FOR_PRESSURE) mean=  4.24881515571041E-01
DEBUG_STATS_RL:    cg2d_x (SOLVE_FOR_PRESSURE) S.D.=  8.15129327427893E-01
(PID.TID 0000.0001)      cg2d_init_res =   1.79419828988874E-01
(PID.TID 0000.0001)      cg2d_iters(min,last) =      -1      10
(PID.TID 0000.0001)      cg2d_last_res =   5.98494010898647E-08
(PID.TID 0000.0001) DEBUG_MSG: CALLING S/R UPDATE_ETAH
(PID.TID 0000.0001) DEBUG_MSG: ENTERED S/R CALC_R_STAR
(PID.TID 0000.0001) DEBUG_MSG: LEAVING S/R CALC_R_STAR
(PID.TID 0000.0001) DEBUG_MSG: CALLING S/R DO_STAGGER_FIELDS_EXCH.
(PID.TID 0000.0001) DEBUG_MSG: CALLING S/R THERMODYNAMICS
(PID.TID 0000.0001) DEBUG_MSG: ENTERED S/R THERMODYNAMICS
(PID.TID 0000.0001) DEBUG_MSG: CALLING S/R TEMP_INTEGRATE
(PID.TID 0000.0001) DEBUG_MSG: CALLING S/R SALT_INTEGRATE
DEBUG_STATS_RL:          Uvel (THERMODYNAMICS)  min= -5.86736917980287E-01
DEBUG_STATS_RL:          Uvel (THERMODYNAMICS)  max=  3.62208996924134E-01
DEBUG_STATS_RL:          Uvel (THERMODYNAMICS) mean= -4.48638606827821E-04
DEBUG_STATS_RL:          Uvel (THERMODYNAMICS) S.D.=  1.96966679108490E-02
DEBUG_STATS_RL:          Vvel (THERMODYNAMICS)  min= -3.07325820709392E-01
DEBUG_STATS_RL:          Vvel (THERMODYNAMICS)  max=  2.83334575130121E-01
DEBUG_STATS_RL:          Vvel (THERMODYNAMICS) mean= -6.95454149733095E-04
DEBUG_STATS_RL:          Vvel (THERMODYNAMICS) S.D.=  1.89799561587790E-02
DEBUG_STATS_RL:          Wvel (THERMODYNAMICS)  min= -1.73678926365551E-04
DEBUG_STATS_RL:          Wvel (THERMODYNAMICS)  max=  1.49275786078073E-04
DEBUG_STATS_RL:          Wvel (THERMODYNAMICS) mean= -2.69514764071921E-07
DEBUG_STATS_RL:          Wvel (THERMODYNAMICS) S.D.=  6.85547796283244E-06
DEBUG_STATS_RL:         Theta (THERMODYNAMICS)  min=  1.60508956434446E+01
DEBUG_STATS_RL:         Theta (THERMODYNAMICS)  max=  2.36559573595137E+01
DEBUG_STATS_RL:         Theta (THERMODYNAMICS) mean=  2.00037776731406E+01
DEBUG_STATS_RL:         Theta (THERMODYNAMICS) S.D.=  9.57436400710207E-02
DEBUG_STATS_RL:          Salt (THERMODYNAMICS)  min=  2.36604229377545E+01
DEBUG_STATS_RL:          Salt (THERMODYNAMICS)  max=  3.51507831612013E+01
DEBUG_STATS_RL:          Salt (THERMODYNAMICS) mean=  3.49968963297372E+01
DEBUG_STATS_RL:          Salt (THERMODYNAMICS) S.D.=  1.30140091221917E-01
DEBUG_STATS_RL:         GtNm1 (THERMODYNAMICS)  min= -3.42586180374724E-06
DEBUG_STATS_RL:         GtNm1 (THERMODYNAMICS)  max=  4.71681301450980E-06
DEBUG_STATS_RL:         GtNm1 (THERMODYNAMICS) mean=  1.15522414650756E-09
DEBUG_STATS_RL:         GtNm1 (THERMODYNAMICS) S.D.=  6.01761045543683E-08
DEBUG_STATS_RL:         GsNm1 (THERMODYNAMICS)  min= -1.51301799668429E-05
DEBUG_STATS_RL:         GsNm1 (THERMODYNAMICS)  max=  2.29465567932047E-06
DEBUG_STATS_RL:         GsNm1 (THERMODYNAMICS) mean= -4.39851396119200E-09
DEBUG_STATS_RL:         GsNm1 (THERMODYNAMICS) S.D.=  1.74372747597460E-07
(PID.TID 0000.0001) DEBUG_MSG: LEAVING S/R THERMODYNAMICS
(PID.TID 0000.0001) // =======================================================
(PID.TID 0000.0001) // Begin MONITOR dynamic field statistics
(PID.TID 0000.0001) // =======================================================
(PID.TID 0000.0001) %MON time_tsnumber                =                    75
(PID.TID 0000.0001) %MON time_secondsf                =   6.7500000000000E+04
(PID.TID 0000.0001) %MON dynstat_eta_max              =   1.7336258162344E+00
(PID.TID 0000.0001) %MON dynstat_eta_min              =  -1.9969794178782E+00
(PID.TID 0000.0001) %MON dynstat_eta_mean             =   4.2125346778704E-02
(PID.TID 0000.0001) %MON dynstat_eta_sd               =   7.8374498334224E-02
(PID.TID 0000.0001) %MON dynstat_eta_del2             =   1.5612229412795E-03
(PID.TID 0000.0001) %MON dynstat_uvel_max             =   3.6220899692413E-01
(PID.TID 0000.0001) %MON dynstat_uvel_min             =  -5.8673691798029E-01
(PID.TID 0000.0001) %MON dynstat_uvel_mean            =  -2.1823501061413E-05
(PID.TID 0000.0001) %MON dynstat_uvel_sd              =   6.6521067129413E-03
(PID.TID 0000.0001) %MON dynstat_uvel_del2            =   9.3458054946185E-05
(PID.TID 0000.0001) %MON dynstat_vvel_max             =   2.8333457513012E-01
(PID.TID 0000.0001) %MON dynstat_vvel_min             =  -3.0732582070939E-01
(PID.TID 0000.0001) %MON dynstat_vvel_mean            =   7.4450727893184E-04
(PID.TID 0000.0001) %MON dynstat_vvel_sd              =   6.4264476358532E-03
(PID.TID 0000.0001) %MON dynstat_vvel_del2            =   9.2843574934578E-05
(PID.TID 0000.0001) %MON dynstat_wvel_max             =   1.4927578607807E-04
(PID.TID 0000.0001) %MON dynstat_wvel_min             =  -1.7367892636555E-04
(PID.TID 0000.0001) %MON dynstat_wvel_mean            =  -1.8468815168546E-07
(PID.TID 0000.0001) %MON dynstat_wvel_sd              =   6.6156580317500E-06
(PID.TID 0000.0001) %MON dynstat_wvel_del2            =   7.1090016262420E-08
(PID.TID 0000.0001) %MON dynstat_theta_max            =   2.3655957359514E+01
(PID.TID 0000.0001) %MON dynstat_theta_min            =   1.6050895643445E+01
(PID.TID 0000.0001) %MON dynstat_theta_mean           =   1.9997913445921E+01
(PID.TID 0000.0001) %MON dynstat_theta_sd             =   3.1556537859914E-02
(PID.TID 0000.0001) %MON dynstat_theta_del2           =   5.4748270356346E-04
(PID.TID 0000.0001) %MON dynstat_salt_max             =   3.5150783161201E+01
(PID.TID 0000.0001) %MON dynstat_salt_min             =   2.3660422937754E+01
(PID.TID 0000.0001) %MON dynstat_salt_mean            =   3.4999597501700E+01
(PID.TID 0000.0001) %MON dynstat_salt_sd              =   4.0166707874771E-02
(PID.TID 0000.0001) %MON dynstat_salt_del2            =   1.3814114732731E-03
(PID.TID 0000.0001) %MON dynstat_sst_max              =   2.3655957359514E+01
(PID.TID 0000.0001) %MON dynstat_sst_min              =   1.6050895643445E+01
(PID.TID 0000.0001) %MON dynstat_sst_mean             =   2.0150614617861E+01
(PID.TID 0000.0001) %MON dynstat_sst_sd               =   2.9493913222950E-01
(PID.TID 0000.0001) %MON dynstat_sst_del2             =   6.4297306077931E-03
(PID.TID 0000.0001) %MON dynstat_sss_max              =   3.5150783161201E+01
(PID.TID 0000.0001) %MON dynstat_sss_min              =   2.3660422937754E+01
(PID.TID 0000.0001) %MON dynstat_sss_mean             =   3.4963112861340E+01
(PID.TID 0000.0001) %MON dynstat_sss_sd               =   4.8429608657845E-01
(PID.TID 0000.0001) %MON dynstat_sss_del2             =   1.8696602666827E-02
(PID.TID 0000.0001) %MON forcing_qnet_max             =   2.4731416015625E+03
(PID.TID 0000.0001) %MON forcing_qnet_min             =  -2.8788232421875E+03
(PID.TID 0000.0001) %MON forcing_qnet_mean            =  -1.8605071414581E+01
(PID.TID 0000.0001) %MON forcing_qnet_sd              =   4.5807486053507E+02
(PID.TID 0000.0001) %MON forcing_qnet_del2            =   5.6020770733683E+00
(PID.TID 0000.0001) %MON forcing_qsw_max              =   0.0000000000000E+00
(PID.TID 0000.0001) %MON forcing_qsw_min              =  -1.0767161250525E+02
(PID.TID 0000.0001) %MON forcing_qsw_mean             =  -1.7986593541100E+01
(PID.TID 0000.0001) %MON forcing_qsw_sd               =   2.8319365222371E+01
(PID.TID 0000.0001) %MON forcing_qsw_del2             =   2.4433663944975E-01
(PID.TID 0000.0001) %MON forcing_empmr_max            =   5.1549780182540E-03
(PID.TID 0000.0001) %MON forcing_empmr_min            =  -7.4093014001846E-02
(PID.TID 0000.0001) %MON forcing_empmr_mean           =  -3.6960018197457E-04
(PID.TID 0000.0001) %MON forcing_empmr_sd             =   3.2977643936959E-03
(PID.TID 0000.0001) %MON forcing_empmr_del2           =   1.2875304305751E-04
(PID.TID 0000.0001) %MON forcing_fu_max               =   5.6084863775419E-01
(PID.TID 0000.0001) %MON forcing_fu_min               =  -6.2813462109129E-01
(PID.TID 0000.0001) %MON forcing_fu_mean              =  -5.9682672904737E-04
(PID.TID 0000.0001) %MON forcing_fu_sd                =   8.4543486039017E-02
(PID.TID 0000.0001) %MON forcing_fu_del2              =   7.1335264389225E-04
(PID.TID 0000.0001) %MON forcing_fv_max               =   3.7772982100369E-01
(PID.TID 0000.0001) %MON forcing_fv_min               =  -3.6763887978748E-01
(PID.TID 0000.0001) %MON forcing_fv_mean              =  -7.1282909256861E-03
(PID.TID 0000.0001) %MON forcing_fv_sd                =   7.1369298845193E-02
(PID.TID 0000.0001) %MON forcing_fv_del2              =   5.9130017386731E-04
(PID.TID 0000.0001) %MON trAdv_CFL_u_max              =   1.7356365771213E-03
(PID.TID 0000.0001) %MON trAdv_CFL_v_max              =   1.4805816229871E-03
(PID.TID 0000.0001) %MON trAdv_CFL_w_max              =   2.5557403874996E-03
(PID.TID 0000.0001) %MON advcfl_uvel_max              =   1.7050628548610E-03
(PID.TID 0000.0001) %MON advcfl_vvel_max              =   1.4230150545665E-03
(PID.TID 0000.0001) %MON advcfl_wvel_max              =   5.1542966262154E-03
(PID.TID 0000.0001) %MON advcfl_W_hf_max              =   2.5557403874996E-03
(PID.TID 0000.0001) %MON pe_b_mean                    =   1.0546929600272E-05
(PID.TID 0000.0001) %MON ke_max                       =   1.3452785235390E-01
(PID.TID 0000.0001) %MON ke_mean                      =   3.9748939270716E-05
(PID.TID 0000.0001) %MON ke_vol                       =   1.3398176572677E+18
(PID.TID 0000.0001) %MON vort_r_min                   =  -2.8285918479300E-06
(PID.TID 0000.0001) %MON vort_r_max                   =   2.5301291620638E-06
(PID.TID 0000.0001) %MON vort_a_mean                  =  -2.0549865324846E-05
(PID.TID 0000.0001) %MON vort_a_sd                    =   7.5259450046027E-05
(PID.TID 0000.0001) %MON vort_p_mean                  =  -2.4783238963394E-05
(PID.TID 0000.0001) %MON vort_p_sd                    =   1.2810515483127E-04
(PID.TID 0000.0001) %MON surfExpan_theta_mean         =  -4.7221843711582E-07
(PID.TID 0000.0001) %MON surfExpan_salt_mean          =   1.5357118610176E-06
(PID.TID 0000.0001) // =======================================================
(PID.TID 0000.0001) // End MONITOR dynamic field statistics
(PID.TID 0000.0001) // =======================================================
 Computing Diagnostic #     81  oceTAUX      Counter:       1   Parms: UU      U1      
           Vector  Mate for  oceTAUX      Diagnostic #     82  oceTAUY  exists 
(PID.TID 0000.0001)  MDS_WRITE_FIELD: it,rec,kS,kL,kH=      74    -1  32   1   1 file=oceTAUX.0000000074
 Computing Diagnostic #     82  oceTAUY      Counter:       1   Parms: VV      U1      
           Vector  Mate for  oceTAUY      Diagnostic #     81  oceTAUX  exists 
(PID.TID 0000.0001)  MDS_WRITE_FIELD: it,rec,kS,kL,kH=      74    -1  32   1   1 file=oceTAUY.0000000074
 Computing Diagnostic #     85  oceFWflx     Counter:       1   Parms: SM      U1      
(PID.TID 0000.0001)  MDS_WRITE_FIELD: it,rec,kS,kL,kH=      74    -1  32   1   1 file=oceFWflx.0000000074
 Computing Diagnostic #     86  oceSflux     Counter:       1   Parms: SM      U1      
(PID.TID 0000.0001)  MDS_WRITE_FIELD: it,rec,kS,kL,kH=      74    -1  32   1   1 file=oceSflux.0000000074
 Computing Diagnostic #     87  oceQnet      Counter:       1   Parms: SM      U1      
(PID.TID 0000.0001)  MDS_WRITE_FIELD: it,rec,kS,kL,kH=      74    -1  32   1   1 file=oceQnet.0000000074
 Computing Diagnostic #     88  oceQsw       Counter:       1   Parms: SM      U1      
(PID.TID 0000.0001)  MDS_WRITE_FIELD: it,rec,kS,kL,kH=      74    -1  32   1   1 file=oceQsw.0000000074
 Computing Diagnostic #     27  SALT         Counter:       1   Parms: SMR     MR      
(PID.TID 0000.0001)  MDS_WRITE_FIELD: it,rec,kS,kL,kH=      74    -1  32   1   1 file=SSS.0000000074
 Computing Diagnostic #     26  THETA        Counter:       1   Parms: SMR     MR      
(PID.TID 0000.0001)  MDS_WRITE_FIELD: it,rec,kS,kL,kH=      74    -1  32   1   1 file=SST.0000000074
 Computing Diagnostic #     45  UVELMASS     Counter:       1   Parms: UUr     MR      
           Vector  Mate for  UVELMASS     Diagnostic #     46  VVELMASS exists 
(PID.TID 0000.0001)  MDS_WRITE_FIELD: it,rec,kS,kL,kH=      74    -1  32   1   1 file=UVEL1.0000000074
 Computing Diagnostic #     46  VVELMASS     Counter:       1   Parms: VVr     MR      
           Vector  Mate for  VVELMASS     Diagnostic #     45  UVELMASS exists 
(PID.TID 0000.0001)  MDS_WRITE_FIELD: it,rec,kS,kL,kH=      74    -1  32   1   1 file=VVEL1.0000000074
 Computing Diagnostic #     83  atmPload     Counter:       1   Parms: SM      U1      
(PID.TID 0000.0001)  MDS_WRITE_FIELD: it,rec,kS,kL,kH=      74    -1  32   1   1 file=atmPload.0000000074
(PID.TID 0000.0001)  write diagnostics summary to file: diagnostics_status.0000000075.txt
(PID.TID 0000.0001) DEBUG_MSG: LEAVING S/R FORWARD_STEP
(PID.TID 0000.0001) DEBUG_MSG: ENTERED S/R FORWARD_STEP
(PID.TID 0000.0001) DEBUG_MSG: CALLING S/R LOAD_FIELDS_DRIVER
(PID.TID 0000.0001) DEBUG_MSG: ENTERED S/R LOAD_FIELDS_DRIVER
(PID.TID 0000.0001) DEBUG_MSG: CALLING S/R EXTERNAL_FIELDS_LOAD
(PID.TID 0000.0001) DEBUG_MSG: LEAVING S/R LOAD_FIELDS_DRIVER
(PID.TID 0000.0001) DEBUG_MSG: CALLING S/R DO_ATMOSPHERIC_PHYS
(PID.TID 0000.0001) DEBUG_MSG: ENTERED S/R DO_ATMOSPHERIC_PHYS
(PID.TID 0000.0001) DEBUG_MSG: LEAVING S/R DO_ATMOSPHERIC_PHYS
(PID.TID 0000.0001) DEBUG_MSG: CALLING S/R DO_OCEANIC_PHYS
(PID.TID 0000.0001) DEBUG_MSG: ENTERED S/R DO_OCEANIC_PHYS
(PID.TID 0000.0001) DEBUG_MSG: CALLING S/R EXTERNAL_FORCING_SURF
(PID.TID 0000.0001) DEBUG_MSG: CALLING S/R FIND_RHO_2D (xNr)
(PID.TID 0000.0001) DEBUG_MSG:                  ENTERING UPWARD K LOOP (bi=   1, bj=   1)
(PID.TID 0000.0001) DEBUG_MSG: CALLING S/R GRAD_SIGMA
(PID.TID 0000.0001) DEBUG_MSG: CALLING S/R CALC_IVDC
(PID.TID 0000.0001) DEBUG_MSG: CALLING S/R GRAD_SIGMA
(PID.TID 0000.0001) DEBUG_MSG: CALLING S/R CALC_IVDC
(PID.TID 0000.0001) DEBUG_MSG: CALLING S/R GRAD_SIGMA
(PID.TID 0000.0001) DEBUG_MSG: CALLING S/R CALC_IVDC
(PID.TID 0000.0001) DEBUG_MSG: CALLING S/R GRAD_SIGMA
(PID.TID 0000.0001) DEBUG_MSG: CALLING S/R CALC_IVDC
(PID.TID 0000.0001) DEBUG_MSG: CALLING S/R GRAD_SIGMA
(PID.TID 0000.0001) DEBUG_MSG: CALLING S/R CALC_IVDC
(PID.TID 0000.0001) DEBUG_MSG: CALLING S/R GRAD_SIGMA
(PID.TID 0000.0001) DEBUG_MSG: CALLING S/R CALC_IVDC
(PID.TID 0000.0001) DEBUG_MSG: CALLING S/R GRAD_SIGMA
(PID.TID 0000.0001) DEBUG_MSG: CALLING S/R CALC_IVDC
(PID.TID 0000.0001) DEBUG_MSG: CALLING S/R GRAD_SIGMA
(PID.TID 0000.0001) DEBUG_MSG: CALLING S/R CALC_IVDC
(PID.TID 0000.0001) DEBUG_MSG: CALLING S/R GRAD_SIGMA
(PID.TID 0000.0001) DEBUG_MSG: CALLING S/R CALC_IVDC
(PID.TID 0000.0001) DEBUG_MSG: CALLING S/R GRAD_SIGMA
(PID.TID 0000.0001) DEBUG_MSG: CALLING S/R CALC_IVDC
(PID.TID 0000.0001) DEBUG_MSG: CALLING S/R GRAD_SIGMA
(PID.TID 0000.0001) DEBUG_MSG: CALLING S/R CALC_IVDC
(PID.TID 0000.0001) DEBUG_MSG: CALLING S/R GRAD_SIGMA
(PID.TID 0000.0001) DEBUG_MSG: CALLING S/R CALC_IVDC
(PID.TID 0000.0001) DEBUG_MSG: CALLING S/R GRAD_SIGMA
(PID.TID 0000.0001) DEBUG_MSG: CALLING S/R CALC_IVDC
(PID.TID 0000.0001) DEBUG_MSG: CALLING S/R GRAD_SIGMA
(PID.TID 0000.0001) DEBUG_MSG: CALLING S/R CALC_IVDC
(PID.TID 0000.0001) DEBUG_MSG: CALLING S/R GRAD_SIGMA
(PID.TID 0000.0001) DEBUG_MSG: CALLING S/R CALC_IVDC
(PID.TID 0000.0001) DEBUG_MSG: CALLING S/R GRAD_SIGMA
(PID.TID 0000.0001) DEBUG_MSG: CALLING S/R GMREDI_CALC_TENSOR
(PID.TID 0000.0001) DEBUG_MSG: LEAVING S/R DO_OCEANIC_PHYS
(PID.TID 0000.0001) DEBUG_MSG: CALLING S/R DYNAMICS
(PID.TID 0000.0001) DEBUG_MSG: ENTERED S/R DYNAMICS
DEBUG_STATS_RL:                EtaN (DYNAMICS)  min= -1.99697941787824E+00
DEBUG_STATS_RL:                EtaN (DYNAMICS)  max=  1.73362581623442E+00
DEBUG_STATS_RL:                EtaN (DYNAMICS) mean=  4.33110614599462E-02
DEBUG_STATS_RL:                EtaN (DYNAMICS) S.D.=  8.30916746438341E-02
DEBUG_STATS_RL:                Uvel (DYNAMICS)  min= -5.86736917980287E-01
DEBUG_STATS_RL:                Uvel (DYNAMICS)  max=  3.62208996924134E-01
DEBUG_STATS_RL:                Uvel (DYNAMICS) mean= -4.48638606827821E-04
DEBUG_STATS_RL:                Uvel (DYNAMICS) S.D.=  1.96966679108490E-02
DEBUG_STATS_RL:                Vvel (DYNAMICS)  min= -3.07325820709392E-01
DEBUG_STATS_RL:                Vvel (DYNAMICS)  max=  2.83334575130121E-01
DEBUG_STATS_RL:                Vvel (DYNAMICS) mean= -6.95454149733095E-04
DEBUG_STATS_RL:                Vvel (DYNAMICS) S.D.=  1.89799561587790E-02
DEBUG_STATS_RL:                Wvel (DYNAMICS)  min= -1.73678926365551E-04
DEBUG_STATS_RL:                Wvel (DYNAMICS)  max=  1.49275786078073E-04
DEBUG_STATS_RL:                Wvel (DYNAMICS) mean= -2.69514764071921E-07
DEBUG_STATS_RL:                Wvel (DYNAMICS) S.D.=  6.85547796283244E-06
DEBUG_STATS_RL:               Theta (DYNAMICS)  min=  1.60508956434446E+01
DEBUG_STATS_RL:               Theta (DYNAMICS)  max=  2.36559573595137E+01
DEBUG_STATS_RL:               Theta (DYNAMICS) mean=  2.00037776731406E+01
DEBUG_STATS_RL:               Theta (DYNAMICS) S.D.=  9.57436400710207E-02
DEBUG_STATS_RL:                Salt (DYNAMICS)  min=  2.36604229377545E+01
DEBUG_STATS_RL:                Salt (DYNAMICS)  max=  3.51507831612013E+01
DEBUG_STATS_RL:                Salt (DYNAMICS) mean=  3.49968963297372E+01
DEBUG_STATS_RL:                Salt (DYNAMICS) S.D.=  1.30140091221917E-01
DEBUG_STATS_RL:                  Gu (DYNAMICS)  min= -5.93452331496062E-01
DEBUG_STATS_RL:                  Gu (DYNAMICS)  max=  3.42900900754457E-01
DEBUG_STATS_RL:                  Gu (DYNAMICS) mean= -4.59998919714871E-04
DEBUG_STATS_RL:                  Gu (DYNAMICS) S.D.=  1.98632842141697E-02
DEBUG_STATS_RL:                  Gv (DYNAMICS)  min= -2.97084950892012E-01
DEBUG_STATS_RL:                  Gv (DYNAMICS)  max=  2.85535830890066E-01
DEBUG_STATS_RL:                  Gv (DYNAMICS) mean= -6.97749702009759E-04
DEBUG_STATS_RL:                  Gv (DYNAMICS) S.D.=  1.91213657691694E-02
DEBUG_STATS_RL:               GuNm1 (DYNAMICS)  min= -2.21473144063699E-05
DEBUG_STATS_RL:               GuNm1 (DYNAMICS)  max=  2.31682881919042E-05
DEBUG_STATS_RL:               GuNm1 (DYNAMICS) mean= -1.19609275690828E-08
DEBUG_STATS_RL:               GuNm1 (DYNAMICS) S.D.=  1.08781840673425E-06
DEBUG_STATS_RL:               GvNm1 (DYNAMICS)  min= -2.13670458150199E-05
DEBUG_STATS_RL:               GvNm1 (DYNAMICS)  max=  2.81800089645433E-05
DEBUG_STATS_RL:               GvNm1 (DYNAMICS) mean= -5.08626840463436E-09
DEBUG_STATS_RL:               GvNm1 (DYNAMICS) S.D.=  1.28396911060512E-06
DEBUG_STATS_RL:               GtNm1 (DYNAMICS)  min= -3.42586180374724E-06
DEBUG_STATS_RL:               GtNm1 (DYNAMICS)  max=  4.71681301450980E-06
DEBUG_STATS_RL:               GtNm1 (DYNAMICS) mean=  1.15522414650756E-09
DEBUG_STATS_RL:               GtNm1 (DYNAMICS) S.D.=  6.01761045543683E-08
DEBUG_STATS_RL:               GsNm1 (DYNAMICS)  min= -1.51301799668429E-05
DEBUG_STATS_RL:               GsNm1 (DYNAMICS)  max=  2.29465567932047E-06
DEBUG_STATS_RL:               GsNm1 (DYNAMICS) mean= -4.39851396119200E-09
DEBUG_STATS_RL:               GsNm1 (DYNAMICS) S.D.=  1.74372747597460E-07
(PID.TID 0000.0001) DEBUG_MSG: LEAVING S/R DYNAMICS
DEBUG_STATS_RL:    cg2d_b (SOLVE_FOR_PRESSURE)  min= -2.08898119095785E+05
DEBUG_STATS_RL:    cg2d_b (SOLVE_FOR_PRESSURE)  max=  1.77978395746704E+05
DEBUG_STATS_RL:    cg2d_b (SOLVE_FOR_PRESSURE) mean= -4.31393595028056E+03
DEBUG_STATS_RL:    cg2d_b (SOLVE_FOR_PRESSURE) S.D.=  8.01914788069759E+03
 cg2d: Sum(rhs),rhsMax =  -9.12770157183518E+01  4.00177022030669E+01
(PID.TID 0000.0001)  cg2d: iter=     1 ; resid.=  2.87541738397325E-02
(PID.TID 0000.0001)  cg2d: iter=     2 ; resid.=  3.79377895133747E-03
(PID.TID 0000.0001)  cg2d: iter=     3 ; resid.=  8.35453755558000E-04
(PID.TID 0000.0001)  cg2d: iter=     4 ; resid.=  2.60959780763444E-04
(PID.TID 0000.0001)  cg2d: iter=     5 ; resid.=  7.56895139634240E-05
(PID.TID 0000.0001)  cg2d: iter=     6 ; resid.=  1.75190491005976E-05
(PID.TID 0000.0001)  cg2d: iter=     7 ; resid.=  3.66373973128081E-06
(PID.TID 0000.0001)  cg2d: iter=     8 ; resid.=  7.66153084900898E-07
(PID.TID 0000.0001)  cg2d: iter=     9 ; resid.=  1.64650629844836E-07
(PID.TID 0000.0001)  cg2d: iter=    10 ; resid.=  3.88446924331393E-08
DEBUG_STATS_RL:    cg2d_x (SOLVE_FOR_PRESSURE)  min= -1.88247074677047E+01
DEBUG_STATS_RL:    cg2d_x (SOLVE_FOR_PRESSURE)  max=  1.70985773863899E+01
DEBUG_STATS_RL:    cg2d_x (SOLVE_FOR_PRESSURE) mean=  4.27087164473028E-01
DEBUG_STATS_RL:    cg2d_x (SOLVE_FOR_PRESSURE) S.D.=  8.10530650652876E-01
(PID.TID 0000.0001)      cg2d_init_res =   1.76130437119482E-01
(PID.TID 0000.0001)      cg2d_iters(min,last) =      -1      10
(PID.TID 0000.0001)      cg2d_last_res =   3.88446924331393E-08
(PID.TID 0000.0001) DEBUG_MSG: CALLING S/R UPDATE_ETAH
(PID.TID 0000.0001) DEBUG_MSG: ENTERED S/R CALC_R_STAR
(PID.TID 0000.0001) DEBUG_MSG: LEAVING S/R CALC_R_STAR
(PID.TID 0000.0001) DEBUG_MSG: CALLING S/R DO_STAGGER_FIELDS_EXCH.
(PID.TID 0000.0001) DEBUG_MSG: CALLING S/R THERMODYNAMICS
(PID.TID 0000.0001) DEBUG_MSG: ENTERED S/R THERMODYNAMICS
(PID.TID 0000.0001) DEBUG_MSG: CALLING S/R TEMP_INTEGRATE
(PID.TID 0000.0001) DEBUG_MSG: CALLING S/R SALT_INTEGRATE
DEBUG_STATS_RL:          Uvel (THERMODYNAMICS)  min= -5.58937257129849E-01
DEBUG_STATS_RL:          Uvel (THERMODYNAMICS)  max=  3.14762464583360E-01
DEBUG_STATS_RL:          Uvel (THERMODYNAMICS) mean= -4.68871233523892E-04
DEBUG_STATS_RL:          Uvel (THERMODYNAMICS) S.D.=  1.98539633388275E-02
DEBUG_STATS_RL:          Vvel (THERMODYNAMICS)  min= -2.97305320919437E-01
DEBUG_STATS_RL:          Vvel (THERMODYNAMICS)  max=  2.76189653146107E-01
DEBUG_STATS_RL:          Vvel (THERMODYNAMICS) mean= -7.05082119591512E-04
DEBUG_STATS_RL:          Vvel (THERMODYNAMICS) S.D.=  1.91755551519721E-02
DEBUG_STATS_RL:          Wvel (THERMODYNAMICS)  min= -1.67773999384055E-04
DEBUG_STATS_RL:          Wvel (THERMODYNAMICS)  max=  1.50079098396514E-04
DEBUG_STATS_RL:          Wvel (THERMODYNAMICS) mean= -2.66599618869999E-07
DEBUG_STATS_RL:          Wvel (THERMODYNAMICS) S.D.=  6.82498035378537E-06
DEBUG_STATS_RL:         Theta (THERMODYNAMICS)  min=  1.60489566610127E+01
DEBUG_STATS_RL:         Theta (THERMODYNAMICS)  max=  2.36847201583060E+01
DEBUG_STATS_RL:         Theta (THERMODYNAMICS) mean=  2.00038752266703E+01
DEBUG_STATS_RL:         Theta (THERMODYNAMICS) S.D.=  9.62875684191840E-02
DEBUG_STATS_RL:          Salt (THERMODYNAMICS)  min=  2.36088214832305E+01
DEBUG_STATS_RL:          Salt (THERMODYNAMICS)  max=  3.51507742756475E+01
DEBUG_STATS_RL:          Salt (THERMODYNAMICS) mean=  3.49968753451597E+01
DEBUG_STATS_RL:          Salt (THERMODYNAMICS) S.D.=  1.30777484644966E-01
DEBUG_STATS_RL:         GtNm1 (THERMODYNAMICS)  min= -3.38593625407902E-06
DEBUG_STATS_RL:         GtNm1 (THERMODYNAMICS)  max=  4.69114972034658E-06
DEBUG_STATS_RL:         GtNm1 (THERMODYNAMICS) mean=  1.20928718168426E-09
DEBUG_STATS_RL:         GtNm1 (THERMODYNAMICS) S.D.=  6.04483236882255E-08
DEBUG_STATS_RL:         GsNm1 (THERMODYNAMICS)  min= -1.50447939079640E-05
DEBUG_STATS_RL:         GsNm1 (THERMODYNAMICS)  max=  2.31533069269129E-06
DEBUG_STATS_RL:         GsNm1 (THERMODYNAMICS) mean= -4.37544517793256E-09
DEBUG_STATS_RL:         GsNm1 (THERMODYNAMICS) S.D.=  1.73098431914187E-07
(PID.TID 0000.0001) DEBUG_MSG: LEAVING S/R THERMODYNAMICS
(PID.TID 0000.0001) // =======================================================
(PID.TID 0000.0001) // Begin MONITOR dynamic field statistics
(PID.TID 0000.0001) // =======================================================
(PID.TID 0000.0001) %MON time_tsnumber                =                    76
(PID.TID 0000.0001) %MON time_secondsf                =   6.8400000000000E+04
(PID.TID 0000.0001) %MON dynstat_eta_max              =   1.7429742496453E+00
(PID.TID 0000.0001) %MON dynstat_eta_min              =  -1.9189304225471E+00
(PID.TID 0000.0001) %MON dynstat_eta_mean             =   4.2443848311037E-02
(PID.TID 0000.0001) %MON dynstat_eta_sd               =   7.8130504061962E-02
(PID.TID 0000.0001) %MON dynstat_eta_del2             =   1.5451619066749E-03
(PID.TID 0000.0001) %MON dynstat_uvel_max             =   3.1476246458336E-01
(PID.TID 0000.0001) %MON dynstat_uvel_min             =  -5.5893725712985E-01
(PID.TID 0000.0001) %MON dynstat_uvel_mean            =  -3.1371154433805E-05
(PID.TID 0000.0001) %MON dynstat_uvel_sd              =   6.6849355735707E-03
(PID.TID 0000.0001) %MON dynstat_uvel_del2            =   9.2523280497538E-05
(PID.TID 0000.0001) %MON dynstat_vvel_max             =   2.7618965314611E-01
(PID.TID 0000.0001) %MON dynstat_vvel_min             =  -2.9730532091944E-01
(PID.TID 0000.0001) %MON dynstat_vvel_mean            =   7.1575392715988E-04
(PID.TID 0000.0001) %MON dynstat_vvel_sd              =   6.4820552838521E-03
(PID.TID 0000.0001) %MON dynstat_vvel_del2            =   9.3163627134162E-05
(PID.TID 0000.0001) %MON dynstat_wvel_max             =   1.5007909839651E-04
(PID.TID 0000.0001) %MON dynstat_wvel_min             =  -1.6777399938405E-04
(PID.TID 0000.0001) %MON dynstat_wvel_mean            =  -1.7422129293798E-07
(PID.TID 0000.0001) %MON dynstat_wvel_sd              =   6.5840055180269E-06
(PID.TID 0000.0001) %MON dynstat_wvel_del2            =   7.0958264708958E-08
(PID.TID 0000.0001) %MON dynstat_theta_max            =   2.3684720158306E+01
(PID.TID 0000.0001) %MON dynstat_theta_min            =   1.6048956661013E+01
(PID.TID 0000.0001) %MON dynstat_theta_mean           =   1.9997914639595E+01
(PID.TID 0000.0001) %MON dynstat_theta_sd             =   3.1727219759702E-02
(PID.TID 0000.0001) %MON dynstat_theta_del2           =   5.4968296183565E-04
(PID.TID 0000.0001) %MON dynstat_salt_max             =   3.5150774275648E+01
(PID.TID 0000.0001) %MON dynstat_salt_min             =   2.3608821483231E+01
(PID.TID 0000.0001) %MON dynstat_salt_mean            =   3.4999594800249E+01
(PID.TID 0000.0001) %MON dynstat_salt_sd              =   4.0362492630218E-02
(PID.TID 0000.0001) %MON dynstat_salt_del2            =   1.3875333229881E-03
(PID.TID 0000.0001) %MON dynstat_sst_max              =   2.3684720158306E+01
(PID.TID 0000.0001) %MON dynstat_sst_min              =   1.6048956661013E+01
(PID.TID 0000.0001) %MON dynstat_sst_mean             =   2.0152087943422E+01
(PID.TID 0000.0001) %MON dynstat_sst_sd               =   2.9664587858889E-01
(PID.TID 0000.0001) %MON dynstat_sst_del2             =   6.4623532626686E-03
(PID.TID 0000.0001) %MON dynstat_sss_max              =   3.5150774275648E+01
(PID.TID 0000.0001) %MON dynstat_sss_min              =   2.3608821483231E+01
(PID.TID 0000.0001) %MON dynstat_sss_mean             =   3.4962865632029E+01
(PID.TID 0000.0001) %MON dynstat_sss_sd               =   4.8665809398016E-01
(PID.TID 0000.0001) %MON dynstat_sss_del2             =   1.8779128597200E-02
(PID.TID 0000.0001) %MON forcing_qnet_max             =   2.9680744628906E+03
(PID.TID 0000.0001) %MON forcing_qnet_min             =  -2.8380178222656E+03
(PID.TID 0000.0001) %MON forcing_qnet_mean            =  -1.8519838156445E+01
(PID.TID 0000.0001) %MON forcing_qnet_sd              =   4.5668457302315E+02
(PID.TID 0000.0001) %MON forcing_qnet_del2            =   5.5319843699985E+00
(PID.TID 0000.0001) %MON forcing_qsw_max              =   0.0000000000000E+00
(PID.TID 0000.0001) %MON forcing_qsw_min              =  -1.0788351068683E+02
(PID.TID 0000.0001) %MON forcing_qsw_mean             =  -1.8080249903779E+01
(PID.TID 0000.0001) %MON forcing_qsw_sd               =   2.8146074495941E+01
(PID.TID 0000.0001) %MON forcing_qsw_del2             =   2.4359298547342E-01
(PID.TID 0000.0001) %MON forcing_empmr_max            =   5.1019382663071E-03
(PID.TID 0000.0001) %MON forcing_empmr_min            =  -7.3329441249371E-02
(PID.TID 0000.0001) %MON forcing_empmr_mean           =  -3.6627676218323E-04
(PID.TID 0000.0001) %MON forcing_empmr_sd             =   3.2647454909535E-03
(PID.TID 0000.0001) %MON forcing_empmr_del2           =   1.2743010361140E-04
(PID.TID 0000.0001) %MON forcing_fu_max               =   5.6241134197435E-01
(PID.TID 0000.0001) %MON forcing_fu_min               =  -6.2600567493765E-01
(PID.TID 0000.0001) %MON forcing_fu_mean              =  -6.3978366567149E-04
(PID.TID 0000.0001) %MON forcing_fu_sd                =   8.4120992130465E-02
(PID.TID 0000.0001) %MON forcing_fu_del2              =   7.1089805534582E-04
(PID.TID 0000.0001) %MON forcing_fv_max               =   3.7626564201992E-01
(PID.TID 0000.0001) %MON forcing_fv_min               =  -3.6160385922770E-01
(PID.TID 0000.0001) %MON forcing_fv_mean              =  -7.0489499141786E-03
(PID.TID 0000.0001) %MON forcing_fv_sd                =   7.1232583424836E-02
(PID.TID 0000.0001) %MON forcing_fv_del2              =   5.8860321395240E-04
(PID.TID 0000.0001) %MON trAdv_CFL_u_max              =   1.6546018704982E-03
(PID.TID 0000.0001) %MON trAdv_CFL_v_max              =   1.4867788901712E-03
(PID.TID 0000.0001) %MON trAdv_CFL_w_max              =   2.4416965123422E-03
(PID.TID 0000.0001) %MON advcfl_uvel_max              =   1.6242767859411E-03
(PID.TID 0000.0001) %MON advcfl_vvel_max              =   1.4283706315212E-03
(PID.TID 0000.0001) %MON advcfl_wvel_max              =   5.1011785216953E-03
(PID.TID 0000.0001) %MON advcfl_W_hf_max              =   2.4416965123422E-03
(PID.TID 0000.0001) %MON pe_b_mean                    =   1.0531940565296E-05
(PID.TID 0000.0001) %MON ke_max                       =   1.3088116463710E-01
(PID.TID 0000.0001) %MON ke_mean                      =   4.0263903252354E-05
(PID.TID 0000.0001) %MON ke_vol                       =   1.3398177742178E+18
(PID.TID 0000.0001) %MON vort_r_min                   =  -2.5982228026665E-06
(PID.TID 0000.0001) %MON vort_r_max                   =   2.5230733911883E-06
(PID.TID 0000.0001) %MON vort_a_mean                  =  -2.0549865324846E-05
(PID.TID 0000.0001) %MON vort_a_sd                    =   7.5259444817840E-05
(PID.TID 0000.0001) %MON vort_p_mean                  =  -2.4783236689826E-05
(PID.TID 0000.0001) %MON vort_p_sd                    =   1.2810513503442E-04
(PID.TID 0000.0001) %MON surfExpan_theta_mean         =  -4.8962418710889E-07
(PID.TID 0000.0001) %MON surfExpan_salt_mean          =   1.5282151491089E-06
(PID.TID 0000.0001) // =======================================================
(PID.TID 0000.0001) // End MONITOR dynamic field statistics
(PID.TID 0000.0001) // =======================================================
(PID.TID 0000.0001) DEBUG_MSG: LEAVING S/R FORWARD_STEP
(PID.TID 0000.0001) DEBUG_MSG: ENTERED S/R FORWARD_STEP
(PID.TID 0000.0001) DEBUG_MSG: CALLING S/R LOAD_FIELDS_DRIVER
(PID.TID 0000.0001) DEBUG_MSG: ENTERED S/R LOAD_FIELDS_DRIVER
(PID.TID 0000.0001) DEBUG_MSG: CALLING S/R EXTERNAL_FIELDS_LOAD
(PID.TID 0000.0001) DEBUG_MSG: LEAVING S/R LOAD_FIELDS_DRIVER
(PID.TID 0000.0001) DEBUG_MSG: CALLING S/R DO_ATMOSPHERIC_PHYS
(PID.TID 0000.0001) DEBUG_MSG: ENTERED S/R DO_ATMOSPHERIC_PHYS
(PID.TID 0000.0001) DEBUG_MSG: LEAVING S/R DO_ATMOSPHERIC_PHYS
(PID.TID 0000.0001) DEBUG_MSG: CALLING S/R DO_OCEANIC_PHYS
(PID.TID 0000.0001) DEBUG_MSG: ENTERED S/R DO_OCEANIC_PHYS
(PID.TID 0000.0001) DEBUG_MSG: CALLING S/R EXTERNAL_FORCING_SURF
(PID.TID 0000.0001) DEBUG_MSG: CALLING S/R FIND_RHO_2D (xNr)
(PID.TID 0000.0001) DEBUG_MSG:                  ENTERING UPWARD K LOOP (bi=   1, bj=   1)
(PID.TID 0000.0001) DEBUG_MSG: CALLING S/R GRAD_SIGMA
(PID.TID 0000.0001) DEBUG_MSG: CALLING S/R CALC_IVDC
(PID.TID 0000.0001) DEBUG_MSG: CALLING S/R GRAD_SIGMA
(PID.TID 0000.0001) DEBUG_MSG: CALLING S/R CALC_IVDC
(PID.TID 0000.0001) DEBUG_MSG: CALLING S/R GRAD_SIGMA
(PID.TID 0000.0001) DEBUG_MSG: CALLING S/R CALC_IVDC
(PID.TID 0000.0001) DEBUG_MSG: CALLING S/R GRAD_SIGMA
(PID.TID 0000.0001) DEBUG_MSG: CALLING S/R CALC_IVDC
(PID.TID 0000.0001) DEBUG_MSG: CALLING S/R GRAD_SIGMA
(PID.TID 0000.0001) DEBUG_MSG: CALLING S/R CALC_IVDC
(PID.TID 0000.0001) DEBUG_MSG: CALLING S/R GRAD_SIGMA
(PID.TID 0000.0001) DEBUG_MSG: CALLING S/R CALC_IVDC
(PID.TID 0000.0001) DEBUG_MSG: CALLING S/R GRAD_SIGMA
(PID.TID 0000.0001) DEBUG_MSG: CALLING S/R CALC_IVDC
(PID.TID 0000.0001) DEBUG_MSG: CALLING S/R GRAD_SIGMA
(PID.TID 0000.0001) DEBUG_MSG: CALLING S/R CALC_IVDC
(PID.TID 0000.0001) DEBUG_MSG: CALLING S/R GRAD_SIGMA
(PID.TID 0000.0001) DEBUG_MSG: CALLING S/R CALC_IVDC
(PID.TID 0000.0001) DEBUG_MSG: CALLING S/R GRAD_SIGMA
(PID.TID 0000.0001) DEBUG_MSG: CALLING S/R CALC_IVDC
(PID.TID 0000.0001) DEBUG_MSG: CALLING S/R GRAD_SIGMA
(PID.TID 0000.0001) DEBUG_MSG: CALLING S/R CALC_IVDC
(PID.TID 0000.0001) DEBUG_MSG: CALLING S/R GRAD_SIGMA
(PID.TID 0000.0001) DEBUG_MSG: CALLING S/R CALC_IVDC
(PID.TID 0000.0001) DEBUG_MSG: CALLING S/R GRAD_SIGMA
(PID.TID 0000.0001) DEBUG_MSG: CALLING S/R CALC_IVDC
(PID.TID 0000.0001) DEBUG_MSG: CALLING S/R GRAD_SIGMA
(PID.TID 0000.0001) DEBUG_MSG: CALLING S/R CALC_IVDC
(PID.TID 0000.0001) DEBUG_MSG: CALLING S/R GRAD_SIGMA
(PID.TID 0000.0001) DEBUG_MSG: CALLING S/R CALC_IVDC
(PID.TID 0000.0001) DEBUG_MSG: CALLING S/R GRAD_SIGMA
(PID.TID 0000.0001) DEBUG_MSG: CALLING S/R GMREDI_CALC_TENSOR
(PID.TID 0000.0001) DEBUG_MSG: LEAVING S/R DO_OCEANIC_PHYS
(PID.TID 0000.0001) DEBUG_MSG: CALLING S/R DYNAMICS
(PID.TID 0000.0001) DEBUG_MSG: ENTERED S/R DYNAMICS
DEBUG_STATS_RL:                EtaN (DYNAMICS)  min= -1.91893042254706E+00
DEBUG_STATS_RL:                EtaN (DYNAMICS)  max=  1.74297424964526E+00
DEBUG_STATS_RL:                EtaN (DYNAMICS) mean=  4.35358982812100E-02
DEBUG_STATS_RL:                EtaN (DYNAMICS) S.D.=  8.26229002203992E-02
DEBUG_STATS_RL:                Uvel (DYNAMICS)  min= -5.58937257129849E-01
DEBUG_STATS_RL:                Uvel (DYNAMICS)  max=  3.14762464583360E-01
DEBUG_STATS_RL:                Uvel (DYNAMICS) mean= -4.68871233523892E-04
DEBUG_STATS_RL:                Uvel (DYNAMICS) S.D.=  1.98539633388275E-02
DEBUG_STATS_RL:                Vvel (DYNAMICS)  min= -2.97305320919437E-01
DEBUG_STATS_RL:                Vvel (DYNAMICS)  max=  2.76189653146107E-01
DEBUG_STATS_RL:                Vvel (DYNAMICS) mean= -7.05082119591512E-04
DEBUG_STATS_RL:                Vvel (DYNAMICS) S.D.=  1.91755551519721E-02
DEBUG_STATS_RL:                Wvel (DYNAMICS)  min= -1.67773999384055E-04
DEBUG_STATS_RL:                Wvel (DYNAMICS)  max=  1.50079098396514E-04
DEBUG_STATS_RL:                Wvel (DYNAMICS) mean= -2.66599618869999E-07
DEBUG_STATS_RL:                Wvel (DYNAMICS) S.D.=  6.82498035378537E-06
DEBUG_STATS_RL:               Theta (DYNAMICS)  min=  1.60489566610127E+01
DEBUG_STATS_RL:               Theta (DYNAMICS)  max=  2.36847201583060E+01
DEBUG_STATS_RL:               Theta (DYNAMICS) mean=  2.00038752266703E+01
DEBUG_STATS_RL:               Theta (DYNAMICS) S.D.=  9.62875684191840E-02
DEBUG_STATS_RL:                Salt (DYNAMICS)  min=  2.36088214832305E+01
DEBUG_STATS_RL:                Salt (DYNAMICS)  max=  3.51507742756475E+01
DEBUG_STATS_RL:                Salt (DYNAMICS) mean=  3.49968753451597E+01
DEBUG_STATS_RL:                Salt (DYNAMICS) S.D.=  1.30777484644966E-01
DEBUG_STATS_RL:                  Gu (DYNAMICS)  min= -5.64344984095903E-01
DEBUG_STATS_RL:                  Gu (DYNAMICS)  max=  2.97217987054393E-01
DEBUG_STATS_RL:                  Gu (DYNAMICS) mean= -4.81697323050608E-04
DEBUG_STATS_RL:                  Gu (DYNAMICS) S.D.=  2.00002540066119E-02
DEBUG_STATS_RL:                  Gv (DYNAMICS)  min= -2.84824873588155E-01
DEBUG_STATS_RL:                  Gv (DYNAMICS)  max=  2.78222109998811E-01
DEBUG_STATS_RL:                  Gv (DYNAMICS) mean= -7.05544641124687E-04
DEBUG_STATS_RL:                  Gv (DYNAMICS) S.D.=  1.93387959034084E-02
DEBUG_STATS_RL:               GuNm1 (DYNAMICS)  min= -2.11096051917635E-05
DEBUG_STATS_RL:               GuNm1 (DYNAMICS)  max=  2.23626824890515E-05
DEBUG_STATS_RL:               GuNm1 (DYNAMICS) mean= -1.36753767509931E-08
DEBUG_STATS_RL:               GuNm1 (DYNAMICS) S.D.=  1.06997020061450E-06
DEBUG_STATS_RL:               GvNm1 (DYNAMICS)  min= -1.99296977940170E-05
DEBUG_STATS_RL:               GvNm1 (DYNAMICS)  max=  2.84074039879264E-05
DEBUG_STATS_RL:               GvNm1 (DYNAMICS) mean= -3.09624525134541E-09
DEBUG_STATS_RL:               GvNm1 (DYNAMICS) S.D.=  1.28728766164142E-06
DEBUG_STATS_RL:               GtNm1 (DYNAMICS)  min= -3.38593625407902E-06
DEBUG_STATS_RL:               GtNm1 (DYNAMICS)  max=  4.69114972034658E-06
DEBUG_STATS_RL:               GtNm1 (DYNAMICS) mean=  1.20928718168426E-09
DEBUG_STATS_RL:               GtNm1 (DYNAMICS) S.D.=  6.04483236882255E-08
DEBUG_STATS_RL:               GsNm1 (DYNAMICS)  min= -1.50447939079640E-05
DEBUG_STATS_RL:               GsNm1 (DYNAMICS)  max=  2.31533069269129E-06
DEBUG_STATS_RL:               GsNm1 (DYNAMICS) mean= -4.37544517793256E-09
DEBUG_STATS_RL:               GsNm1 (DYNAMICS) S.D.=  1.73098431914187E-07
(PID.TID 0000.0001) DEBUG_MSG: LEAVING S/R DYNAMICS
DEBUG_STATS_RL:    cg2d_b (SOLVE_FOR_PRESSURE)  min= -2.09173629055880E+05
DEBUG_STATS_RL:    cg2d_b (SOLVE_FOR_PRESSURE)  max=  1.68293275865802E+05
DEBUG_STATS_RL:    cg2d_b (SOLVE_FOR_PRESSURE) mean= -4.34603867618665E+03
DEBUG_STATS_RL:    cg2d_b (SOLVE_FOR_PRESSURE) S.D.=  7.99774065825868E+03
 cg2d: Sum(rhs),rhsMax =  -9.18351468846642E+01  4.00704804453258E+01
(PID.TID 0000.0001)  cg2d: iter=     1 ; resid.=  2.84338515075936E-02
(PID.TID 0000.0001)  cg2d: iter=     2 ; resid.=  3.81474536200200E-03
(PID.TID 0000.0001)  cg2d: iter=     3 ; resid.=  8.94112569554214E-04
(PID.TID 0000.0001)  cg2d: iter=     4 ; resid.=  2.88911844809587E-04
(PID.TID 0000.0001)  cg2d: iter=     5 ; resid.=  7.97422147875046E-05
(PID.TID 0000.0001)  cg2d: iter=     6 ; resid.=  1.76682278928981E-05
(PID.TID 0000.0001)  cg2d: iter=     7 ; resid.=  3.59240380870116E-06
(PID.TID 0000.0001)  cg2d: iter=     8 ; resid.=  7.63490165949130E-07
(PID.TID 0000.0001)  cg2d: iter=     9 ; resid.=  1.77828779205438E-07
(PID.TID 0000.0001)  cg2d: iter=    10 ; resid.=  4.93524708804246E-08
DEBUG_STATS_RL:    cg2d_x (SOLVE_FOR_PRESSURE)  min= -1.78022339829641E+01
DEBUG_STATS_RL:    cg2d_x (SOLVE_FOR_PRESSURE)  max=  1.71207804825196E+01
DEBUG_STATS_RL:    cg2d_x (SOLVE_FOR_PRESSURE) mean=  4.29263968001247E-01
DEBUG_STATS_RL:    cg2d_x (SOLVE_FOR_PRESSURE) S.D.=  8.03957371964989E-01
(PID.TID 0000.0001)      cg2d_init_res =   1.75182147877568E-01
(PID.TID 0000.0001)      cg2d_iters(min,last) =      -1      10
(PID.TID 0000.0001)      cg2d_last_res =   4.93524708804246E-08
(PID.TID 0000.0001) DEBUG_MSG: CALLING S/R UPDATE_ETAH
(PID.TID 0000.0001) DEBUG_MSG: ENTERED S/R CALC_R_STAR
(PID.TID 0000.0001) DEBUG_MSG: LEAVING S/R CALC_R_STAR
(PID.TID 0000.0001) DEBUG_MSG: CALLING S/R DO_STAGGER_FIELDS_EXCH.
(PID.TID 0000.0001) DEBUG_MSG: CALLING S/R THERMODYNAMICS
(PID.TID 0000.0001) DEBUG_MSG: ENTERED S/R THERMODYNAMICS
(PID.TID 0000.0001) DEBUG_MSG: CALLING S/R TEMP_INTEGRATE
(PID.TID 0000.0001) DEBUG_MSG: CALLING S/R SALT_INTEGRATE
DEBUG_STATS_RL:          Uvel (THERMODYNAMICS)  min= -5.28308676079814E-01
DEBUG_STATS_RL:          Uvel (THERMODYNAMICS)  max=  2.97266240677475E-01
DEBUG_STATS_RL:          Uvel (THERMODYNAMICS) mean= -4.91274376691273E-04
DEBUG_STATS_RL:          Uvel (THERMODYNAMICS) S.D.=  2.00029047492936E-02
DEBUG_STATS_RL:          Vvel (THERMODYNAMICS)  min= -2.98502708379205E-01
DEBUG_STATS_RL:          Vvel (THERMODYNAMICS)  max=  2.67119025715076E-01
DEBUG_STATS_RL:          Vvel (THERMODYNAMICS) mean= -7.12577875281353E-04
DEBUG_STATS_RL:          Vvel (THERMODYNAMICS) S.D.=  1.94089934387661E-02
DEBUG_STATS_RL:          Wvel (THERMODYNAMICS)  min= -1.61880095908771E-04
DEBUG_STATS_RL:          Wvel (THERMODYNAMICS)  max=  1.50533937770268E-04
DEBUG_STATS_RL:          Wvel (THERMODYNAMICS) mean= -2.63824775615190E-07
DEBUG_STATS_RL:          Wvel (THERMODYNAMICS) S.D.=  6.79255759727527E-06
DEBUG_STATS_RL:         Theta (THERMODYNAMICS)  min=  1.60475567424514E+01
DEBUG_STATS_RL:         Theta (THERMODYNAMICS)  max=  2.37131026060555E+01
DEBUG_STATS_RL:         Theta (THERMODYNAMICS) mean=  2.00039712451720E+01
DEBUG_STATS_RL:         Theta (THERMODYNAMICS) S.D.=  9.68274835587180E-02
DEBUG_STATS_RL:          Salt (THERMODYNAMICS)  min=  2.35583376051529E+01
DEBUG_STATS_RL:          Salt (THERMODYNAMICS)  max=  3.51507664857964E+01
DEBUG_STATS_RL:          Salt (THERMODYNAMICS) mean=  3.49968540289501E+01
DEBUG_STATS_RL:          Salt (THERMODYNAMICS) S.D.=  1.31401717202692E-01
DEBUG_STATS_RL:         GtNm1 (THERMODYNAMICS)  min= -3.34374474160526E-06
DEBUG_STATS_RL:         GtNm1 (THERMODYNAMICS)  max=  4.66159015005988E-06
DEBUG_STATS_RL:         GtNm1 (THERMODYNAMICS) mean=  1.25675002481677E-09
DEBUG_STATS_RL:         GtNm1 (THERMODYNAMICS) S.D.=  6.13325193017031E-08
DEBUG_STATS_RL:         GsNm1 (THERMODYNAMICS)  min= -1.49587259442103E-05
DEBUG_STATS_RL:         GsNm1 (THERMODYNAMICS)  max=  2.33648622488085E-06
DEBUG_STATS_RL:         GsNm1 (THERMODYNAMICS) mean= -4.35081390172224E-09
DEBUG_STATS_RL:         GsNm1 (THERMODYNAMICS) S.D.=  1.71792414960511E-07
(PID.TID 0000.0001) DEBUG_MSG: LEAVING S/R THERMODYNAMICS
(PID.TID 0000.0001) // =======================================================
(PID.TID 0000.0001) // Begin MONITOR dynamic field statistics
(PID.TID 0000.0001) // =======================================================
(PID.TID 0000.0001) %MON time_tsnumber                =                    77
(PID.TID 0000.0001) %MON time_secondsf                =   6.9300000000000E+04
(PID.TID 0000.0001) %MON dynstat_eta_max              =   1.7452375620669E+00
(PID.TID 0000.0001) %MON dynstat_eta_min              =  -1.8147027470346E+00
(PID.TID 0000.0001) %MON dynstat_eta_mean             =   4.2759699831419E-02
(PID.TID 0000.0001) %MON dynstat_eta_sd               =   7.7673932696667E-02
(PID.TID 0000.0001) %MON dynstat_eta_del2             =   1.5169557682388E-03
(PID.TID 0000.0001) %MON dynstat_uvel_max             =   2.9726624067747E-01
(PID.TID 0000.0001) %MON dynstat_uvel_min             =  -5.2830867607981E-01
(PID.TID 0000.0001) %MON dynstat_uvel_mean            =  -4.1589985117915E-05
(PID.TID 0000.0001) %MON dynstat_uvel_sd              =   6.7139450838211E-03
(PID.TID 0000.0001) %MON dynstat_uvel_del2            =   9.1778169100203E-05
(PID.TID 0000.0001) %MON dynstat_vvel_max             =   2.6711902571508E-01
(PID.TID 0000.0001) %MON dynstat_vvel_min             =  -2.9850270837921E-01
(PID.TID 0000.0001) %MON dynstat_vvel_mean            =   6.8681540081450E-04
(PID.TID 0000.0001) %MON dynstat_vvel_sd              =   6.5482010736658E-03
(PID.TID 0000.0001) %MON dynstat_vvel_del2            =   9.3850433212641E-05
(PID.TID 0000.0001) %MON dynstat_wvel_max             =   1.5053393777027E-04
(PID.TID 0000.0001) %MON dynstat_wvel_min             =  -1.6188009590877E-04
(PID.TID 0000.0001) %MON dynstat_wvel_mean            =  -1.6390781261501E-07
(PID.TID 0000.0001) %MON dynstat_wvel_sd              =   6.5497443825675E-06
(PID.TID 0000.0001) %MON dynstat_wvel_del2            =   7.0805710631245E-08
(PID.TID 0000.0001) %MON dynstat_theta_max            =   2.3713102606056E+01
(PID.TID 0000.0001) %MON dynstat_theta_min            =   1.6047556742451E+01
(PID.TID 0000.0001) %MON dynstat_theta_mean           =   1.9997915877427E+01
(PID.TID 0000.0001) %MON dynstat_theta_sd             =   3.1897178554776E-02
(PID.TID 0000.0001) %MON dynstat_theta_del2           =   5.5180071311387E-04
(PID.TID 0000.0001) %MON dynstat_salt_max             =   3.5150766485796E+01
(PID.TID 0000.0001) %MON dynstat_salt_min             =   2.3558337605153E+01
(PID.TID 0000.0001) %MON dynstat_salt_mean            =   3.4999592118551E+01
(PID.TID 0000.0001) %MON dynstat_salt_sd              =   4.0554238200066E-02
(PID.TID 0000.0001) %MON dynstat_salt_del2            =   1.3934936472417E-03
(PID.TID 0000.0001) %MON dynstat_sst_max              =   2.3713102606056E+01
(PID.TID 0000.0001) %MON dynstat_sst_min              =   1.6047556742451E+01
(PID.TID 0000.0001) %MON dynstat_sst_mean             =   2.0153547026032E+01
(PID.TID 0000.0001) %MON dynstat_sst_sd               =   2.9834136732695E-01
(PID.TID 0000.0001) %MON dynstat_sst_del2             =   6.4941849204048E-03
(PID.TID 0000.0001) %MON dynstat_sss_max              =   3.5150766485796E+01
(PID.TID 0000.0001) %MON dynstat_sss_min              =   2.3558337605153E+01
(PID.TID 0000.0001) %MON dynstat_sss_mean             =   3.4962618819991E+01
(PID.TID 0000.0001) %MON dynstat_sss_sd               =   4.8897132722293E-01
(PID.TID 0000.0001) %MON dynstat_sss_del2             =   1.8859498330812E-02
(PID.TID 0000.0001) %MON forcing_qnet_max             =   5.8317700195312E+03
(PID.TID 0000.0001) %MON forcing_qnet_min             =  -2.7977363281250E+03
(PID.TID 0000.0001) %MON forcing_qnet_mean            =  -1.9288375319858E+01
(PID.TID 0000.0001) %MON forcing_qnet_sd              =   4.5690216622060E+02
(PID.TID 0000.0001) %MON forcing_qnet_del2            =   5.5178499560019E+00
(PID.TID 0000.0001) %MON forcing_qsw_max              =   0.0000000000000E+00
(PID.TID 0000.0001) %MON forcing_qsw_min              =  -1.0833752319082E+02
(PID.TID 0000.0001) %MON forcing_qsw_mean             =  -1.8426440764475E+01
(PID.TID 0000.0001) %MON forcing_qsw_sd               =   2.8051187349558E+01
(PID.TID 0000.0001) %MON forcing_qsw_del2             =   2.4148097718872E-01
(PID.TID 0000.0001) %MON forcing_empmr_max            =   5.0494889728725E-03
(PID.TID 0000.0001) %MON forcing_empmr_min            =  -7.2574272751808E-02
(PID.TID 0000.0001) %MON forcing_empmr_mean           =  -3.6322924843986E-04
(PID.TID 0000.0001) %MON forcing_empmr_sd             =   3.2322476039560E-03
(PID.TID 0000.0001) %MON forcing_empmr_del2           =   1.2613046060536E-04
(PID.TID 0000.0001) %MON forcing_fu_max               =   5.6291577397616E-01
(PID.TID 0000.0001) %MON forcing_fu_min               =  -6.2361124526529E-01
(PID.TID 0000.0001) %MON forcing_fu_mean              =  -7.0922895110235E-04
(PID.TID 0000.0001) %MON forcing_fu_sd                =   8.3717791822000E-02
(PID.TID 0000.0001) %MON forcing_fu_del2              =   7.0775567502191E-04
(PID.TID 0000.0001) %MON forcing_fv_max               =   3.7495255618610E-01
(PID.TID 0000.0001) %MON forcing_fv_min               =  -3.5588627193681E-01
(PID.TID 0000.0001) %MON forcing_fv_mean              =  -6.9919402225049E-03
(PID.TID 0000.0001) %MON forcing_fv_sd                =   7.1087164952251E-02
(PID.TID 0000.0001) %MON forcing_fv_del2              =   5.8588316672665E-04
(PID.TID 0000.0001) %MON trAdv_CFL_u_max              =   1.5649282141553E-03
(PID.TID 0000.0001) %MON trAdv_CFL_v_max              =   1.4927197673472E-03
(PID.TID 0000.0001) %MON trAdv_CFL_w_max              =   2.3226729328525E-03
(PID.TID 0000.0001) %MON advcfl_uvel_max              =   1.5352698490241E-03
(PID.TID 0000.0001) %MON advcfl_vvel_max              =   1.4341233475399E-03
(PID.TID 0000.0001) %MON advcfl_wvel_max              =   5.0486450609954E-03
(PID.TID 0000.0001) %MON advcfl_W_hf_max              =   2.3226729328525E-03
(PID.TID 0000.0001) %MON pe_b_mean                    =   1.0473025560918E-05
(PID.TID 0000.0001) %MON ke_max                       =   1.2677007202777E-01
(PID.TID 0000.0001) %MON ke_mean                      =   4.0823893612098E-05
(PID.TID 0000.0001) %MON ke_vol                       =   1.3398178901162E+18
(PID.TID 0000.0001) %MON vort_r_min                   =  -2.5321001552420E-06
(PID.TID 0000.0001) %MON vort_r_max                   =   2.5194286195245E-06
(PID.TID 0000.0001) %MON vort_a_mean                  =  -2.0549865324846E-05
(PID.TID 0000.0001) %MON vort_a_sd                    =   7.5259439664092E-05
(PID.TID 0000.0001) %MON vort_p_mean                  =  -2.4783234444669E-05
(PID.TID 0000.0001) %MON vort_p_sd                    =   1.2810511664711E-04
(PID.TID 0000.0001) %MON surfExpan_theta_mean         =  -5.0444696946995E-07
(PID.TID 0000.0001) %MON surfExpan_salt_mean          =   1.5201734946192E-06
(PID.TID 0000.0001) // =======================================================
(PID.TID 0000.0001) // End MONITOR dynamic field statistics
(PID.TID 0000.0001) // =======================================================
(PID.TID 0000.0001) DEBUG_MSG: LEAVING S/R FORWARD_STEP
(PID.TID 0000.0001) DEBUG_MSG: ENTERED S/R FORWARD_STEP
(PID.TID 0000.0001) DEBUG_MSG: CALLING S/R LOAD_FIELDS_DRIVER
(PID.TID 0000.0001) DEBUG_MSG: ENTERED S/R LOAD_FIELDS_DRIVER
(PID.TID 0000.0001) DEBUG_MSG: CALLING S/R EXTERNAL_FIELDS_LOAD
(PID.TID 0000.0001) DEBUG_MSG: LEAVING S/R LOAD_FIELDS_DRIVER
(PID.TID 0000.0001) DEBUG_MSG: CALLING S/R DO_ATMOSPHERIC_PHYS
(PID.TID 0000.0001) DEBUG_MSG: ENTERED S/R DO_ATMOSPHERIC_PHYS
(PID.TID 0000.0001) DEBUG_MSG: LEAVING S/R DO_ATMOSPHERIC_PHYS
(PID.TID 0000.0001) DEBUG_MSG: CALLING S/R DO_OCEANIC_PHYS
(PID.TID 0000.0001) DEBUG_MSG: ENTERED S/R DO_OCEANIC_PHYS
(PID.TID 0000.0001) DEBUG_MSG: CALLING S/R EXTERNAL_FORCING_SURF
(PID.TID 0000.0001) DEBUG_MSG: CALLING S/R FIND_RHO_2D (xNr)
(PID.TID 0000.0001) DEBUG_MSG:                  ENTERING UPWARD K LOOP (bi=   1, bj=   1)
(PID.TID 0000.0001) DEBUG_MSG: CALLING S/R GRAD_SIGMA
(PID.TID 0000.0001) DEBUG_MSG: CALLING S/R CALC_IVDC
(PID.TID 0000.0001) DEBUG_MSG: CALLING S/R GRAD_SIGMA
(PID.TID 0000.0001) DEBUG_MSG: CALLING S/R CALC_IVDC
(PID.TID 0000.0001) DEBUG_MSG: CALLING S/R GRAD_SIGMA
(PID.TID 0000.0001) DEBUG_MSG: CALLING S/R CALC_IVDC
(PID.TID 0000.0001) DEBUG_MSG: CALLING S/R GRAD_SIGMA
(PID.TID 0000.0001) DEBUG_MSG: CALLING S/R CALC_IVDC
(PID.TID 0000.0001) DEBUG_MSG: CALLING S/R GRAD_SIGMA
(PID.TID 0000.0001) DEBUG_MSG: CALLING S/R CALC_IVDC
(PID.TID 0000.0001) DEBUG_MSG: CALLING S/R GRAD_SIGMA
(PID.TID 0000.0001) DEBUG_MSG: CALLING S/R CALC_IVDC
(PID.TID 0000.0001) DEBUG_MSG: CALLING S/R GRAD_SIGMA
(PID.TID 0000.0001) DEBUG_MSG: CALLING S/R CALC_IVDC
(PID.TID 0000.0001) DEBUG_MSG: CALLING S/R GRAD_SIGMA
(PID.TID 0000.0001) DEBUG_MSG: CALLING S/R CALC_IVDC
(PID.TID 0000.0001) DEBUG_MSG: CALLING S/R GRAD_SIGMA
(PID.TID 0000.0001) DEBUG_MSG: CALLING S/R CALC_IVDC
(PID.TID 0000.0001) DEBUG_MSG: CALLING S/R GRAD_SIGMA
(PID.TID 0000.0001) DEBUG_MSG: CALLING S/R CALC_IVDC
(PID.TID 0000.0001) DEBUG_MSG: CALLING S/R GRAD_SIGMA
(PID.TID 0000.0001) DEBUG_MSG: CALLING S/R CALC_IVDC
(PID.TID 0000.0001) DEBUG_MSG: CALLING S/R GRAD_SIGMA
(PID.TID 0000.0001) DEBUG_MSG: CALLING S/R CALC_IVDC
(PID.TID 0000.0001) DEBUG_MSG: CALLING S/R GRAD_SIGMA
(PID.TID 0000.0001) DEBUG_MSG: CALLING S/R CALC_IVDC
(PID.TID 0000.0001) DEBUG_MSG: CALLING S/R GRAD_SIGMA
(PID.TID 0000.0001) DEBUG_MSG: CALLING S/R CALC_IVDC
(PID.TID 0000.0001) DEBUG_MSG: CALLING S/R GRAD_SIGMA
(PID.TID 0000.0001) DEBUG_MSG: CALLING S/R CALC_IVDC
(PID.TID 0000.0001) DEBUG_MSG: CALLING S/R GRAD_SIGMA
(PID.TID 0000.0001) DEBUG_MSG: CALLING S/R GMREDI_CALC_TENSOR
(PID.TID 0000.0001) DEBUG_MSG: LEAVING S/R DO_OCEANIC_PHYS
(PID.TID 0000.0001) DEBUG_MSG: CALLING S/R DYNAMICS
(PID.TID 0000.0001) DEBUG_MSG: ENTERED S/R DYNAMICS
DEBUG_STATS_RL:                EtaN (DYNAMICS)  min= -1.81470274703459E+00
DEBUG_STATS_RL:                EtaN (DYNAMICS)  max=  1.74523756206695E+00
DEBUG_STATS_RL:                EtaN (DYNAMICS) mean=  4.37577950525182E-02
DEBUG_STATS_RL:                EtaN (DYNAMICS) S.D.=  8.19528412394007E-02
DEBUG_STATS_RL:                Uvel (DYNAMICS)  min= -5.28308676079814E-01
DEBUG_STATS_RL:                Uvel (DYNAMICS)  max=  2.97266240677475E-01
DEBUG_STATS_RL:                Uvel (DYNAMICS) mean= -4.91274376691273E-04
DEBUG_STATS_RL:                Uvel (DYNAMICS) S.D.=  2.00029047492936E-02
DEBUG_STATS_RL:                Vvel (DYNAMICS)  min= -2.98502708379205E-01
DEBUG_STATS_RL:                Vvel (DYNAMICS)  max=  2.67119025715076E-01
DEBUG_STATS_RL:                Vvel (DYNAMICS) mean= -7.12577875281353E-04
DEBUG_STATS_RL:                Vvel (DYNAMICS) S.D.=  1.94089934387661E-02
DEBUG_STATS_RL:                Wvel (DYNAMICS)  min= -1.61880095908771E-04
DEBUG_STATS_RL:                Wvel (DYNAMICS)  max=  1.50533937770268E-04
DEBUG_STATS_RL:                Wvel (DYNAMICS) mean= -2.63824775615190E-07
DEBUG_STATS_RL:                Wvel (DYNAMICS) S.D.=  6.79255759727527E-06
DEBUG_STATS_RL:               Theta (DYNAMICS)  min=  1.60475567424514E+01
DEBUG_STATS_RL:               Theta (DYNAMICS)  max=  2.37131026060555E+01
DEBUG_STATS_RL:               Theta (DYNAMICS) mean=  2.00039712451720E+01
DEBUG_STATS_RL:               Theta (DYNAMICS) S.D.=  9.68274835587180E-02
DEBUG_STATS_RL:                Salt (DYNAMICS)  min=  2.35583376051529E+01
DEBUG_STATS_RL:                Salt (DYNAMICS)  max=  3.51507664857964E+01
DEBUG_STATS_RL:                Salt (DYNAMICS) mean=  3.49968540289501E+01
DEBUG_STATS_RL:                Salt (DYNAMICS) S.D.=  1.31401717202692E-01
DEBUG_STATS_RL:                  Gu (DYNAMICS)  min= -5.32380212000049E-01
DEBUG_STATS_RL:                  Gu (DYNAMICS)  max=  2.96953472240892E-01
DEBUG_STATS_RL:                  Gu (DYNAMICS) mean= -5.05281142759449E-04
DEBUG_STATS_RL:                  Gu (DYNAMICS) S.D.=  2.01266636425874E-02
DEBUG_STATS_RL:                  Gv (DYNAMICS)  min= -2.92224180463852E-01
DEBUG_STATS_RL:                  Gv (DYNAMICS)  max=  2.69001643188172E-01
DEBUG_STATS_RL:                  Gv (DYNAMICS) mean= -7.11166661485320E-04
DEBUG_STATS_RL:                  Gv (DYNAMICS) S.D.=  1.95908838524196E-02
DEBUG_STATS_RL:               GuNm1 (DYNAMICS)  min= -1.98296079352090E-05
DEBUG_STATS_RL:               GuNm1 (DYNAMICS)  max=  2.13255566871892E-05
DEBUG_STATS_RL:               GuNm1 (DYNAMICS) mean= -1.51329034413720E-08
DEBUG_STATS_RL:               GuNm1 (DYNAMICS) S.D.=  1.05699674699901E-06
DEBUG_STATS_RL:               GvNm1 (DYNAMICS)  min= -2.04145532135585E-05
DEBUG_STATS_RL:               GvNm1 (DYNAMICS)  max=  2.85293570918118E-05
DEBUG_STATS_RL:               GvNm1 (DYNAMICS) mean= -1.05868394454452E-09
DEBUG_STATS_RL:               GvNm1 (DYNAMICS) S.D.=  1.28762174105756E-06
DEBUG_STATS_RL:               GtNm1 (DYNAMICS)  min= -3.34374474160526E-06
DEBUG_STATS_RL:               GtNm1 (DYNAMICS)  max=  4.66159015005988E-06
DEBUG_STATS_RL:               GtNm1 (DYNAMICS) mean=  1.25675002481677E-09
DEBUG_STATS_RL:               GtNm1 (DYNAMICS) S.D.=  6.13325193017031E-08
DEBUG_STATS_RL:               GsNm1 (DYNAMICS)  min= -1.49587259442103E-05
DEBUG_STATS_RL:               GsNm1 (DYNAMICS)  max=  2.33648622488085E-06
DEBUG_STATS_RL:               GsNm1 (DYNAMICS) mean= -4.35081390172224E-09
DEBUG_STATS_RL:               GsNm1 (DYNAMICS) S.D.=  1.71792414960511E-07
(PID.TID 0000.0001) DEBUG_MSG: LEAVING S/R DYNAMICS
DEBUG_STATS_RL:    cg2d_b (SOLVE_FOR_PRESSURE)  min= -2.08578810153294E+05
DEBUG_STATS_RL:    cg2d_b (SOLVE_FOR_PRESSURE)  max=  1.56431544257033E+05
DEBUG_STATS_RL:    cg2d_b (SOLVE_FOR_PRESSURE) mean= -4.37799998444459E+03
DEBUG_STATS_RL:    cg2d_b (SOLVE_FOR_PRESSURE) S.D.=  7.95744632548413E+03
 cg2d: Sum(rhs),rhsMax =  -9.27743327187616E+01  3.99565335806462E+01
(PID.TID 0000.0001)  cg2d: iter=     1 ; resid.=  2.82061419151706E-02
(PID.TID 0000.0001)  cg2d: iter=     2 ; resid.=  3.82825721198457E-03
(PID.TID 0000.0001)  cg2d: iter=     3 ; resid.=  9.47511223210848E-04
(PID.TID 0000.0001)  cg2d: iter=     4 ; resid.=  3.11213645674324E-04
(PID.TID 0000.0001)  cg2d: iter=     5 ; resid.=  8.22970889945023E-05
(PID.TID 0000.0001)  cg2d: iter=     6 ; resid.=  1.76715166118642E-05
(PID.TID 0000.0001)  cg2d: iter=     7 ; resid.=  3.56439106052289E-06
(PID.TID 0000.0001)  cg2d: iter=     8 ; resid.=  8.12587747002131E-07
(PID.TID 0000.0001)  cg2d: iter=     9 ; resid.=  2.26563233583221E-07
(PID.TID 0000.0001)  cg2d: iter=    10 ; resid.=  7.13200324771167E-08
DEBUG_STATS_RL:    cg2d_x (SOLVE_FOR_PRESSURE)  min= -1.65494044067047E+01
DEBUG_STATS_RL:    cg2d_x (SOLVE_FOR_PRESSURE)  max=  1.70720404184650E+01
DEBUG_STATS_RL:    cg2d_x (SOLVE_FOR_PRESSURE) mean=  4.31436747726602E-01
DEBUG_STATS_RL:    cg2d_x (SOLVE_FOR_PRESSURE) S.D.=  7.95782095820280E-01
(PID.TID 0000.0001)      cg2d_init_res =   1.76226020161182E-01
(PID.TID 0000.0001)      cg2d_iters(min,last) =      -1      10
(PID.TID 0000.0001)      cg2d_last_res =   7.13200324771167E-08
(PID.TID 0000.0001) DEBUG_MSG: CALLING S/R UPDATE_ETAH
(PID.TID 0000.0001) DEBUG_MSG: ENTERED S/R CALC_R_STAR
(PID.TID 0000.0001) DEBUG_MSG: LEAVING S/R CALC_R_STAR
(PID.TID 0000.0001) DEBUG_MSG: CALLING S/R DO_STAGGER_FIELDS_EXCH.
(PID.TID 0000.0001) DEBUG_MSG: CALLING S/R THERMODYNAMICS
(PID.TID 0000.0001) DEBUG_MSG: ENTERED S/R THERMODYNAMICS
(PID.TID 0000.0001) DEBUG_MSG: CALLING S/R TEMP_INTEGRATE
(PID.TID 0000.0001) DEBUG_MSG: CALLING S/R SALT_INTEGRATE
DEBUG_STATS_RL:          Uvel (THERMODYNAMICS)  min= -5.22750213161888E-01
DEBUG_STATS_RL:          Uvel (THERMODYNAMICS)  max=  3.14595387013749E-01
DEBUG_STATS_RL:          Uvel (THERMODYNAMICS) mean= -5.15480417990754E-04
DEBUG_STATS_RL:          Uvel (THERMODYNAMICS) S.D.=  2.01396230560927E-02
DEBUG_STATS_RL:          Vvel (THERMODYNAMICS)  min= -3.39034838895098E-01
DEBUG_STATS_RL:          Vvel (THERMODYNAMICS)  max=  2.60354198750626E-01
DEBUG_STATS_RL:          Vvel (THERMODYNAMICS) mean= -7.17811883787243E-04
DEBUG_STATS_RL:          Vvel (THERMODYNAMICS) S.D.=  1.96731494705151E-02
DEBUG_STATS_RL:          Wvel (THERMODYNAMICS)  min= -1.56021733792686E-04
DEBUG_STATS_RL:          Wvel (THERMODYNAMICS)  max=  1.50740384291143E-04
DEBUG_STATS_RL:          Wvel (THERMODYNAMICS) mean= -2.62305362727050E-07
DEBUG_STATS_RL:          Wvel (THERMODYNAMICS) S.D.=  6.75821823846072E-06
DEBUG_STATS_RL:         Theta (THERMODYNAMICS)  min=  1.60465593190564E+01
DEBUG_STATS_RL:         Theta (THERMODYNAMICS)  max=  2.37411146350320E+01
DEBUG_STATS_RL:         Theta (THERMODYNAMICS) mean=  2.00040689484872E+01
DEBUG_STATS_RL:         Theta (THERMODYNAMICS) S.D.=  9.73646605552161E-02
DEBUG_STATS_RL:          Salt (THERMODYNAMICS)  min=  2.35089435682371E+01
DEBUG_STATS_RL:          Salt (THERMODYNAMICS)  max=  3.51507588514959E+01
DEBUG_STATS_RL:          Salt (THERMODYNAMICS) mean=  3.49968336150592E+01
DEBUG_STATS_RL:          Salt (THERMODYNAMICS) S.D.=  1.32013085525313E-01
DEBUG_STATS_RL:         GtNm1 (THERMODYNAMICS)  min= -3.29836702522336E-06
DEBUG_STATS_RL:         GtNm1 (THERMODYNAMICS)  max=  4.62836399435959E-06
DEBUG_STATS_RL:         GtNm1 (THERMODYNAMICS) mean=  1.29743112860749E-09
DEBUG_STATS_RL:         GtNm1 (THERMODYNAMICS) S.D.=  6.26837141633740E-08
DEBUG_STATS_RL:         GsNm1 (THERMODYNAMICS)  min= -1.48718634905714E-05
DEBUG_STATS_RL:         GsNm1 (THERMODYNAMICS)  max=  2.35775426026853E-06
DEBUG_STATS_RL:         GsNm1 (THERMODYNAMICS) mean= -4.32571105712915E-09
DEBUG_STATS_RL:         GsNm1 (THERMODYNAMICS) S.D.=  1.70470136886944E-07
(PID.TID 0000.0001) DEBUG_MSG: LEAVING S/R THERMODYNAMICS
(PID.TID 0000.0001) // =======================================================
(PID.TID 0000.0001) // Begin MONITOR dynamic field statistics
(PID.TID 0000.0001) // =======================================================
(PID.TID 0000.0001) %MON time_tsnumber                =                    78
(PID.TID 0000.0001) %MON time_secondsf                =   7.0200000000000E+04
(PID.TID 0000.0001) %MON dynstat_eta_max              =   1.7402691557027E+00
(PID.TID 0000.0001) %MON dynstat_eta_min              =  -1.6869933077966E+00
(PID.TID 0000.0001) %MON dynstat_eta_mean             =   4.3074159975278E-02
(PID.TID 0000.0001) %MON dynstat_eta_sd               =   7.7035949701346E-02
(PID.TID 0000.0001) %MON dynstat_eta_del2             =   1.4780624167667E-03
(PID.TID 0000.0001) %MON dynstat_uvel_max             =   3.1459538701375E-01
(PID.TID 0000.0001) %MON dynstat_uvel_min             =  -5.2275021316189E-01
(PID.TID 0000.0001) %MON dynstat_uvel_mean            =  -5.2267137423471E-05
(PID.TID 0000.0001) %MON dynstat_uvel_sd              =   6.7384009332611E-03
(PID.TID 0000.0001) %MON dynstat_uvel_del2            =   9.1223595232814E-05
(PID.TID 0000.0001) %MON dynstat_vvel_max             =   2.6035419875063E-01
(PID.TID 0000.0001) %MON dynstat_vvel_min             =  -3.3903483889510E-01
(PID.TID 0000.0001) %MON dynstat_vvel_mean            =   6.5798851100125E-04
(PID.TID 0000.0001) %MON dynstat_vvel_sd              =   6.6229007633889E-03
(PID.TID 0000.0001) %MON dynstat_vvel_del2            =   9.4776454910275E-05
(PID.TID 0000.0001) %MON dynstat_wvel_max             =   1.5074038429114E-04
(PID.TID 0000.0001) %MON dynstat_wvel_min             =  -1.5602173379269E-04
(PID.TID 0000.0001) %MON dynstat_wvel_mean            =  -1.5456284547437E-07
(PID.TID 0000.0001) %MON dynstat_wvel_sd              =   6.5126596317624E-06
(PID.TID 0000.0001) %MON dynstat_wvel_del2            =   7.0622051170212E-08
(PID.TID 0000.0001) %MON dynstat_theta_max            =   2.3741114635032E+01
(PID.TID 0000.0001) %MON dynstat_theta_min            =   1.6046559319056E+01
(PID.TID 0000.0001) %MON dynstat_theta_mean           =   1.9997917149688E+01
(PID.TID 0000.0001) %MON dynstat_theta_sd             =   3.2066676463137E-02
(PID.TID 0000.0001) %MON dynstat_theta_del2           =   5.5402430130106E-04
(PID.TID 0000.0001) %MON dynstat_salt_max             =   3.5150758851496E+01
(PID.TID 0000.0001) %MON dynstat_salt_min             =   2.3508943568237E+01
(PID.TID 0000.0001) %MON dynstat_salt_mean            =   3.4999589465676E+01
(PID.TID 0000.0001) %MON dynstat_salt_sd              =   4.0742060632851E-02
(PID.TID 0000.0001) %MON dynstat_salt_del2            =   1.3993423285630E-03
(PID.TID 0000.0001) %MON dynstat_sst_max              =   2.3741114635032E+01
(PID.TID 0000.0001) %MON dynstat_sst_min              =   1.6046559319056E+01
(PID.TID 0000.0001) %MON dynstat_sst_mean             =   2.0155012445627E+01
(PID.TID 0000.0001) %MON dynstat_sst_sd               =   3.0002070633303E-01
(PID.TID 0000.0001) %MON dynstat_sst_del2             =   6.5273113534911E-03
(PID.TID 0000.0001) %MON dynstat_sss_max              =   3.5150758851496E+01
(PID.TID 0000.0001) %MON dynstat_sss_min              =   2.3508943568237E+01
(PID.TID 0000.0001) %MON dynstat_sss_mean             =   3.4962378806092E+01
(PID.TID 0000.0001) %MON dynstat_sss_sd               =   4.9123751321967E-01
(PID.TID 0000.0001) %MON dynstat_sss_del2             =   1.8938353236204E-02
(PID.TID 0000.0001) %MON forcing_qnet_max             =   2.3765136718750E+03
(PID.TID 0000.0001) %MON forcing_qnet_min             =  -2.7589670410156E+03
(PID.TID 0000.0001) %MON forcing_qnet_mean            =  -1.9892792214101E+01
(PID.TID 0000.0001) %MON forcing_qnet_sd              =   4.5172435859914E+02
(PID.TID 0000.0001) %MON forcing_qnet_del2            =   5.4547961405269E+00
(PID.TID 0000.0001) %MON forcing_qsw_max              =   0.0000000000000E+00
(PID.TID 0000.0001) %MON forcing_qsw_min              =  -1.0768471109307E+02
(PID.TID 0000.0001) %MON forcing_qsw_mean             =  -1.8592882826366E+01
(PID.TID 0000.0001) %MON forcing_qsw_sd               =   2.8013344314987E+01
(PID.TID 0000.0001) %MON forcing_qsw_del2             =   2.4099701209760E-01
(PID.TID 0000.0001) %MON forcing_empmr_max            =   4.9975318834186E-03
(PID.TID 0000.0001) %MON forcing_empmr_min            =  -7.1826636791229E-02
(PID.TID 0000.0001) %MON forcing_empmr_mean           =  -3.6162916543751E-04
(PID.TID 0000.0001) %MON forcing_empmr_sd             =   3.1999367332042E-03
(PID.TID 0000.0001) %MON forcing_empmr_del2           =   1.2482900343122E-04
(PID.TID 0000.0001) %MON forcing_fu_max               =   5.5865372029671E-01
(PID.TID 0000.0001) %MON forcing_fu_min               =  -6.1902106544571E-01
(PID.TID 0000.0001) %MON forcing_fu_mean              =  -7.8035596619050E-04
(PID.TID 0000.0001) %MON forcing_fu_sd                =   8.3272539502215E-02
(PID.TID 0000.0001) %MON forcing_fu_del2              =   7.0383980480284E-04
(PID.TID 0000.0001) %MON forcing_fv_max               =   3.7350664737433E-01
(PID.TID 0000.0001) %MON forcing_fv_min               =  -3.5039164483128E-01
(PID.TID 0000.0001) %MON forcing_fv_mean              =  -6.9530763202714E-03
(PID.TID 0000.0001) %MON forcing_fv_sd                =   7.1011445271503E-02
(PID.TID 0000.0001) %MON forcing_fv_del2              =   5.8334425556461E-04
(PID.TID 0000.0001) %MON trAdv_CFL_u_max              =   1.5083318369520E-03
(PID.TID 0000.0001) %MON trAdv_CFL_v_max              =   1.4983613673680E-03
(PID.TID 0000.0001) %MON trAdv_CFL_w_max              =   2.1997038921718E-03
(PID.TID 0000.0001) %MON advcfl_uvel_max              =   1.5080507457688E-03
(PID.TID 0000.0001) %MON advcfl_vvel_max              =   1.4395760817513E-03
(PID.TID 0000.0001) %MON advcfl_wvel_max              =   4.9966356028681E-03
(PID.TID 0000.0001) %MON advcfl_W_hf_max              =   2.3618703618285E-03
(PID.TID 0000.0001) %MON pe_b_mean                    =   1.0377493539608E-05
(PID.TID 0000.0001) %MON ke_max                       =   1.2232098876660E-01
(PID.TID 0000.0001) %MON ke_mean                      =   4.1414008260883E-05
(PID.TID 0000.0001) %MON ke_vol                       =   1.3398180050504E+18
(PID.TID 0000.0001) %MON vort_r_min                   =  -2.5373323865142E-06
(PID.TID 0000.0001) %MON vort_r_max                   =   2.5192599005417E-06
(PID.TID 0000.0001) %MON vort_a_mean                  =  -2.0549865324846E-05
(PID.TID 0000.0001) %MON vort_a_sd                    =   7.5259434660566E-05
(PID.TID 0000.0001) %MON vort_p_mean                  =  -2.4783232228796E-05
(PID.TID 0000.0001) %MON vort_p_sd                    =   1.2810510017130E-04
(PID.TID 0000.0001) %MON surfExpan_theta_mean         =  -5.1660365194304E-07
(PID.TID 0000.0001) %MON surfExpan_salt_mean          =   1.5115606404162E-06
(PID.TID 0000.0001) // =======================================================
(PID.TID 0000.0001) // End MONITOR dynamic field statistics
(PID.TID 0000.0001) // =======================================================
(PID.TID 0000.0001) DEBUG_MSG: LEAVING S/R FORWARD_STEP
(PID.TID 0000.0001) DEBUG_MSG: ENTERED S/R FORWARD_STEP
(PID.TID 0000.0001) DEBUG_MSG: CALLING S/R LOAD_FIELDS_DRIVER
(PID.TID 0000.0001) DEBUG_MSG: ENTERED S/R LOAD_FIELDS_DRIVER
(PID.TID 0000.0001) DEBUG_MSG: CALLING S/R EXTERNAL_FIELDS_LOAD
(PID.TID 0000.0001) DEBUG_MSG: LEAVING S/R LOAD_FIELDS_DRIVER
(PID.TID 0000.0001) DEBUG_MSG: CALLING S/R DO_ATMOSPHERIC_PHYS
(PID.TID 0000.0001) DEBUG_MSG: ENTERED S/R DO_ATMOSPHERIC_PHYS
(PID.TID 0000.0001) DEBUG_MSG: LEAVING S/R DO_ATMOSPHERIC_PHYS
(PID.TID 0000.0001) DEBUG_MSG: CALLING S/R DO_OCEANIC_PHYS
(PID.TID 0000.0001) DEBUG_MSG: ENTERED S/R DO_OCEANIC_PHYS
(PID.TID 0000.0001) DEBUG_MSG: CALLING S/R EXTERNAL_FORCING_SURF
(PID.TID 0000.0001) DEBUG_MSG: CALLING S/R FIND_RHO_2D (xNr)
(PID.TID 0000.0001) DEBUG_MSG:                  ENTERING UPWARD K LOOP (bi=   1, bj=   1)
(PID.TID 0000.0001) DEBUG_MSG: CALLING S/R GRAD_SIGMA
(PID.TID 0000.0001) DEBUG_MSG: CALLING S/R CALC_IVDC
(PID.TID 0000.0001) DEBUG_MSG: CALLING S/R GRAD_SIGMA
(PID.TID 0000.0001) DEBUG_MSG: CALLING S/R CALC_IVDC
(PID.TID 0000.0001) DEBUG_MSG: CALLING S/R GRAD_SIGMA
(PID.TID 0000.0001) DEBUG_MSG: CALLING S/R CALC_IVDC
(PID.TID 0000.0001) DEBUG_MSG: CALLING S/R GRAD_SIGMA
(PID.TID 0000.0001) DEBUG_MSG: CALLING S/R CALC_IVDC
(PID.TID 0000.0001) DEBUG_MSG: CALLING S/R GRAD_SIGMA
(PID.TID 0000.0001) DEBUG_MSG: CALLING S/R CALC_IVDC
(PID.TID 0000.0001) DEBUG_MSG: CALLING S/R GRAD_SIGMA
(PID.TID 0000.0001) DEBUG_MSG: CALLING S/R CALC_IVDC
(PID.TID 0000.0001) DEBUG_MSG: CALLING S/R GRAD_SIGMA
(PID.TID 0000.0001) DEBUG_MSG: CALLING S/R CALC_IVDC
(PID.TID 0000.0001) DEBUG_MSG: CALLING S/R GRAD_SIGMA
(PID.TID 0000.0001) DEBUG_MSG: CALLING S/R CALC_IVDC
(PID.TID 0000.0001) DEBUG_MSG: CALLING S/R GRAD_SIGMA
(PID.TID 0000.0001) DEBUG_MSG: CALLING S/R CALC_IVDC
(PID.TID 0000.0001) DEBUG_MSG: CALLING S/R GRAD_SIGMA
(PID.TID 0000.0001) DEBUG_MSG: CALLING S/R CALC_IVDC
(PID.TID 0000.0001) DEBUG_MSG: CALLING S/R GRAD_SIGMA
(PID.TID 0000.0001) DEBUG_MSG: CALLING S/R CALC_IVDC
(PID.TID 0000.0001) DEBUG_MSG: CALLING S/R GRAD_SIGMA
(PID.TID 0000.0001) DEBUG_MSG: CALLING S/R CALC_IVDC
(PID.TID 0000.0001) DEBUG_MSG: CALLING S/R GRAD_SIGMA
(PID.TID 0000.0001) DEBUG_MSG: CALLING S/R CALC_IVDC
(PID.TID 0000.0001) DEBUG_MSG: CALLING S/R GRAD_SIGMA
(PID.TID 0000.0001) DEBUG_MSG: CALLING S/R CALC_IVDC
(PID.TID 0000.0001) DEBUG_MSG: CALLING S/R GRAD_SIGMA
(PID.TID 0000.0001) DEBUG_MSG: CALLING S/R CALC_IVDC
(PID.TID 0000.0001) DEBUG_MSG: CALLING S/R GRAD_SIGMA
(PID.TID 0000.0001) DEBUG_MSG: CALLING S/R GMREDI_CALC_TENSOR
(PID.TID 0000.0001) DEBUG_MSG: LEAVING S/R DO_OCEANIC_PHYS
(PID.TID 0000.0001) DEBUG_MSG: CALLING S/R DYNAMICS
(PID.TID 0000.0001) DEBUG_MSG: ENTERED S/R DYNAMICS
DEBUG_STATS_RL:                EtaN (DYNAMICS)  min= -1.68699330779663E+00
DEBUG_STATS_RL:                EtaN (DYNAMICS)  max=  1.74026915570266E+00
DEBUG_STATS_RL:                EtaN (DYNAMICS) mean=  4.39792815059010E-02
DEBUG_STATS_RL:                EtaN (DYNAMICS) S.D.=  8.11194797667207E-02
DEBUG_STATS_RL:                Uvel (DYNAMICS)  min= -5.22750213161888E-01
DEBUG_STATS_RL:                Uvel (DYNAMICS)  max=  3.14595387013749E-01
DEBUG_STATS_RL:                Uvel (DYNAMICS) mean= -5.15480417990754E-04
DEBUG_STATS_RL:                Uvel (DYNAMICS) S.D.=  2.01396230560927E-02
DEBUG_STATS_RL:                Vvel (DYNAMICS)  min= -3.39034838895098E-01
DEBUG_STATS_RL:                Vvel (DYNAMICS)  max=  2.60354198750626E-01
DEBUG_STATS_RL:                Vvel (DYNAMICS) mean= -7.17811883787243E-04
DEBUG_STATS_RL:                Vvel (DYNAMICS) S.D.=  1.96731494705151E-02
DEBUG_STATS_RL:                Wvel (DYNAMICS)  min= -1.56021733792686E-04
DEBUG_STATS_RL:                Wvel (DYNAMICS)  max=  1.50740384291143E-04
DEBUG_STATS_RL:                Wvel (DYNAMICS) mean= -2.62305362727050E-07
DEBUG_STATS_RL:                Wvel (DYNAMICS) S.D.=  6.75821823846072E-06
DEBUG_STATS_RL:               Theta (DYNAMICS)  min=  1.60465593190564E+01
DEBUG_STATS_RL:               Theta (DYNAMICS)  max=  2.37411146350320E+01
DEBUG_STATS_RL:               Theta (DYNAMICS) mean=  2.00040689484872E+01
DEBUG_STATS_RL:               Theta (DYNAMICS) S.D.=  9.73646605552161E-02
DEBUG_STATS_RL:                Salt (DYNAMICS)  min=  2.35089435682371E+01
DEBUG_STATS_RL:                Salt (DYNAMICS)  max=  3.51507588514959E+01
DEBUG_STATS_RL:                Salt (DYNAMICS) mean=  3.49968336150592E+01
DEBUG_STATS_RL:                Salt (DYNAMICS) S.D.=  1.32013085525313E-01
DEBUG_STATS_RL:                  Gu (DYNAMICS)  min= -5.18883440876198E-01
DEBUG_STATS_RL:                  Gu (DYNAMICS)  max=  3.14750117402958E-01
DEBUG_STATS_RL:                  Gu (DYNAMICS) mean= -5.30466420411493E-04
DEBUG_STATS_RL:                  Gu (DYNAMICS) S.D.=  2.02392583943504E-02
DEBUG_STATS_RL:                  Gv (DYNAMICS)  min= -3.33151473057170E-01
DEBUG_STATS_RL:                  Gv (DYNAMICS)  max=  2.57957989306570E-01
DEBUG_STATS_RL:                  Gv (DYNAMICS) mean= -7.14481121988217E-04
DEBUG_STATS_RL:                  Gv (DYNAMICS) S.D.=  1.98705480778118E-02
DEBUG_STATS_RL:               GuNm1 (DYNAMICS)  min= -1.83208059103668E-05
DEBUG_STATS_RL:               GuNm1 (DYNAMICS)  max=  2.02324729426635E-05
DEBUG_STATS_RL:               GuNm1 (DYNAMICS) mean= -1.63541525238548E-08
DEBUG_STATS_RL:               GuNm1 (DYNAMICS) S.D.=  1.04973770175880E-06
DEBUG_STATS_RL:               GvNm1 (DYNAMICS)  min= -2.07854392121958E-05
DEBUG_STATS_RL:               GvNm1 (DYNAMICS)  max=  2.83077693143670E-05
DEBUG_STATS_RL:               GvNm1 (DYNAMICS) mean=  1.02917211060475E-09
DEBUG_STATS_RL:               GvNm1 (DYNAMICS) S.D.=  1.28482236828444E-06
DEBUG_STATS_RL:               GtNm1 (DYNAMICS)  min= -3.29836702522336E-06
DEBUG_STATS_RL:               GtNm1 (DYNAMICS)  max=  4.62836399435959E-06
DEBUG_STATS_RL:               GtNm1 (DYNAMICS) mean=  1.29743112860749E-09
DEBUG_STATS_RL:               GtNm1 (DYNAMICS) S.D.=  6.26837141633740E-08
DEBUG_STATS_RL:               GsNm1 (DYNAMICS)  min= -1.48718634905714E-05
DEBUG_STATS_RL:               GsNm1 (DYNAMICS)  max=  2.35775426026853E-06
DEBUG_STATS_RL:               GsNm1 (DYNAMICS) mean= -4.32571105712915E-09
DEBUG_STATS_RL:               GsNm1 (DYNAMICS) S.D.=  1.70470136886944E-07
(PID.TID 0000.0001) DEBUG_MSG: LEAVING S/R DYNAMICS
DEBUG_STATS_RL:    cg2d_b (SOLVE_FOR_PRESSURE)  min= -2.07103898826289E+05
DEBUG_STATS_RL:    cg2d_b (SOLVE_FOR_PRESSURE)  max=  1.42665067735326E+05
DEBUG_STATS_RL:    cg2d_b (SOLVE_FOR_PRESSURE) mean= -4.40975577288413E+03
DEBUG_STATS_RL:    cg2d_b (SOLVE_FOR_PRESSURE) S.D.=  7.90134778960775E+03
 cg2d: Sum(rhs),rhsMax =  -9.41127647842897E+01  3.96739912460598E+01
(PID.TID 0000.0001)  cg2d: iter=     1 ; resid.=  2.80535295133223E-02
(PID.TID 0000.0001)  cg2d: iter=     2 ; resid.=  3.82647469033745E-03
(PID.TID 0000.0001)  cg2d: iter=     3 ; resid.=  9.89179272443482E-04
(PID.TID 0000.0001)  cg2d: iter=     4 ; resid.=  3.26713987007037E-04
(PID.TID 0000.0001)  cg2d: iter=     5 ; resid.=  8.37263606389840E-05
(PID.TID 0000.0001)  cg2d: iter=     6 ; resid.=  1.75702754858333E-05
(PID.TID 0000.0001)  cg2d: iter=     7 ; resid.=  3.55286912753283E-06
(PID.TID 0000.0001)  cg2d: iter=     8 ; resid.=  8.80846091375234E-07
(PID.TID 0000.0001)  cg2d: iter=     9 ; resid.=  2.73140724729119E-07
(PID.TID 0000.0001)  cg2d: iter=    10 ; resid.=  8.27004009664548E-08
DEBUG_STATS_RL:    cg2d_x (SOLVE_FOR_PRESSURE)  min= -1.50950015653430E+01
DEBUG_STATS_RL:    cg2d_x (SOLVE_FOR_PRESSURE)  max=  1.69515741856693E+01
DEBUG_STATS_RL:    cg2d_x (SOLVE_FOR_PRESSURE) mean=  4.33608169697696E-01
DEBUG_STATS_RL:    cg2d_x (SOLVE_FOR_PRESSURE) S.D.=  7.86443860964328E-01
(PID.TID 0000.0001)      cg2d_init_res =   1.78867279429140E-01
(PID.TID 0000.0001)      cg2d_iters(min,last) =      -1      10
(PID.TID 0000.0001)      cg2d_last_res =   8.27004009664548E-08
(PID.TID 0000.0001) DEBUG_MSG: CALLING S/R UPDATE_ETAH
(PID.TID 0000.0001) DEBUG_MSG: ENTERED S/R CALC_R_STAR
(PID.TID 0000.0001) DEBUG_MSG: LEAVING S/R CALC_R_STAR
(PID.TID 0000.0001) DEBUG_MSG: CALLING S/R DO_STAGGER_FIELDS_EXCH.
(PID.TID 0000.0001) DEBUG_MSG: CALLING S/R THERMODYNAMICS
(PID.TID 0000.0001) DEBUG_MSG: ENTERED S/R THERMODYNAMICS
(PID.TID 0000.0001) DEBUG_MSG: CALLING S/R TEMP_INTEGRATE
(PID.TID 0000.0001) DEBUG_MSG: CALLING S/R SALT_INTEGRATE
DEBUG_STATS_RL:          Uvel (THERMODYNAMICS)  min= -5.36540689610945E-01
DEBUG_STATS_RL:          Uvel (THERMODYNAMICS)  max=  3.31112052403520E-01
DEBUG_STATS_RL:          Uvel (THERMODYNAMICS) mean= -5.41187152320143E-04
DEBUG_STATS_RL:          Uvel (THERMODYNAMICS) S.D.=  2.02604610053316E-02
DEBUG_STATS_RL:          Vvel (THERMODYNAMICS)  min= -3.75894165411209E-01
DEBUG_STATS_RL:          Vvel (THERMODYNAMICS)  max=  2.63639138516925E-01
DEBUG_STATS_RL:          Vvel (THERMODYNAMICS) mean= -7.20672851797553E-04
DEBUG_STATS_RL:          Vvel (THERMODYNAMICS) S.D.=  1.99605113883521E-02
DEBUG_STATS_RL:          Wvel (THERMODYNAMICS)  min= -1.50222500645831E-04
DEBUG_STATS_RL:          Wvel (THERMODYNAMICS)  max=  1.50595693196654E-04
DEBUG_STATS_RL:          Wvel (THERMODYNAMICS) mean= -2.60309807633799E-07
DEBUG_STATS_RL:          Wvel (THERMODYNAMICS) S.D.=  6.72147179288248E-06
DEBUG_STATS_RL:         Theta (THERMODYNAMICS)  min=  1.60460067902005E+01
DEBUG_STATS_RL:         Theta (THERMODYNAMICS)  max=  2.37687489190805E+01
DEBUG_STATS_RL:         Theta (THERMODYNAMICS) mean=  2.00041666801488E+01
DEBUG_STATS_RL:         Theta (THERMODYNAMICS) S.D.=  9.78988815016969E-02
DEBUG_STATS_RL:          Salt (THERMODYNAMICS)  min=  2.34606116556578E+01
DEBUG_STATS_RL:          Salt (THERMODYNAMICS)  max=  3.51507519982685E+01
DEBUG_STATS_RL:          Salt (THERMODYNAMICS) mean=  3.49968136150533E+01
DEBUG_STATS_RL:          Salt (THERMODYNAMICS) S.D.=  1.32611908981544E-01
DEBUG_STATS_RL:         GtNm1 (THERMODYNAMICS)  min= -3.26075562179942E-06
DEBUG_STATS_RL:         GtNm1 (THERMODYNAMICS)  max=  4.62496994655661E-06
DEBUG_STATS_RL:         GtNm1 (THERMODYNAMICS) mean=  1.32927786251829E-09
DEBUG_STATS_RL:         GtNm1 (THERMODYNAMICS) S.D.=  6.42593721057240E-08
DEBUG_STATS_RL:         GsNm1 (THERMODYNAMICS)  min= -1.47842650697530E-05
DEBUG_STATS_RL:         GsNm1 (THERMODYNAMICS)  max=  2.37883968287013E-06
DEBUG_STATS_RL:         GsNm1 (THERMODYNAMICS) mean= -4.29955214654676E-09
DEBUG_STATS_RL:         GsNm1 (THERMODYNAMICS) S.D.=  1.69121628923907E-07
(PID.TID 0000.0001) DEBUG_MSG: LEAVING S/R THERMODYNAMICS
(PID.TID 0000.0001) // =======================================================
(PID.TID 0000.0001) // Begin MONITOR dynamic field statistics
(PID.TID 0000.0001) // =======================================================
(PID.TID 0000.0001) %MON time_tsnumber                =                    79
(PID.TID 0000.0001) %MON time_secondsf                =   7.1100000000000E+04
(PID.TID 0000.0001) %MON dynstat_eta_max              =   1.7279892131533E+00
(PID.TID 0000.0001) %MON dynstat_eta_min              =  -1.5387361358701E+00
(PID.TID 0000.0001) %MON dynstat_eta_mean             =   4.3386598055736E-02
(PID.TID 0000.0001) %MON dynstat_eta_sd               =   7.6254888184900E-02
(PID.TID 0000.0001) %MON dynstat_eta_del2             =   1.4304057535665E-03
(PID.TID 0000.0001) %MON dynstat_uvel_max             =   3.3111205240352E-01
(PID.TID 0000.0001) %MON dynstat_uvel_min             =  -5.3654068961095E-01
(PID.TID 0000.0001) %MON dynstat_uvel_mean            =  -6.3192942964188E-05
(PID.TID 0000.0001) %MON dynstat_uvel_sd              =   6.7576584347011E-03
(PID.TID 0000.0001) %MON dynstat_uvel_del2            =   9.0852669213874E-05
(PID.TID 0000.0001) %MON dynstat_vvel_max             =   2.6363913851693E-01
(PID.TID 0000.0001) %MON dynstat_vvel_min             =  -3.7589416541121E-01
(PID.TID 0000.0001) %MON dynstat_vvel_mean            =   6.2955747723231E-04
(PID.TID 0000.0001) %MON dynstat_vvel_sd              =   6.7040837175649E-03
(PID.TID 0000.0001) %MON dynstat_vvel_del2            =   9.5812261370303E-05
(PID.TID 0000.0001) %MON dynstat_wvel_max             =   1.5059569319665E-04
(PID.TID 0000.0001) %MON dynstat_wvel_min             =  -1.5022250064583E-04
(PID.TID 0000.0001) %MON dynstat_wvel_mean            =  -1.4523605993383E-07
(PID.TID 0000.0001) %MON dynstat_wvel_sd              =   6.4726425301684E-06
(PID.TID 0000.0001) %MON dynstat_wvel_del2            =   7.0401727858082E-08
(PID.TID 0000.0001) %MON dynstat_theta_max            =   2.3768748919081E+01
(PID.TID 0000.0001) %MON dynstat_theta_min            =   1.6046006790201E+01
(PID.TID 0000.0001) %MON dynstat_theta_mean           =   1.9997918422216E+01
(PID.TID 0000.0001) %MON dynstat_theta_sd             =   3.2235594254932E-02
(PID.TID 0000.0001) %MON dynstat_theta_del2           =   5.5621783621439E-04
(PID.TID 0000.0001) %MON dynstat_salt_max             =   3.5150751998268E+01
(PID.TID 0000.0001) %MON dynstat_salt_min             =   2.3460611655658E+01
(PID.TID 0000.0001) %MON dynstat_salt_mean            =   3.4999586840496E+01
(PID.TID 0000.0001) %MON dynstat_salt_sd              =   4.0926043294859E-02
(PID.TID 0000.0001) %MON dynstat_salt_del2            =   1.4050518902848E-03
(PID.TID 0000.0001) %MON dynstat_sst_max              =   2.3768748919081E+01
(PID.TID 0000.0001) %MON dynstat_sst_min              =   1.6046006790201E+01
(PID.TID 0000.0001) %MON dynstat_sst_mean             =   2.0156469363399E+01
(PID.TID 0000.0001) %MON dynstat_sst_sd               =   3.0168867453542E-01
(PID.TID 0000.0001) %MON dynstat_sst_del2             =   6.5599078274327E-03
(PID.TID 0000.0001) %MON dynstat_sss_max              =   3.5150751998268E+01
(PID.TID 0000.0001) %MON dynstat_sss_min              =   2.3460611655658E+01
(PID.TID 0000.0001) %MON dynstat_sss_mean             =   3.4962141500103E+01
(PID.TID 0000.0001) %MON dynstat_sss_sd               =   4.9345714707918E-01
(PID.TID 0000.0001) %MON dynstat_sss_del2             =   1.9015332750365E-02
(PID.TID 0000.0001) %MON forcing_qnet_max             =   2.3974248878787E+03
(PID.TID 0000.0001) %MON forcing_qnet_min             =  -2.7197087402344E+03
(PID.TID 0000.0001) %MON forcing_qnet_mean            =  -1.9920874322946E+01
(PID.TID 0000.0001) %MON forcing_qnet_sd              =   4.4913726652873E+02
(PID.TID 0000.0001) %MON forcing_qnet_del2            =   5.3133136491844E+00
(PID.TID 0000.0001) %MON forcing_qsw_max              =   0.0000000000000E+00
(PID.TID 0000.0001) %MON forcing_qsw_min              =  -1.0729530064391E+02
(PID.TID 0000.0001) %MON forcing_qsw_mean             =  -1.8705893550524E+01
(PID.TID 0000.0001) %MON forcing_qsw_sd               =   2.7954103409170E+01
(PID.TID 0000.0001) %MON forcing_qsw_del2             =   2.4011952250167E-01
(PID.TID 0000.0001) %MON forcing_empmr_max            =   4.9461652524769E-03
(PID.TID 0000.0001) %MON forcing_empmr_min            =  -7.1086570620537E-02
(PID.TID 0000.0001) %MON forcing_empmr_mean           =  -3.5930379252688E-04
(PID.TID 0000.0001) %MON forcing_empmr_sd             =   3.1679822723397E-03
(PID.TID 0000.0001) %MON forcing_empmr_del2           =   1.2354944895947E-04
(PID.TID 0000.0001) %MON forcing_fu_max               =   5.5039320592959E-01
(PID.TID 0000.0001) %MON forcing_fu_min               =  -6.1622645193647E-01
(PID.TID 0000.0001) %MON forcing_fu_mean              =  -8.5485785503375E-04
(PID.TID 0000.0001) %MON forcing_fu_sd                =   8.2791843112339E-02
(PID.TID 0000.0001) %MON forcing_fu_del2              =   7.0067723424003E-04
(PID.TID 0000.0001) %MON forcing_fv_max               =   3.7213925943295E-01
(PID.TID 0000.0001) %MON forcing_fv_min               =  -3.4545450775921E-01
(PID.TID 0000.0001) %MON forcing_fv_mean              =  -6.9319067219727E-03
(PID.TID 0000.0001) %MON forcing_fv_sd                =   7.1031200424079E-02
(PID.TID 0000.0001) %MON forcing_fv_del2              =   5.8156012629871E-04
(PID.TID 0000.0001) %MON trAdv_CFL_u_max              =   1.5488275496021E-03
(PID.TID 0000.0001) %MON trAdv_CFL_v_max              =   1.5036450493848E-03
(PID.TID 0000.0001) %MON trAdv_CFL_w_max              =   2.1714481551773E-03
(PID.TID 0000.0001) %MON advcfl_uvel_max              =   1.5478340643976E-03
(PID.TID 0000.0001) %MON advcfl_vvel_max              =   1.4446728539207E-03
(PID.TID 0000.0001) %MON advcfl_wvel_max              =   4.9451527388200E-03
(PID.TID 0000.0001) %MON advcfl_W_hf_max              =   2.4589105850607E-03
(PID.TID 0000.0001) %MON pe_b_mean                    =   1.0253979331288E-05
(PID.TID 0000.0001) %MON ke_max                       =   1.1765635357317E-01
(PID.TID 0000.0001) %MON ke_mean                      =   4.2018991959227E-05
(PID.TID 0000.0001) %MON ke_vol                       =   1.3398181194783E+18
(PID.TID 0000.0001) %MON vort_r_min                   =  -2.5431935437079E-06
(PID.TID 0000.0001) %MON vort_r_max                   =   2.5224239874368E-06
(PID.TID 0000.0001) %MON vort_a_mean                  =  -2.0549865324846E-05
(PID.TID 0000.0001) %MON vort_a_sd                    =   7.5259429874914E-05
(PID.TID 0000.0001) %MON vort_p_mean                  =  -2.4783230036012E-05
(PID.TID 0000.0001) %MON vort_p_sd                    =   1.2810508592692E-04
(PID.TID 0000.0001) %MON surfExpan_theta_mean         =  -5.2599130602318E-07
(PID.TID 0000.0001) %MON surfExpan_salt_mean          =   1.5023439950970E-06
(PID.TID 0000.0001) // =======================================================
(PID.TID 0000.0001) // End MONITOR dynamic field statistics
(PID.TID 0000.0001) // =======================================================
 Computing Diagnostic #     81  oceTAUX      Counter:       1   Parms: UU      U1      
           Vector  Mate for  oceTAUX      Diagnostic #     82  oceTAUY  exists 
(PID.TID 0000.0001)  MDS_WRITE_FIELD: it,rec,kS,kL,kH=      78    -1  32   1   1 file=oceTAUX.0000000078
 Computing Diagnostic #     82  oceTAUY      Counter:       1   Parms: VV      U1      
           Vector  Mate for  oceTAUY      Diagnostic #     81  oceTAUX  exists 
(PID.TID 0000.0001)  MDS_WRITE_FIELD: it,rec,kS,kL,kH=      78    -1  32   1   1 file=oceTAUY.0000000078
 Computing Diagnostic #     85  oceFWflx     Counter:       1   Parms: SM      U1      
(PID.TID 0000.0001)  MDS_WRITE_FIELD: it,rec,kS,kL,kH=      78    -1  32   1   1 file=oceFWflx.0000000078
 Computing Diagnostic #     86  oceSflux     Counter:       1   Parms: SM      U1      
(PID.TID 0000.0001)  MDS_WRITE_FIELD: it,rec,kS,kL,kH=      78    -1  32   1   1 file=oceSflux.0000000078
 Computing Diagnostic #     87  oceQnet      Counter:       1   Parms: SM      U1      
(PID.TID 0000.0001)  MDS_WRITE_FIELD: it,rec,kS,kL,kH=      78    -1  32   1   1 file=oceQnet.0000000078
 Computing Diagnostic #     88  oceQsw       Counter:       1   Parms: SM      U1      
(PID.TID 0000.0001)  MDS_WRITE_FIELD: it,rec,kS,kL,kH=      78    -1  32   1   1 file=oceQsw.0000000078
 Computing Diagnostic #     27  SALT         Counter:       1   Parms: SMR     MR      
(PID.TID 0000.0001)  MDS_WRITE_FIELD: it,rec,kS,kL,kH=      78    -1  32   1   1 file=SSS.0000000078
 Computing Diagnostic #     26  THETA        Counter:       1   Parms: SMR     MR      
(PID.TID 0000.0001)  MDS_WRITE_FIELD: it,rec,kS,kL,kH=      78    -1  32   1   1 file=SST.0000000078
 Computing Diagnostic #     45  UVELMASS     Counter:       1   Parms: UUr     MR      
           Vector  Mate for  UVELMASS     Diagnostic #     46  VVELMASS exists 
(PID.TID 0000.0001)  MDS_WRITE_FIELD: it,rec,kS,kL,kH=      78    -1  32   1   1 file=UVEL1.0000000078
 Computing Diagnostic #     46  VVELMASS     Counter:       1   Parms: VVr     MR      
           Vector  Mate for  VVELMASS     Diagnostic #     45  UVELMASS exists 
(PID.TID 0000.0001)  MDS_WRITE_FIELD: it,rec,kS,kL,kH=      78    -1  32   1   1 file=VVEL1.0000000078
 Computing Diagnostic #     83  atmPload     Counter:       1   Parms: SM      U1      
(PID.TID 0000.0001)  MDS_WRITE_FIELD: it,rec,kS,kL,kH=      78    -1  32   1   1 file=atmPload.0000000078
(PID.TID 0000.0001)  write diagnostics summary to file: diagnostics_status.0000000079.txt
(PID.TID 0000.0001) DEBUG_MSG: LEAVING S/R FORWARD_STEP
(PID.TID 0000.0001) DEBUG_MSG: ENTERED S/R FORWARD_STEP
(PID.TID 0000.0001) DEBUG_MSG: CALLING S/R LOAD_FIELDS_DRIVER
(PID.TID 0000.0001) DEBUG_MSG: ENTERED S/R LOAD_FIELDS_DRIVER
(PID.TID 0000.0001) DEBUG_MSG: CALLING S/R EXTERNAL_FIELDS_LOAD
(PID.TID 0000.0001) DEBUG_MSG: LEAVING S/R LOAD_FIELDS_DRIVER
(PID.TID 0000.0001) DEBUG_MSG: CALLING S/R DO_ATMOSPHERIC_PHYS
(PID.TID 0000.0001) DEBUG_MSG: ENTERED S/R DO_ATMOSPHERIC_PHYS
(PID.TID 0000.0001) DEBUG_MSG: LEAVING S/R DO_ATMOSPHERIC_PHYS
(PID.TID 0000.0001) DEBUG_MSG: CALLING S/R DO_OCEANIC_PHYS
(PID.TID 0000.0001) DEBUG_MSG: ENTERED S/R DO_OCEANIC_PHYS
(PID.TID 0000.0001) DEBUG_MSG: CALLING S/R EXTERNAL_FORCING_SURF
(PID.TID 0000.0001) DEBUG_MSG: CALLING S/R FIND_RHO_2D (xNr)
(PID.TID 0000.0001) DEBUG_MSG:                  ENTERING UPWARD K LOOP (bi=   1, bj=   1)
(PID.TID 0000.0001) DEBUG_MSG: CALLING S/R GRAD_SIGMA
(PID.TID 0000.0001) DEBUG_MSG: CALLING S/R CALC_IVDC
(PID.TID 0000.0001) DEBUG_MSG: CALLING S/R GRAD_SIGMA
(PID.TID 0000.0001) DEBUG_MSG: CALLING S/R CALC_IVDC
(PID.TID 0000.0001) DEBUG_MSG: CALLING S/R GRAD_SIGMA
(PID.TID 0000.0001) DEBUG_MSG: CALLING S/R CALC_IVDC
(PID.TID 0000.0001) DEBUG_MSG: CALLING S/R GRAD_SIGMA
(PID.TID 0000.0001) DEBUG_MSG: CALLING S/R CALC_IVDC
(PID.TID 0000.0001) DEBUG_MSG: CALLING S/R GRAD_SIGMA
(PID.TID 0000.0001) DEBUG_MSG: CALLING S/R CALC_IVDC
(PID.TID 0000.0001) DEBUG_MSG: CALLING S/R GRAD_SIGMA
(PID.TID 0000.0001) DEBUG_MSG: CALLING S/R CALC_IVDC
(PID.TID 0000.0001) DEBUG_MSG: CALLING S/R GRAD_SIGMA
(PID.TID 0000.0001) DEBUG_MSG: CALLING S/R CALC_IVDC
(PID.TID 0000.0001) DEBUG_MSG: CALLING S/R GRAD_SIGMA
(PID.TID 0000.0001) DEBUG_MSG: CALLING S/R CALC_IVDC
(PID.TID 0000.0001) DEBUG_MSG: CALLING S/R GRAD_SIGMA
(PID.TID 0000.0001) DEBUG_MSG: CALLING S/R CALC_IVDC
(PID.TID 0000.0001) DEBUG_MSG: CALLING S/R GRAD_SIGMA
(PID.TID 0000.0001) DEBUG_MSG: CALLING S/R CALC_IVDC
(PID.TID 0000.0001) DEBUG_MSG: CALLING S/R GRAD_SIGMA
(PID.TID 0000.0001) DEBUG_MSG: CALLING S/R CALC_IVDC
(PID.TID 0000.0001) DEBUG_MSG: CALLING S/R GRAD_SIGMA
(PID.TID 0000.0001) DEBUG_MSG: CALLING S/R CALC_IVDC
(PID.TID 0000.0001) DEBUG_MSG: CALLING S/R GRAD_SIGMA
(PID.TID 0000.0001) DEBUG_MSG: CALLING S/R CALC_IVDC
(PID.TID 0000.0001) DEBUG_MSG: CALLING S/R GRAD_SIGMA
(PID.TID 0000.0001) DEBUG_MSG: CALLING S/R CALC_IVDC
(PID.TID 0000.0001) DEBUG_MSG: CALLING S/R GRAD_SIGMA
(PID.TID 0000.0001) DEBUG_MSG: CALLING S/R CALC_IVDC
(PID.TID 0000.0001) DEBUG_MSG: CALLING S/R GRAD_SIGMA
(PID.TID 0000.0001) DEBUG_MSG: CALLING S/R GMREDI_CALC_TENSOR
(PID.TID 0000.0001) DEBUG_MSG: LEAVING S/R DO_OCEANIC_PHYS
(PID.TID 0000.0001) DEBUG_MSG: CALLING S/R DYNAMICS
(PID.TID 0000.0001) DEBUG_MSG: ENTERED S/R DYNAMICS
DEBUG_STATS_RL:                EtaN (DYNAMICS)  min= -1.53873613587007E+00
DEBUG_STATS_RL:                EtaN (DYNAMICS)  max=  1.72798921315334E+00
DEBUG_STATS_RL:                EtaN (DYNAMICS) mean=  4.42006293555915E-02
DEBUG_STATS_RL:                EtaN (DYNAMICS) S.D.=  8.01675699909849E-02
DEBUG_STATS_RL:                Uvel (DYNAMICS)  min= -5.36540689610945E-01
DEBUG_STATS_RL:                Uvel (DYNAMICS)  max=  3.31112052403520E-01
DEBUG_STATS_RL:                Uvel (DYNAMICS) mean= -5.41187152320143E-04
DEBUG_STATS_RL:                Uvel (DYNAMICS) S.D.=  2.02604610053316E-02
DEBUG_STATS_RL:                Vvel (DYNAMICS)  min= -3.75894165411209E-01
DEBUG_STATS_RL:                Vvel (DYNAMICS)  max=  2.63639138516925E-01
DEBUG_STATS_RL:                Vvel (DYNAMICS) mean= -7.20672851797553E-04
DEBUG_STATS_RL:                Vvel (DYNAMICS) S.D.=  1.99605113883521E-02
DEBUG_STATS_RL:                Wvel (DYNAMICS)  min= -1.50222500645831E-04
DEBUG_STATS_RL:                Wvel (DYNAMICS)  max=  1.50595693196654E-04
DEBUG_STATS_RL:                Wvel (DYNAMICS) mean= -2.60309807633799E-07
DEBUG_STATS_RL:                Wvel (DYNAMICS) S.D.=  6.72147179288248E-06
DEBUG_STATS_RL:               Theta (DYNAMICS)  min=  1.60460067902005E+01
DEBUG_STATS_RL:               Theta (DYNAMICS)  max=  2.37687489190805E+01
DEBUG_STATS_RL:               Theta (DYNAMICS) mean=  2.00041666801488E+01
DEBUG_STATS_RL:               Theta (DYNAMICS) S.D.=  9.78988815016969E-02
DEBUG_STATS_RL:                Salt (DYNAMICS)  min=  2.34606116556578E+01
DEBUG_STATS_RL:                Salt (DYNAMICS)  max=  3.51507519982685E+01
DEBUG_STATS_RL:                Salt (DYNAMICS) mean=  3.49968136150533E+01
DEBUG_STATS_RL:                Salt (DYNAMICS) S.D.=  1.32611908981544E-01
DEBUG_STATS_RL:                  Gu (DYNAMICS)  min= -5.32550035019010E-01
DEBUG_STATS_RL:                  Gu (DYNAMICS)  max=  3.31233292318442E-01
DEBUG_STATS_RL:                  Gu (DYNAMICS) mean= -5.56747684252945E-04
DEBUG_STATS_RL:                  Gu (DYNAMICS) S.D.=  2.03363752853009E-02
DEBUG_STATS_RL:                  Gv (DYNAMICS)  min= -3.68085035421897E-01
DEBUG_STATS_RL:                  Gv (DYNAMICS)  max=  2.54666506141418E-01
DEBUG_STATS_RL:                  Gv (DYNAMICS) mean= -7.15569135208773E-04
DEBUG_STATS_RL:                  Gv (DYNAMICS) S.D.=  2.01694709915663E-02
DEBUG_STATS_RL:               GuNm1 (DYNAMICS)  min= -2.03245065611138E-05
DEBUG_STATS_RL:               GuNm1 (DYNAMICS)  max=  1.97779320345599E-05
DEBUG_STATS_RL:               GuNm1 (DYNAMICS) mean= -1.72054357174361E-08
DEBUG_STATS_RL:               GuNm1 (DYNAMICS) S.D.=  1.04845732053451E-06
DEBUG_STATS_RL:               GvNm1 (DYNAMICS)  min= -2.14356587347464E-05
DEBUG_STATS_RL:               GvNm1 (DYNAMICS)  max=  2.79192963639469E-05
DEBUG_STATS_RL:               GvNm1 (DYNAMICS) mean=  3.03455755107275E-09
DEBUG_STATS_RL:               GvNm1 (DYNAMICS) S.D.=  1.27870874913189E-06
DEBUG_STATS_RL:               GtNm1 (DYNAMICS)  min= -3.26075562179942E-06
DEBUG_STATS_RL:               GtNm1 (DYNAMICS)  max=  4.62496994655661E-06
DEBUG_STATS_RL:               GtNm1 (DYNAMICS) mean=  1.32927786251829E-09
DEBUG_STATS_RL:               GtNm1 (DYNAMICS) S.D.=  6.42593721057240E-08
DEBUG_STATS_RL:               GsNm1 (DYNAMICS)  min= -1.47842650697530E-05
DEBUG_STATS_RL:               GsNm1 (DYNAMICS)  max=  2.37883968287013E-06
DEBUG_STATS_RL:               GsNm1 (DYNAMICS) mean= -4.29955214654676E-09
DEBUG_STATS_RL:               GsNm1 (DYNAMICS) S.D.=  1.69121628923907E-07
(PID.TID 0000.0001) DEBUG_MSG: LEAVING S/R DYNAMICS
DEBUG_STATS_RL:    cg2d_b (SOLVE_FOR_PRESSURE)  min= -2.04747610012139E+05
DEBUG_STATS_RL:    cg2d_b (SOLVE_FOR_PRESSURE)  max=  1.27283506694839E+05
DEBUG_STATS_RL:    cg2d_b (SOLVE_FOR_PRESSURE) mean= -4.44134808342742E+03
DEBUG_STATS_RL:    cg2d_b (SOLVE_FOR_PRESSURE) S.D.=  7.83296339463771E+03
 cg2d: Sum(rhs),rhsMax =  -9.58778396855784E+01  3.92226072677013E+01
(PID.TID 0000.0001)  cg2d: iter=     1 ; resid.=  2.79421659635677E-02
(PID.TID 0000.0001)  cg2d: iter=     2 ; resid.=  3.80272911270460E-03
(PID.TID 0000.0001)  cg2d: iter=     3 ; resid.=  1.01230051858264E-03
(PID.TID 0000.0001)  cg2d: iter=     4 ; resid.=  3.34569027496417E-04
(PID.TID 0000.0001)  cg2d: iter=     5 ; resid.=  8.42666616003276E-05
(PID.TID 0000.0001)  cg2d: iter=     6 ; resid.=  1.73778880116046E-05
(PID.TID 0000.0001)  cg2d: iter=     7 ; resid.=  3.53489562530917E-06
(PID.TID 0000.0001)  cg2d: iter=     8 ; resid.=  9.37953941334727E-07
(PID.TID 0000.0001)  cg2d: iter=     9 ; resid.=  3.01223103034023E-07
(PID.TID 0000.0001)  cg2d: iter=    10 ; resid.=  8.63023958432770E-08
DEBUG_STATS_RL:    cg2d_x (SOLVE_FOR_PRESSURE)  min= -1.34696924832775E+01
DEBUG_STATS_RL:    cg2d_x (SOLVE_FOR_PRESSURE)  max=  1.67592860116075E+01
DEBUG_STATS_RL:    cg2d_x (SOLVE_FOR_PRESSURE) mean=  4.35789081721595E-01
DEBUG_STATS_RL:    cg2d_x (SOLVE_FOR_PRESSURE) S.D.=  7.76416754363089E-01
(PID.TID 0000.0001)      cg2d_init_res =   1.82760254948382E-01
(PID.TID 0000.0001)      cg2d_iters(min,last) =      -1      10
(PID.TID 0000.0001)      cg2d_last_res =   8.63023958432770E-08
(PID.TID 0000.0001) DEBUG_MSG: CALLING S/R UPDATE_ETAH
(PID.TID 0000.0001) DEBUG_MSG: ENTERED S/R CALC_R_STAR
(PID.TID 0000.0001) DEBUG_MSG: LEAVING S/R CALC_R_STAR
(PID.TID 0000.0001) DEBUG_MSG: CALLING S/R DO_STAGGER_FIELDS_EXCH.
(PID.TID 0000.0001) DEBUG_MSG: CALLING S/R THERMODYNAMICS
(PID.TID 0000.0001) DEBUG_MSG: ENTERED S/R THERMODYNAMICS
(PID.TID 0000.0001) DEBUG_MSG: CALLING S/R TEMP_INTEGRATE
(PID.TID 0000.0001) DEBUG_MSG: CALLING S/R SALT_INTEGRATE
DEBUG_STATS_RL:          Uvel (THERMODYNAMICS)  min= -5.48640112443231E-01
DEBUG_STATS_RL:          Uvel (THERMODYNAMICS)  max=  3.44311370309707E-01
DEBUG_STATS_RL:          Uvel (THERMODYNAMICS) mean= -5.67899744847245E-04
DEBUG_STATS_RL:          Uvel (THERMODYNAMICS) S.D.=  2.03635298354091E-02
DEBUG_STATS_RL:          Vvel (THERMODYNAMICS)  min= -4.06250590080314E-01
DEBUG_STATS_RL:          Vvel (THERMODYNAMICS)  max=  2.79381154057674E-01
DEBUG_STATS_RL:          Vvel (THERMODYNAMICS) mean= -7.21259262904330E-04
DEBUG_STATS_RL:          Vvel (THERMODYNAMICS) S.D.=  2.02627307739864E-02
DEBUG_STATS_RL:          Wvel (THERMODYNAMICS)  min= -1.44505824785491E-04
DEBUG_STATS_RL:          Wvel (THERMODYNAMICS)  max=  1.50131694392268E-04
DEBUG_STATS_RL:          Wvel (THERMODYNAMICS) mean= -2.58551097918231E-07
DEBUG_STATS_RL:          Wvel (THERMODYNAMICS) S.D.=  6.68158959406994E-06
DEBUG_STATS_RL:         Theta (THERMODYNAMICS)  min=  1.60457842174026E+01
DEBUG_STATS_RL:         Theta (THERMODYNAMICS)  max=  2.37960152773907E+01
DEBUG_STATS_RL:         Theta (THERMODYNAMICS) mean=  2.00042642214017E+01
DEBUG_STATS_RL:         Theta (THERMODYNAMICS) S.D.=  9.84299211685961E-02
DEBUG_STATS_RL:          Salt (THERMODYNAMICS)  min=  2.34133138596809E+01
DEBUG_STATS_RL:          Salt (THERMODYNAMICS)  max=  3.51507458914576E+01
DEBUG_STATS_RL:          Salt (THERMODYNAMICS) mean=  3.49967939665168E+01
DEBUG_STATS_RL:          Salt (THERMODYNAMICS) S.D.=  1.33198454823205E-01
DEBUG_STATS_RL:         GtNm1 (THERMODYNAMICS)  min= -3.22532334387394E-06
DEBUG_STATS_RL:         GtNm1 (THERMODYNAMICS)  max=  4.97199263888237E-06
DEBUG_STATS_RL:         GtNm1 (THERMODYNAMICS) mean=  1.35316930558160E-09
DEBUG_STATS_RL:         GtNm1 (THERMODYNAMICS) S.D.=  6.58713120440741E-08
DEBUG_STATS_RL:         GsNm1 (THERMODYNAMICS)  min= -1.46959802000934E-05
DEBUG_STATS_RL:         GsNm1 (THERMODYNAMICS)  max=  2.39930978731368E-06
DEBUG_STATS_RL:         GsNm1 (THERMODYNAMICS) mean= -4.27341907779549E-09
DEBUG_STATS_RL:         GsNm1 (THERMODYNAMICS) S.D.=  1.67762926431516E-07
(PID.TID 0000.0001) DEBUG_MSG: LEAVING S/R THERMODYNAMICS
(PID.TID 0000.0001) // =======================================================
(PID.TID 0000.0001) // Begin MONITOR dynamic field statistics
(PID.TID 0000.0001) // =======================================================
(PID.TID 0000.0001) %MON time_tsnumber                =                    80
(PID.TID 0000.0001) %MON time_secondsf                =   7.2000000000000E+04
(PID.TID 0000.0001) %MON dynstat_eta_max              =   1.7083879718083E+00
(PID.TID 0000.0001) %MON dynstat_eta_min              =  -1.3730573297331E+00
(PID.TID 0000.0001) %MON dynstat_eta_mean             =   4.3697427713837E-02
(PID.TID 0000.0001) %MON dynstat_eta_sd               =   7.5373105560192E-02
(PID.TID 0000.0001) %MON dynstat_eta_del2             =   1.3762614711064E-03
(PID.TID 0000.0001) %MON dynstat_uvel_max             =   3.4431137030971E-01
(PID.TID 0000.0001) %MON dynstat_uvel_min             =  -5.4864011244323E-01
(PID.TID 0000.0001) %MON dynstat_uvel_mean            =  -7.4160519044775E-05
(PID.TID 0000.0001) %MON dynstat_uvel_sd              =   6.7715800517506E-03
(PID.TID 0000.0001) %MON dynstat_uvel_del2            =   9.0649076394741E-05
(PID.TID 0000.0001) %MON dynstat_vvel_max             =   2.7938115405767E-01
(PID.TID 0000.0001) %MON dynstat_vvel_min             =  -4.0625059008031E-01
(PID.TID 0000.0001) %MON dynstat_vvel_mean            =   6.0177022322942E-04
(PID.TID 0000.0001) %MON dynstat_vvel_sd              =   6.7894265963002E-03
(PID.TID 0000.0001) %MON dynstat_vvel_del2            =   9.6835427209256E-05
(PID.TID 0000.0001) %MON dynstat_wvel_max             =   1.5013169439227E-04
(PID.TID 0000.0001) %MON dynstat_wvel_min             =  -1.4450582478549E-04
(PID.TID 0000.0001) %MON dynstat_wvel_mean            =  -1.3674004163648E-07
(PID.TID 0000.0001) %MON dynstat_wvel_sd              =   6.4294426380471E-06
(PID.TID 0000.0001) %MON dynstat_wvel_del2            =   7.0141073729121E-08
(PID.TID 0000.0001) %MON dynstat_theta_max            =   2.3796015277391E+01
(PID.TID 0000.0001) %MON dynstat_theta_min            =   1.6045784217403E+01
(PID.TID 0000.0001) %MON dynstat_theta_mean           =   1.9997919680150E+01
(PID.TID 0000.0001) %MON dynstat_theta_sd             =   3.2403921104499E-02
(PID.TID 0000.0001) %MON dynstat_theta_del2           =   5.5837702892337E-04
(PID.TID 0000.0001) %MON dynstat_salt_max             =   3.5150745891458E+01
(PID.TID 0000.0001) %MON dynstat_salt_min             =   2.3413313859681E+01
(PID.TID 0000.0001) %MON dynstat_salt_mean            =   3.4999584238005E+01
(PID.TID 0000.0001) %MON dynstat_salt_sd              =   4.1106274842602E-02
(PID.TID 0000.0001) %MON dynstat_salt_del2            =   1.4106234986714E-03
(PID.TID 0000.0001) %MON dynstat_sst_max              =   2.3796015277391E+01
(PID.TID 0000.0001) %MON dynstat_sst_min              =   1.6045784217403E+01
(PID.TID 0000.0001) %MON dynstat_sst_mean             =   2.0157919555598E+01
(PID.TID 0000.0001) %MON dynstat_sst_sd               =   3.0334562777238E-01
(PID.TID 0000.0001) %MON dynstat_sst_del2             =   6.5919906764220E-03
(PID.TID 0000.0001) %MON dynstat_sss_max              =   3.5150745891458E+01
(PID.TID 0000.0001) %MON dynstat_sss_min              =   2.3413313859681E+01
(PID.TID 0000.0001) %MON dynstat_sss_mean             =   3.4961907311260E+01
(PID.TID 0000.0001) %MON dynstat_sss_sd               =   4.9563126817404E-01
(PID.TID 0000.0001) %MON dynstat_sss_del2             =   1.9090456305470E-02
(PID.TID 0000.0001) %MON forcing_qnet_max             =   2.4650290506093E+03
(PID.TID 0000.0001) %MON forcing_qnet_min             =  -2.6819233398438E+03
(PID.TID 0000.0001) %MON forcing_qnet_mean            =  -1.9698551567891E+01
(PID.TID 0000.0001) %MON forcing_qnet_sd              =   4.4734215968877E+02
(PID.TID 0000.0001) %MON forcing_qnet_del2            =   5.2617814988606E+00
(PID.TID 0000.0001) %MON forcing_qsw_max              =   0.0000000000000E+00
(PID.TID 0000.0001) %MON forcing_qsw_min              =  -1.0655821214033E+02
(PID.TID 0000.0001) %MON forcing_qsw_mean             =  -1.8763582345037E+01
(PID.TID 0000.0001) %MON forcing_qsw_sd               =   2.7875848181842E+01
(PID.TID 0000.0001) %MON forcing_qsw_del2             =   2.3887259725924E-01
(PID.TID 0000.0001) %MON forcing_empmr_max            =   4.8951916396618E-03
(PID.TID 0000.0001) %MON forcing_empmr_min            =  -7.0354044437408E-02
(PID.TID 0000.0001) %MON forcing_empmr_mean           =  -3.5745410681592E-04
(PID.TID 0000.0001) %MON forcing_empmr_sd             =   3.1363900770819E-03
(PID.TID 0000.0001) %MON forcing_empmr_del2           =   1.2227597638088E-04
(PID.TID 0000.0001) %MON forcing_fu_max               =   5.4380452588976E-01
(PID.TID 0000.0001) %MON forcing_fu_min               =  -6.1410476752216E-01
(PID.TID 0000.0001) %MON forcing_fu_mean              =  -8.8204214323703E-04
(PID.TID 0000.0001) %MON forcing_fu_sd                =   8.2333121248893E-02
(PID.TID 0000.0001) %MON forcing_fu_del2              =   6.9773257734804E-04
(PID.TID 0000.0001) %MON forcing_fv_max               =   3.6868053528890E-01
(PID.TID 0000.0001) %MON forcing_fv_min               =  -3.4078780878586E-01
(PID.TID 0000.0001) %MON forcing_fv_mean              =  -6.9705228493288E-03
(PID.TID 0000.0001) %MON forcing_fv_sd                =   7.1083096331363E-02
(PID.TID 0000.0001) %MON forcing_fv_del2              =   5.7989124009228E-04
(PID.TID 0000.0001) %MON trAdv_CFL_u_max              =   1.5845437413945E-03
(PID.TID 0000.0001) %MON trAdv_CFL_v_max              =   1.5084829662589E-03
(PID.TID 0000.0001) %MON trAdv_CFL_w_max              =   2.1764514385984E-03
(PID.TID 0000.0001) %MON advcfl_uvel_max              =   1.5827389638432E-03
(PID.TID 0000.0001) %MON advcfl_vvel_max              =   1.4493297731005E-03
(PID.TID 0000.0001) %MON advcfl_wvel_max              =   4.8941943956458E-03
(PID.TID 0000.0001) %MON advcfl_W_hf_max              =   2.5202741864131E-03
(PID.TID 0000.0001) %MON pe_b_mean                    =   1.0111923099158E-05
(PID.TID 0000.0001) %MON ke_max                       =   1.1289005385931E-01
(PID.TID 0000.0001) %MON ke_mean                      =   4.2624639629946E-05
(PID.TID 0000.0001) %MON ke_vol                       =   1.3398182331704E+18
(PID.TID 0000.0001) %MON vort_r_min                   =  -2.5495512978214E-06
(PID.TID 0000.0001) %MON vort_r_max                   =   2.5285672967366E-06
(PID.TID 0000.0001) %MON vort_a_mean                  =  -2.0549865324846E-05
(PID.TID 0000.0001) %MON vort_a_sd                    =   7.5259425365347E-05
(PID.TID 0000.0001) %MON vort_p_mean                  =  -2.4783227872380E-05
(PID.TID 0000.0001) %MON vort_p_sd                    =   1.2810507420816E-04
(PID.TID 0000.0001) %MON surfExpan_theta_mean         =  -5.3248318712981E-07
(PID.TID 0000.0001) %MON surfExpan_salt_mean          =   1.4925162324200E-06
(PID.TID 0000.0001) // =======================================================
(PID.TID 0000.0001) // End MONITOR dynamic field statistics
(PID.TID 0000.0001) // =======================================================
(PID.TID 0000.0001) DEBUG_MSG: LEAVING S/R FORWARD_STEP
(PID.TID 0000.0001) DEBUG_MSG: ENTERED S/R FORWARD_STEP
(PID.TID 0000.0001) DEBUG_MSG: CALLING S/R LOAD_FIELDS_DRIVER
(PID.TID 0000.0001) DEBUG_MSG: ENTERED S/R LOAD_FIELDS_DRIVER
(PID.TID 0000.0001) DEBUG_MSG: CALLING S/R EXTERNAL_FIELDS_LOAD
(PID.TID 0000.0001) DEBUG_MSG: LEAVING S/R LOAD_FIELDS_DRIVER
(PID.TID 0000.0001) DEBUG_MSG: CALLING S/R DO_ATMOSPHERIC_PHYS
(PID.TID 0000.0001) DEBUG_MSG: ENTERED S/R DO_ATMOSPHERIC_PHYS
(PID.TID 0000.0001) DEBUG_MSG: LEAVING S/R DO_ATMOSPHERIC_PHYS
(PID.TID 0000.0001) DEBUG_MSG: CALLING S/R DO_OCEANIC_PHYS
(PID.TID 0000.0001) DEBUG_MSG: ENTERED S/R DO_OCEANIC_PHYS
(PID.TID 0000.0001) DEBUG_MSG: CALLING S/R EXTERNAL_FORCING_SURF
(PID.TID 0000.0001) DEBUG_MSG: CALLING S/R FIND_RHO_2D (xNr)
(PID.TID 0000.0001) DEBUG_MSG:                  ENTERING UPWARD K LOOP (bi=   1, bj=   1)
(PID.TID 0000.0001) DEBUG_MSG: CALLING S/R GRAD_SIGMA
(PID.TID 0000.0001) DEBUG_MSG: CALLING S/R CALC_IVDC
(PID.TID 0000.0001) DEBUG_MSG: CALLING S/R GRAD_SIGMA
(PID.TID 0000.0001) DEBUG_MSG: CALLING S/R CALC_IVDC
(PID.TID 0000.0001) DEBUG_MSG: CALLING S/R GRAD_SIGMA
(PID.TID 0000.0001) DEBUG_MSG: CALLING S/R CALC_IVDC
(PID.TID 0000.0001) DEBUG_MSG: CALLING S/R GRAD_SIGMA
(PID.TID 0000.0001) DEBUG_MSG: CALLING S/R CALC_IVDC
(PID.TID 0000.0001) DEBUG_MSG: CALLING S/R GRAD_SIGMA
(PID.TID 0000.0001) DEBUG_MSG: CALLING S/R CALC_IVDC
(PID.TID 0000.0001) DEBUG_MSG: CALLING S/R GRAD_SIGMA
(PID.TID 0000.0001) DEBUG_MSG: CALLING S/R CALC_IVDC
(PID.TID 0000.0001) DEBUG_MSG: CALLING S/R GRAD_SIGMA
(PID.TID 0000.0001) DEBUG_MSG: CALLING S/R CALC_IVDC
(PID.TID 0000.0001) DEBUG_MSG: CALLING S/R GRAD_SIGMA
(PID.TID 0000.0001) DEBUG_MSG: CALLING S/R CALC_IVDC
(PID.TID 0000.0001) DEBUG_MSG: CALLING S/R GRAD_SIGMA
(PID.TID 0000.0001) DEBUG_MSG: CALLING S/R CALC_IVDC
(PID.TID 0000.0001) DEBUG_MSG: CALLING S/R GRAD_SIGMA
(PID.TID 0000.0001) DEBUG_MSG: CALLING S/R CALC_IVDC
(PID.TID 0000.0001) DEBUG_MSG: CALLING S/R GRAD_SIGMA
(PID.TID 0000.0001) DEBUG_MSG: CALLING S/R CALC_IVDC
(PID.TID 0000.0001) DEBUG_MSG: CALLING S/R GRAD_SIGMA
(PID.TID 0000.0001) DEBUG_MSG: CALLING S/R CALC_IVDC
(PID.TID 0000.0001) DEBUG_MSG: CALLING S/R GRAD_SIGMA
(PID.TID 0000.0001) DEBUG_MSG: CALLING S/R CALC_IVDC
(PID.TID 0000.0001) DEBUG_MSG: CALLING S/R GRAD_SIGMA
(PID.TID 0000.0001) DEBUG_MSG: CALLING S/R CALC_IVDC
(PID.TID 0000.0001) DEBUG_MSG: CALLING S/R GRAD_SIGMA
(PID.TID 0000.0001) DEBUG_MSG: CALLING S/R CALC_IVDC
(PID.TID 0000.0001) DEBUG_MSG: CALLING S/R GRAD_SIGMA
(PID.TID 0000.0001) DEBUG_MSG: CALLING S/R GMREDI_CALC_TENSOR
(PID.TID 0000.0001) DEBUG_MSG: LEAVING S/R DO_OCEANIC_PHYS
(PID.TID 0000.0001) DEBUG_MSG: CALLING S/R DYNAMICS
(PID.TID 0000.0001) DEBUG_MSG: ENTERED S/R DYNAMICS
DEBUG_STATS_RL:                EtaN (DYNAMICS)  min= -1.37305732973314E+00
DEBUG_STATS_RL:                EtaN (DYNAMICS)  max=  1.70838797180829E+00
DEBUG_STATS_RL:                EtaN (DYNAMICS) mean=  4.44229445097645E-02
DEBUG_STATS_RL:                EtaN (DYNAMICS) S.D.=  7.91454388285231E-02
DEBUG_STATS_RL:                Uvel (DYNAMICS)  min= -5.48640112443231E-01
DEBUG_STATS_RL:                Uvel (DYNAMICS)  max=  3.44311370309707E-01
DEBUG_STATS_RL:                Uvel (DYNAMICS) mean= -5.67899744847245E-04
DEBUG_STATS_RL:                Uvel (DYNAMICS) S.D.=  2.03635298354091E-02
DEBUG_STATS_RL:                Vvel (DYNAMICS)  min= -4.06250590080314E-01
DEBUG_STATS_RL:                Vvel (DYNAMICS)  max=  2.79381154057674E-01
DEBUG_STATS_RL:                Vvel (DYNAMICS) mean= -7.21259262904330E-04
DEBUG_STATS_RL:                Vvel (DYNAMICS) S.D.=  2.02627307739864E-02
DEBUG_STATS_RL:                Wvel (DYNAMICS)  min= -1.44505824785491E-04
DEBUG_STATS_RL:                Wvel (DYNAMICS)  max=  1.50131694392268E-04
DEBUG_STATS_RL:                Wvel (DYNAMICS) mean= -2.58551097918231E-07
DEBUG_STATS_RL:                Wvel (DYNAMICS) S.D.=  6.68158959406994E-06
DEBUG_STATS_RL:               Theta (DYNAMICS)  min=  1.60457842174026E+01
DEBUG_STATS_RL:               Theta (DYNAMICS)  max=  2.37960152773907E+01
DEBUG_STATS_RL:               Theta (DYNAMICS) mean=  2.00042642214017E+01
DEBUG_STATS_RL:               Theta (DYNAMICS) S.D.=  9.84299211685961E-02
DEBUG_STATS_RL:                Salt (DYNAMICS)  min=  2.34133138596809E+01
DEBUG_STATS_RL:                Salt (DYNAMICS)  max=  3.51507458914576E+01
DEBUG_STATS_RL:                Salt (DYNAMICS) mean=  3.49967939665168E+01
DEBUG_STATS_RL:                Salt (DYNAMICS) S.D.=  1.33198454823205E-01
DEBUG_STATS_RL:                  Gu (DYNAMICS)  min= -5.44518469398775E-01
DEBUG_STATS_RL:                  Gu (DYNAMICS)  max=  3.44459211889093E-01
DEBUG_STATS_RL:                  Gu (DYNAMICS) mean= -5.84015843198796E-04
DEBUG_STATS_RL:                  Gu (DYNAMICS) S.D.=  2.04163547171432E-02
DEBUG_STATS_RL:                  Gv (DYNAMICS)  min= -3.96210616430367E-01
DEBUG_STATS_RL:                  Gv (DYNAMICS)  max=  2.67714478535323E-01
DEBUG_STATS_RL:                  Gv (DYNAMICS) mean= -7.14211102495212E-04
DEBUG_STATS_RL:                  Gv (DYNAMICS) S.D.=  2.04781301278527E-02
DEBUG_STATS_RL:               GuNm1 (DYNAMICS)  min= -2.20479436653802E-05
DEBUG_STATS_RL:               GuNm1 (DYNAMICS)  max=  1.94041186500260E-05
DEBUG_STATS_RL:               GuNm1 (DYNAMICS) mean= -1.79047235547826E-08
DEBUG_STATS_RL:               GuNm1 (DYNAMICS) S.D.=  1.05269385674530E-06
DEBUG_STATS_RL:               GvNm1 (DYNAMICS)  min= -2.18626092685334E-05
DEBUG_STATS_RL:               GvNm1 (DYNAMICS)  max=  2.73889469642350E-05
DEBUG_STATS_RL:               GvNm1 (DYNAMICS) mean=  5.12850776888010E-09
DEBUG_STATS_RL:               GvNm1 (DYNAMICS) S.D.=  1.26910158618805E-06
DEBUG_STATS_RL:               GtNm1 (DYNAMICS)  min= -3.22532334387394E-06
DEBUG_STATS_RL:               GtNm1 (DYNAMICS)  max=  4.97199263888237E-06
DEBUG_STATS_RL:               GtNm1 (DYNAMICS) mean=  1.35316930558160E-09
DEBUG_STATS_RL:               GtNm1 (DYNAMICS) S.D.=  6.58713120440741E-08
DEBUG_STATS_RL:               GsNm1 (DYNAMICS)  min= -1.46959802000934E-05
DEBUG_STATS_RL:               GsNm1 (DYNAMICS)  max=  2.39930978731368E-06
DEBUG_STATS_RL:               GsNm1 (DYNAMICS) mean= -4.27341907779549E-09
DEBUG_STATS_RL:               GsNm1 (DYNAMICS) S.D.=  1.67762926431516E-07
(PID.TID 0000.0001) DEBUG_MSG: LEAVING S/R DYNAMICS
DEBUG_STATS_RL:    cg2d_b (SOLVE_FOR_PRESSURE)  min= -2.01517359593568E+05
DEBUG_STATS_RL:    cg2d_b (SOLVE_FOR_PRESSURE)  max=  1.10589708910633E+05
DEBUG_STATS_RL:    cg2d_b (SOLVE_FOR_PRESSURE) mean= -4.47266460762287E+03
DEBUG_STATS_RL:    cg2d_b (SOLVE_FOR_PRESSURE) S.D.=  7.75623470067378E+03
 cg2d: Sum(rhs),rhsMax =  -9.81016107275559E+01  3.86038022739023E+01
(PID.TID 0000.0001)  cg2d: iter=     1 ; resid.=  2.78446777614546E-02
(PID.TID 0000.0001)  cg2d: iter=     2 ; resid.=  3.75343749972194E-03
(PID.TID 0000.0001)  cg2d: iter=     3 ; resid.=  1.01381449041763E-03
(PID.TID 0000.0001)  cg2d: iter=     4 ; resid.=  3.34739941738750E-04
(PID.TID 0000.0001)  cg2d: iter=     5 ; resid.=  8.42473800268256E-05
(PID.TID 0000.0001)  cg2d: iter=     6 ; resid.=  1.71561253797664E-05
(PID.TID 0000.0001)  cg2d: iter=     7 ; resid.=  3.50478379917814E-06
(PID.TID 0000.0001)  cg2d: iter=     8 ; resid.=  9.77926537398847E-07
(PID.TID 0000.0001)  cg2d: iter=     9 ; resid.=  3.15582354804027E-07
(PID.TID 0000.0001)  cg2d: iter=    10 ; resid.=  8.66234427852814E-08
DEBUG_STATS_RL:    cg2d_x (SOLVE_FOR_PRESSURE)  min= -1.17055384157467E+01
DEBUG_STATS_RL:    cg2d_x (SOLVE_FOR_PRESSURE)  max=  1.64957854286386E+01
DEBUG_STATS_RL:    cg2d_x (SOLVE_FOR_PRESSURE) mean=  4.37978404486640E-01
DEBUG_STATS_RL:    cg2d_x (SOLVE_FOR_PRESSURE) S.D.=  7.66175267381588E-01
(PID.TID 0000.0001)      cg2d_init_res =   1.87578613756149E-01
(PID.TID 0000.0001)      cg2d_iters(min,last) =      -1      10
(PID.TID 0000.0001)      cg2d_last_res =   8.66234427852814E-08
(PID.TID 0000.0001) DEBUG_MSG: CALLING S/R UPDATE_ETAH
(PID.TID 0000.0001) DEBUG_MSG: ENTERED S/R CALC_R_STAR
(PID.TID 0000.0001) DEBUG_MSG: LEAVING S/R CALC_R_STAR
(PID.TID 0000.0001) DEBUG_MSG: CALLING S/R DO_STAGGER_FIELDS_EXCH.
(PID.TID 0000.0001) DEBUG_MSG: CALLING S/R THERMODYNAMICS
(PID.TID 0000.0001) DEBUG_MSG: ENTERED S/R THERMODYNAMICS
(PID.TID 0000.0001) DEBUG_MSG: CALLING S/R TEMP_INTEGRATE
(PID.TID 0000.0001) DEBUG_MSG: CALLING S/R SALT_INTEGRATE
DEBUG_STATS_RL:          Uvel (THERMODYNAMICS)  min= -5.58920549587865E-01
DEBUG_STATS_RL:          Uvel (THERMODYNAMICS)  max=  3.54000259014666E-01
DEBUG_STATS_RL:          Uvel (THERMODYNAMICS) mean= -5.95494358530353E-04
DEBUG_STATS_RL:          Uvel (THERMODYNAMICS) S.D.=  2.04471225528865E-02
DEBUG_STATS_RL:          Vvel (THERMODYNAMICS)  min= -4.29370213557392E-01
DEBUG_STATS_RL:          Vvel (THERMODYNAMICS)  max=  3.05776974007377E-01
DEBUG_STATS_RL:          Vvel (THERMODYNAMICS) mean= -7.19367880954778E-04
DEBUG_STATS_RL:          Vvel (THERMODYNAMICS) S.D.=  2.05705869651342E-02
DEBUG_STATS_RL:          Wvel (THERMODYNAMICS)  min= -1.38895149795902E-04
DEBUG_STATS_RL:          Wvel (THERMODYNAMICS)  max=  1.49423743917232E-04
DEBUG_STATS_RL:          Wvel (THERMODYNAMICS) mean= -2.55968913828182E-07
DEBUG_STATS_RL:          Wvel (THERMODYNAMICS) S.D.=  6.63924972907820E-06
DEBUG_STATS_RL:         Theta (THERMODYNAMICS)  min=  1.60458811534267E+01
DEBUG_STATS_RL:         Theta (THERMODYNAMICS)  max=  2.38229070354199E+01
DEBUG_STATS_RL:         Theta (THERMODYNAMICS) mean=  2.00043629415500E+01
DEBUG_STATS_RL:         Theta (THERMODYNAMICS) S.D.=  9.89510007303352E-02
DEBUG_STATS_RL:          Salt (THERMODYNAMICS)  min=  2.33670236806288E+01
DEBUG_STATS_RL:          Salt (THERMODYNAMICS)  max=  3.51507398907544E+01
DEBUG_STATS_RL:          Salt (THERMODYNAMICS) mean=  3.49967748172006E+01
DEBUG_STATS_RL:          Salt (THERMODYNAMICS) S.D.=  1.33772331168354E-01
DEBUG_STATS_RL:         GtNm1 (THERMODYNAMICS)  min= -3.19290654186189E-06
DEBUG_STATS_RL:         GtNm1 (THERMODYNAMICS)  max=  5.24828518374888E-06
DEBUG_STATS_RL:         GtNm1 (THERMODYNAMICS) mean=  1.36937385252093E-09
DEBUG_STATS_RL:         GtNm1 (THERMODYNAMICS) S.D.=  6.73957289221400E-08
DEBUG_STATS_RL:         GsNm1 (THERMODYNAMICS)  min= -1.46072485599212E-05
DEBUG_STATS_RL:         GsNm1 (THERMODYNAMICS)  max=  2.41756171284845E-06
DEBUG_STATS_RL:         GsNm1 (THERMODYNAMICS) mean= -4.24513542255642E-09
DEBUG_STATS_RL:         GsNm1 (THERMODYNAMICS) S.D.=  1.66353005210984E-07
(PID.TID 0000.0001) DEBUG_MSG: LEAVING S/R THERMODYNAMICS
(PID.TID 0000.0001) // =======================================================
(PID.TID 0000.0001) // Begin MONITOR dynamic field statistics
(PID.TID 0000.0001) // =======================================================
(PID.TID 0000.0001) %MON time_tsnumber                =                    81
(PID.TID 0000.0001) %MON time_secondsf                =   7.2900000000000E+04
(PID.TID 0000.0001) %MON dynstat_eta_max              =   1.6815275654965E+00
(PID.TID 0000.0001) %MON dynstat_eta_min              =  -1.1932251107728E+00
(PID.TID 0000.0001) %MON dynstat_eta_mean             =   4.4005543971913E-02
(PID.TID 0000.0001) %MON dynstat_eta_sd               =   7.4435600643591E-02
(PID.TID 0000.0001) %MON dynstat_eta_del2             =   1.3182093080961E-03
(PID.TID 0000.0001) %MON dynstat_uvel_max             =   3.5400025901467E-01
(PID.TID 0000.0001) %MON dynstat_uvel_min             =  -5.5892054958786E-01
(PID.TID 0000.0001) %MON dynstat_uvel_mean            =  -8.5012257068465E-05
(PID.TID 0000.0001) %MON dynstat_uvel_sd              =   6.7801214708662E-03
(PID.TID 0000.0001) %MON dynstat_uvel_del2            =   9.0590678922365E-05
(PID.TID 0000.0001) %MON dynstat_vvel_max             =   3.0577697400738E-01
(PID.TID 0000.0001) %MON dynstat_vvel_min             =  -4.2937021355739E-01
(PID.TID 0000.0001) %MON dynstat_vvel_mean            =   5.7489931639646E-04
(PID.TID 0000.0001) %MON dynstat_vvel_sd              =   6.8762620073505E-03
(PID.TID 0000.0001) %MON dynstat_vvel_del2            =   9.7740564913771E-05
(PID.TID 0000.0001) %MON dynstat_wvel_max             =   1.4942374391723E-04
(PID.TID 0000.0001) %MON dynstat_wvel_min             =  -1.3889514979590E-04
(PID.TID 0000.0001) %MON dynstat_wvel_mean            =  -1.2801700102276E-07
(PID.TID 0000.0001) %MON dynstat_wvel_sd              =   6.3837760867983E-06
(PID.TID 0000.0001) %MON dynstat_wvel_del2            =   6.9836939098852E-08
(PID.TID 0000.0001) %MON dynstat_theta_max            =   2.3822907035420E+01
(PID.TID 0000.0001) %MON dynstat_theta_min            =   1.6045881153427E+01
(PID.TID 0000.0001) %MON dynstat_theta_mean           =   1.9997921029185E+01
(PID.TID 0000.0001) %MON dynstat_theta_sd             =   3.2570760030104E-02
(PID.TID 0000.0001) %MON dynstat_theta_del2           =   5.6036293421046E-04
(PID.TID 0000.0001) %MON dynstat_salt_max             =   3.5150739890754E+01
(PID.TID 0000.0001) %MON dynstat_salt_min             =   2.3367023680629E+01
(PID.TID 0000.0001) %MON dynstat_salt_mean            =   3.4999581666795E+01
(PID.TID 0000.0001) %MON dynstat_salt_sd              =   4.1282745579908E-02
(PID.TID 0000.0001) %MON dynstat_salt_del2            =   1.4160533293935E-03
(PID.TID 0000.0001) %MON dynstat_sst_max              =   2.3822907035420E+01
(PID.TID 0000.0001) %MON dynstat_sst_min              =   1.6045881153427E+01
(PID.TID 0000.0001) %MON dynstat_sst_mean             =   2.0159400099886E+01
(PID.TID 0000.0001) %MON dynstat_sst_sd               =   3.0494697702481E-01
(PID.TID 0000.0001) %MON dynstat_sst_del2             =   6.6203732548429E-03
(PID.TID 0000.0001) %MON dynstat_sss_max              =   3.5150739890754E+01
(PID.TID 0000.0001) %MON dynstat_sss_min              =   2.3367023680629E+01
(PID.TID 0000.0001) %MON dynstat_sss_mean             =   3.4961687383259E+01
(PID.TID 0000.0001) %MON dynstat_sss_sd               =   4.9775963613370E-01
(PID.TID 0000.0001) %MON dynstat_sss_del2             =   1.9163626481855E-02
(PID.TID 0000.0001) %MON forcing_qnet_max             =   2.5369708497762E+03
(PID.TID 0000.0001) %MON forcing_qnet_min             =  -2.6436684570312E+03
(PID.TID 0000.0001) %MON forcing_qnet_mean            =  -2.1264013955577E+01
(PID.TID 0000.0001) %MON forcing_qnet_sd              =   4.4495842632902E+02
(PID.TID 0000.0001) %MON forcing_qnet_del2            =   5.2098899286560E+00
(PID.TID 0000.0001) %MON forcing_qsw_max              =   0.0000000000000E+00
(PID.TID 0000.0001) %MON forcing_qsw_min              =  -1.0548274452943E+02
(PID.TID 0000.0001) %MON forcing_qsw_mean             =  -1.9067976971708E+01
(PID.TID 0000.0001) %MON forcing_qsw_sd               =   2.7936024566976E+01
(PID.TID 0000.0001) %MON forcing_qsw_del2             =   2.3739645128753E-01
(PID.TID 0000.0001) %MON forcing_empmr_max            =   4.8449076712132E-03
(PID.TID 0000.0001) %MON forcing_empmr_min            =  -6.9629915058613E-02
(PID.TID 0000.0001) %MON forcing_empmr_mean           =  -3.5433369678765E-04
(PID.TID 0000.0001) %MON forcing_empmr_sd             =   3.1052784513419E-03
(PID.TID 0000.0001) %MON forcing_empmr_del2           =   1.2103217448538E-04
(PID.TID 0000.0001) %MON forcing_fu_max               =   5.3364740827262E-01
(PID.TID 0000.0001) %MON forcing_fu_min               =  -6.1057400049321E-01
(PID.TID 0000.0001) %MON forcing_fu_mean              =  -9.4715740797559E-04
(PID.TID 0000.0001) %MON forcing_fu_sd                =   8.1833776528932E-02
(PID.TID 0000.0001) %MON forcing_fu_del2              =   6.9376007461305E-04
(PID.TID 0000.0001) %MON forcing_fv_max               =   3.6666556119765E-01
(PID.TID 0000.0001) %MON forcing_fv_min               =  -3.3562069677918E-01
(PID.TID 0000.0001) %MON forcing_fv_mean              =  -6.9944606848609E-03
(PID.TID 0000.0001) %MON forcing_fv_sd                =   7.1148079405066E-02
(PID.TID 0000.0001) %MON forcing_fv_del2              =   5.7817440941479E-04
(PID.TID 0000.0001) %MON trAdv_CFL_u_max              =   1.6151072762786E-03
(PID.TID 0000.0001) %MON trAdv_CFL_v_max              =   1.5127452638034E-03
(PID.TID 0000.0001) %MON trAdv_CFL_w_max              =   2.1795862047136E-03
(PID.TID 0000.0001) %MON advcfl_uvel_max              =   1.6123963805452E-03
(PID.TID 0000.0001) %MON advcfl_vvel_max              =   1.4534226355116E-03
(PID.TID 0000.0001) %MON advcfl_wvel_max              =   4.8438201779905E-03
(PID.TID 0000.0001) %MON advcfl_W_hf_max              =   2.5463420153438E-03
(PID.TID 0000.0001) %MON pe_b_mean                    =   9.9608227272310E-06
(PID.TID 0000.0001) %MON ke_max                       =   1.0812297983379E-01
(PID.TID 0000.0001) %MON ke_mean                      =   4.3214520459162E-05
(PID.TID 0000.0001) %MON ke_vol                       =   1.3398183462772E+18
(PID.TID 0000.0001) %MON vort_r_min                   =  -2.5562482790313E-06
(PID.TID 0000.0001) %MON vort_r_max                   =   2.5371980556600E-06
(PID.TID 0000.0001) %MON vort_a_mean                  =  -2.0549865324846E-05
(PID.TID 0000.0001) %MON vort_a_sd                    =   7.5259421181759E-05
(PID.TID 0000.0001) %MON vort_p_mean                  =  -2.4783225736099E-05
(PID.TID 0000.0001) %MON vort_p_sd                    =   1.2810506498706E-04
(PID.TID 0000.0001) %MON surfExpan_theta_mean         =  -5.3612490801734E-07
(PID.TID 0000.0001) %MON surfExpan_salt_mean          =   1.4820510670075E-06
(PID.TID 0000.0001) // =======================================================
(PID.TID 0000.0001) // End MONITOR dynamic field statistics
(PID.TID 0000.0001) // =======================================================
(PID.TID 0000.0001) DEBUG_MSG: LEAVING S/R FORWARD_STEP
(PID.TID 0000.0001) DEBUG_MSG: ENTERED S/R FORWARD_STEP
(PID.TID 0000.0001) DEBUG_MSG: CALLING S/R LOAD_FIELDS_DRIVER
(PID.TID 0000.0001) DEBUG_MSG: ENTERED S/R LOAD_FIELDS_DRIVER
(PID.TID 0000.0001) DEBUG_MSG: CALLING S/R EXTERNAL_FIELDS_LOAD
(PID.TID 0000.0001) DEBUG_MSG: LEAVING S/R LOAD_FIELDS_DRIVER
(PID.TID 0000.0001) DEBUG_MSG: CALLING S/R DO_ATMOSPHERIC_PHYS
(PID.TID 0000.0001) DEBUG_MSG: ENTERED S/R DO_ATMOSPHERIC_PHYS
(PID.TID 0000.0001) DEBUG_MSG: LEAVING S/R DO_ATMOSPHERIC_PHYS
(PID.TID 0000.0001) DEBUG_MSG: CALLING S/R DO_OCEANIC_PHYS
(PID.TID 0000.0001) DEBUG_MSG: ENTERED S/R DO_OCEANIC_PHYS
(PID.TID 0000.0001) DEBUG_MSG: CALLING S/R EXTERNAL_FORCING_SURF
(PID.TID 0000.0001) DEBUG_MSG: CALLING S/R FIND_RHO_2D (xNr)
(PID.TID 0000.0001) DEBUG_MSG:                  ENTERING UPWARD K LOOP (bi=   1, bj=   1)
(PID.TID 0000.0001) DEBUG_MSG: CALLING S/R GRAD_SIGMA
(PID.TID 0000.0001) DEBUG_MSG: CALLING S/R CALC_IVDC
(PID.TID 0000.0001) DEBUG_MSG: CALLING S/R GRAD_SIGMA
(PID.TID 0000.0001) DEBUG_MSG: CALLING S/R CALC_IVDC
(PID.TID 0000.0001) DEBUG_MSG: CALLING S/R GRAD_SIGMA
(PID.TID 0000.0001) DEBUG_MSG: CALLING S/R CALC_IVDC
(PID.TID 0000.0001) DEBUG_MSG: CALLING S/R GRAD_SIGMA
(PID.TID 0000.0001) DEBUG_MSG: CALLING S/R CALC_IVDC
(PID.TID 0000.0001) DEBUG_MSG: CALLING S/R GRAD_SIGMA
(PID.TID 0000.0001) DEBUG_MSG: CALLING S/R CALC_IVDC
(PID.TID 0000.0001) DEBUG_MSG: CALLING S/R GRAD_SIGMA
(PID.TID 0000.0001) DEBUG_MSG: CALLING S/R CALC_IVDC
(PID.TID 0000.0001) DEBUG_MSG: CALLING S/R GRAD_SIGMA
(PID.TID 0000.0001) DEBUG_MSG: CALLING S/R CALC_IVDC
(PID.TID 0000.0001) DEBUG_MSG: CALLING S/R GRAD_SIGMA
(PID.TID 0000.0001) DEBUG_MSG: CALLING S/R CALC_IVDC
(PID.TID 0000.0001) DEBUG_MSG: CALLING S/R GRAD_SIGMA
(PID.TID 0000.0001) DEBUG_MSG: CALLING S/R CALC_IVDC
(PID.TID 0000.0001) DEBUG_MSG: CALLING S/R GRAD_SIGMA
(PID.TID 0000.0001) DEBUG_MSG: CALLING S/R CALC_IVDC
(PID.TID 0000.0001) DEBUG_MSG: CALLING S/R GRAD_SIGMA
(PID.TID 0000.0001) DEBUG_MSG: CALLING S/R CALC_IVDC
(PID.TID 0000.0001) DEBUG_MSG: CALLING S/R GRAD_SIGMA
(PID.TID 0000.0001) DEBUG_MSG: CALLING S/R CALC_IVDC
(PID.TID 0000.0001) DEBUG_MSG: CALLING S/R GRAD_SIGMA
(PID.TID 0000.0001) DEBUG_MSG: CALLING S/R CALC_IVDC
(PID.TID 0000.0001) DEBUG_MSG: CALLING S/R GRAD_SIGMA
(PID.TID 0000.0001) DEBUG_MSG: CALLING S/R CALC_IVDC
(PID.TID 0000.0001) DEBUG_MSG: CALLING S/R GRAD_SIGMA
(PID.TID 0000.0001) DEBUG_MSG: CALLING S/R CALC_IVDC
(PID.TID 0000.0001) DEBUG_MSG: CALLING S/R GRAD_SIGMA
(PID.TID 0000.0001) DEBUG_MSG: CALLING S/R GMREDI_CALC_TENSOR
(PID.TID 0000.0001) DEBUG_MSG: LEAVING S/R DO_OCEANIC_PHYS
(PID.TID 0000.0001) DEBUG_MSG: CALLING S/R DYNAMICS
(PID.TID 0000.0001) DEBUG_MSG: ENTERED S/R DYNAMICS
DEBUG_STATS_RL:                EtaN (DYNAMICS)  min= -1.19322511077280E+00
DEBUG_STATS_RL:                EtaN (DYNAMICS)  max=  1.68152756549645E+00
DEBUG_STATS_RL:                EtaN (DYNAMICS) mean=  4.46461170041768E-02
DEBUG_STATS_RL:                EtaN (DYNAMICS) S.D.=  7.81014544161357E-02
DEBUG_STATS_RL:                Uvel (DYNAMICS)  min= -5.58920549587865E-01
DEBUG_STATS_RL:                Uvel (DYNAMICS)  max=  3.54000259014666E-01
DEBUG_STATS_RL:                Uvel (DYNAMICS) mean= -5.95494358530353E-04
DEBUG_STATS_RL:                Uvel (DYNAMICS) S.D.=  2.04471225528865E-02
DEBUG_STATS_RL:                Vvel (DYNAMICS)  min= -4.29370213557392E-01
DEBUG_STATS_RL:                Vvel (DYNAMICS)  max=  3.05776974007377E-01
DEBUG_STATS_RL:                Vvel (DYNAMICS) mean= -7.19367880954778E-04
DEBUG_STATS_RL:                Vvel (DYNAMICS) S.D.=  2.05705869651342E-02
DEBUG_STATS_RL:                Wvel (DYNAMICS)  min= -1.38895149795902E-04
DEBUG_STATS_RL:                Wvel (DYNAMICS)  max=  1.49423743917232E-04
DEBUG_STATS_RL:                Wvel (DYNAMICS) mean= -2.55968913828182E-07
DEBUG_STATS_RL:                Wvel (DYNAMICS) S.D.=  6.63924972907820E-06
DEBUG_STATS_RL:               Theta (DYNAMICS)  min=  1.60458811534267E+01
DEBUG_STATS_RL:               Theta (DYNAMICS)  max=  2.38229070354199E+01
DEBUG_STATS_RL:               Theta (DYNAMICS) mean=  2.00043629415500E+01
DEBUG_STATS_RL:               Theta (DYNAMICS) S.D.=  9.89510007303352E-02
DEBUG_STATS_RL:                Salt (DYNAMICS)  min=  2.33670236806288E+01
DEBUG_STATS_RL:                Salt (DYNAMICS)  max=  3.51507398907544E+01
DEBUG_STATS_RL:                Salt (DYNAMICS) mean=  3.49967748172006E+01
DEBUG_STATS_RL:                Salt (DYNAMICS) S.D.=  1.33772331168354E-01
DEBUG_STATS_RL:                  Gu (DYNAMICS)  min= -5.54664511081770E-01
DEBUG_STATS_RL:                  Gu (DYNAMICS)  max=  3.54232227605901E-01
DEBUG_STATS_RL:                  Gu (DYNAMICS) mean= -6.11884963654449E-04
DEBUG_STATS_RL:                  Gu (DYNAMICS) S.D.=  2.04782680896151E-02
DEBUG_STATS_RL:                  Gv (DYNAMICS)  min= -4.17344994652117E-01
DEBUG_STATS_RL:                  Gv (DYNAMICS)  max=  2.94833561821673E-01
DEBUG_STATS_RL:                  Gv (DYNAMICS) mean= -7.10421047826902E-04
DEBUG_STATS_RL:                  Gv (DYNAMICS) S.D.=  2.07883642735176E-02
DEBUG_STATS_RL:               GuNm1 (DYNAMICS)  min= -2.34122912725694E-05
DEBUG_STATS_RL:               GuNm1 (DYNAMICS)  max=  1.88387279339857E-05
DEBUG_STATS_RL:               GuNm1 (DYNAMICS) mean= -1.83514147720316E-08
DEBUG_STATS_RL:               GuNm1 (DYNAMICS) S.D.=  1.06180126543666E-06
DEBUG_STATS_RL:               GvNm1 (DYNAMICS)  min= -2.21417239476531E-05
DEBUG_STATS_RL:               GvNm1 (DYNAMICS)  max=  2.67178006410367E-05
DEBUG_STATS_RL:               GvNm1 (DYNAMICS) mean=  7.22410365437577E-09
DEBUG_STATS_RL:               GvNm1 (DYNAMICS) S.D.=  1.25640886050026E-06
DEBUG_STATS_RL:               GtNm1 (DYNAMICS)  min= -3.19290654186189E-06
DEBUG_STATS_RL:               GtNm1 (DYNAMICS)  max=  5.24828518374888E-06
DEBUG_STATS_RL:               GtNm1 (DYNAMICS) mean=  1.36937385252093E-09
DEBUG_STATS_RL:               GtNm1 (DYNAMICS) S.D.=  6.73957289221400E-08
DEBUG_STATS_RL:               GsNm1 (DYNAMICS)  min= -1.46072485599212E-05
DEBUG_STATS_RL:               GsNm1 (DYNAMICS)  max=  2.41756171284845E-06
DEBUG_STATS_RL:               GsNm1 (DYNAMICS) mean= -4.24513542255642E-09
DEBUG_STATS_RL:               GsNm1 (DYNAMICS) S.D.=  1.66353005210984E-07
(PID.TID 0000.0001) DEBUG_MSG: LEAVING S/R DYNAMICS
DEBUG_STATS_RL:    cg2d_b (SOLVE_FOR_PRESSURE)  min= -1.97429271433236E+05
DEBUG_STATS_RL:    cg2d_b (SOLVE_FOR_PRESSURE)  max=  9.28952000583138E+04
DEBUG_STATS_RL:    cg2d_b (SOLVE_FOR_PRESSURE) mean= -4.50380185716224E+03
DEBUG_STATS_RL:    cg2d_b (SOLVE_FOR_PRESSURE) S.D.=  7.67483280645423E+03
 cg2d: Sum(rhs),rhsMax =  -1.00830054551404E+02  3.78206650427573E+01
(PID.TID 0000.0001)  cg2d: iter=     1 ; resid.=  2.77390628468992E-02
(PID.TID 0000.0001)  cg2d: iter=     2 ; resid.=  3.68230747098079E-03
(PID.TID 0000.0001)  cg2d: iter=     3 ; resid.=  9.93463749511018E-04
(PID.TID 0000.0001)  cg2d: iter=     4 ; resid.=  3.27275765661163E-04
(PID.TID 0000.0001)  cg2d: iter=     5 ; resid.=  8.38298673098471E-05
(PID.TID 0000.0001)  cg2d: iter=     6 ; resid.=  1.69526514038439E-05
(PID.TID 0000.0001)  cg2d: iter=     7 ; resid.=  3.46961632063938E-06
(PID.TID 0000.0001)  cg2d: iter=     8 ; resid.=  9.96842748599205E-07
(PID.TID 0000.0001)  cg2d: iter=     9 ; resid.=  3.18751747409350E-07
(PID.TID 0000.0001)  cg2d: iter=    10 ; resid.=  8.55011190306502E-08
DEBUG_STATS_RL:    cg2d_x (SOLVE_FOR_PRESSURE)  min= -9.83551359690497E+00
DEBUG_STATS_RL:    cg2d_x (SOLVE_FOR_PRESSURE)  max=  1.61623878764855E+01
DEBUG_STATS_RL:    cg2d_x (SOLVE_FOR_PRESSURE) mean=  4.40195460415026E-01
DEBUG_STATS_RL:    cg2d_x (SOLVE_FOR_PRESSURE) S.D.=  7.56153050199797E-01
(PID.TID 0000.0001)      cg2d_init_res =   1.93101951585693E-01
(PID.TID 0000.0001)      cg2d_iters(min,last) =      -1      10
(PID.TID 0000.0001)      cg2d_last_res =   8.55011190306502E-08
(PID.TID 0000.0001) DEBUG_MSG: CALLING S/R UPDATE_ETAH
(PID.TID 0000.0001) DEBUG_MSG: ENTERED S/R CALC_R_STAR
(PID.TID 0000.0001) DEBUG_MSG: LEAVING S/R CALC_R_STAR
(PID.TID 0000.0001) DEBUG_MSG: CALLING S/R DO_STAGGER_FIELDS_EXCH.
(PID.TID 0000.0001) DEBUG_MSG: CALLING S/R THERMODYNAMICS
(PID.TID 0000.0001) DEBUG_MSG: ENTERED S/R THERMODYNAMICS
(PID.TID 0000.0001) DEBUG_MSG: CALLING S/R TEMP_INTEGRATE
(PID.TID 0000.0001) DEBUG_MSG: CALLING S/R SALT_INTEGRATE
DEBUG_STATS_RL:          Uvel (THERMODYNAMICS)  min= -5.67263171631839E-01
DEBUG_STATS_RL:          Uvel (THERMODYNAMICS)  max=  3.60077175461775E-01
DEBUG_STATS_RL:          Uvel (THERMODYNAMICS) mean= -6.23601504816134E-04
DEBUG_STATS_RL:          Uvel (THERMODYNAMICS) S.D.=  2.05104076790391E-02
DEBUG_STATS_RL:          Vvel (THERMODYNAMICS)  min= -4.45155253450800E-01
DEBUG_STATS_RL:          Vvel (THERMODYNAMICS)  max=  3.28136731381931E-01
DEBUG_STATS_RL:          Vvel (THERMODYNAMICS) mean= -7.15012956972338E-04
DEBUG_STATS_RL:          Vvel (THERMODYNAMICS) S.D.=  2.08764875973896E-02
DEBUG_STATS_RL:          Wvel (THERMODYNAMICS)  min= -1.33412682648173E-04
DEBUG_STATS_RL:          Wvel (THERMODYNAMICS)  max=  1.48361112241521E-04
DEBUG_STATS_RL:          Wvel (THERMODYNAMICS) mean= -2.54572972736560E-07
DEBUG_STATS_RL:          Wvel (THERMODYNAMICS) S.D.=  6.59377319675769E-06
DEBUG_STATS_RL:         Theta (THERMODYNAMICS)  min=  1.60463059768765E+01
DEBUG_STATS_RL:         Theta (THERMODYNAMICS)  max=  2.38494343782584E+01
DEBUG_STATS_RL:         Theta (THERMODYNAMICS) mean=  2.00044633219534E+01
DEBUG_STATS_RL:         Theta (THERMODYNAMICS) S.D.=  9.94719243241402E-02
DEBUG_STATS_RL:          Salt (THERMODYNAMICS)  min=  2.33217162075459E+01
DEBUG_STATS_RL:          Salt (THERMODYNAMICS)  max=  3.51507338836792E+01
DEBUG_STATS_RL:          Salt (THERMODYNAMICS) mean=  3.49967567650401E+01
DEBUG_STATS_RL:          Salt (THERMODYNAMICS) S.D.=  1.34334795354090E-01
DEBUG_STATS_RL:         GtNm1 (THERMODYNAMICS)  min= -3.16415823663418E-06
DEBUG_STATS_RL:         GtNm1 (THERMODYNAMICS)  max=  5.45301099073773E-06
DEBUG_STATS_RL:         GtNm1 (THERMODYNAMICS) mean=  1.37854023844229E-09
DEBUG_STATS_RL:         GtNm1 (THERMODYNAMICS) S.D.=  6.86962878623694E-08
DEBUG_STATS_RL:         GsNm1 (THERMODYNAMICS)  min= -1.45178060911360E-05
DEBUG_STATS_RL:         GsNm1 (THERMODYNAMICS)  max=  2.43717138074375E-06
DEBUG_STATS_RL:         GsNm1 (THERMODYNAMICS) mean= -4.21686992356114E-09
DEBUG_STATS_RL:         GsNm1 (THERMODYNAMICS) S.D.=  1.64949778316303E-07
(PID.TID 0000.0001) DEBUG_MSG: LEAVING S/R THERMODYNAMICS
(PID.TID 0000.0001) // =======================================================
(PID.TID 0000.0001) // Begin MONITOR dynamic field statistics
(PID.TID 0000.0001) // =======================================================
(PID.TID 0000.0001) %MON time_tsnumber                =                    82
(PID.TID 0000.0001) %MON time_secondsf                =   7.3800000000000E+04
(PID.TID 0000.0001) %MON dynstat_eta_max              =   1.6475420859415E+00
(PID.TID 0000.0001) %MON dynstat_eta_min              =  -1.0026007666369E+00
(PID.TID 0000.0001) %MON dynstat_eta_mean             =   4.4311896386855E-02
(PID.TID 0000.0001) %MON dynstat_eta_sd               =   7.3484008423626E-02
(PID.TID 0000.0001) %MON dynstat_eta_del2             =   1.2590270615860E-03
(PID.TID 0000.0001) %MON dynstat_uvel_max             =   3.6007717546178E-01
(PID.TID 0000.0001) %MON dynstat_uvel_min             =  -5.6726317163184E-01
(PID.TID 0000.0001) %MON dynstat_uvel_mean            =  -9.5590257664227E-05
(PID.TID 0000.0001) %MON dynstat_uvel_sd              =   6.7834547570226E-03
(PID.TID 0000.0001) %MON dynstat_uvel_del2            =   9.0652540341040E-05
(PID.TID 0000.0001) %MON dynstat_vvel_max             =   3.2813673138193E-01
(PID.TID 0000.0001) %MON dynstat_vvel_min             =  -4.4515525345080E-01
(PID.TID 0000.0001) %MON dynstat_vvel_mean            =   5.4918435570789E-04
(PID.TID 0000.0001) %MON dynstat_vvel_sd              =   6.9624514986914E-03
(PID.TID 0000.0001) %MON dynstat_vvel_del2            =   9.8447848717127E-05
(PID.TID 0000.0001) %MON dynstat_wvel_max             =   1.4836111224152E-04
(PID.TID 0000.0001) %MON dynstat_wvel_min             =  -1.3341268264817E-04
(PID.TID 0000.0001) %MON dynstat_wvel_mean            =  -1.2084551617355E-07
(PID.TID 0000.0001) %MON dynstat_wvel_sd              =   6.3355591063706E-06
(PID.TID 0000.0001) %MON dynstat_wvel_del2            =   6.9492251504489E-08
(PID.TID 0000.0001) %MON dynstat_theta_max            =   2.3849434378258E+01
(PID.TID 0000.0001) %MON dynstat_theta_min            =   1.6046305976876E+01
(PID.TID 0000.0001) %MON dynstat_theta_mean           =   1.9997922336441E+01
(PID.TID 0000.0001) %MON dynstat_theta_sd             =   3.2737537922742E-02
(PID.TID 0000.0001) %MON dynstat_theta_del2           =   5.6237273195519E-04
(PID.TID 0000.0001) %MON dynstat_salt_max             =   3.5150733883679E+01
(PID.TID 0000.0001) %MON dynstat_salt_min             =   2.3321716207546E+01
(PID.TID 0000.0001) %MON dynstat_salt_mean            =   3.4999579111488E+01
(PID.TID 0000.0001) %MON dynstat_salt_sd              =   4.1455717490353E-02
(PID.TID 0000.0001) %MON dynstat_salt_del2            =   1.4213550661051E-03
(PID.TID 0000.0001) %MON dynstat_sst_max              =   2.3849434378258E+01
(PID.TID 0000.0001) %MON dynstat_sst_min              =   1.6046305976876E+01
(PID.TID 0000.0001) %MON dynstat_sst_mean             =   2.0160864554704E+01
(PID.TID 0000.0001) %MON dynstat_sst_sd               =   3.0656498832013E-01
(PID.TID 0000.0001) %MON dynstat_sst_del2             =   6.6507710184156E-03
(PID.TID 0000.0001) %MON dynstat_sss_max              =   3.5150733883679E+01
(PID.TID 0000.0001) %MON dynstat_sss_min              =   2.3321716207546E+01
(PID.TID 0000.0001) %MON dynstat_sss_mean             =   3.4961468627716E+01
(PID.TID 0000.0001) %MON dynstat_sss_sd               =   4.9984603707553E-01
(PID.TID 0000.0001) %MON dynstat_sss_del2             =   1.9235149127134E-02
(PID.TID 0000.0001) %MON forcing_qnet_max             =   2.6267063934082E+03
(PID.TID 0000.0001) %MON forcing_qnet_min             =  -2.6068513183594E+03
(PID.TID 0000.0001) %MON forcing_qnet_mean            =  -2.0582262566574E+01
(PID.TID 0000.0001) %MON forcing_qnet_sd              =   4.4377329136071E+02
(PID.TID 0000.0001) %MON forcing_qnet_del2            =   5.2631008862719E+00
(PID.TID 0000.0001) %MON forcing_qsw_max              =   0.0000000000000E+00
(PID.TID 0000.0001) %MON forcing_qsw_min              =  -1.0653019039238E+02
(PID.TID 0000.0001) %MON forcing_qsw_mean             =  -1.9238463185223E+01
(PID.TID 0000.0001) %MON forcing_qsw_sd               =   2.8020939657648E+01
(PID.TID 0000.0001) %MON forcing_qsw_del2             =   2.3760456662492E-01
(PID.TID 0000.0001) %MON forcing_empmr_max            =   4.7950167208910E-03
(PID.TID 0000.0001) %MON forcing_empmr_min            =  -6.8912498652935E-02
(PID.TID 0000.0001) %MON forcing_empmr_mean           =  -3.5230527718284E-04
(PID.TID 0000.0001) %MON forcing_empmr_sd             =   3.0744616831090E-03
(PID.TID 0000.0001) %MON forcing_empmr_del2           =   1.1979479930451E-04
(PID.TID 0000.0001) %MON forcing_fu_max               =   5.2756270839536E-01
(PID.TID 0000.0001) %MON forcing_fu_min               =  -6.0722574647298E-01
(PID.TID 0000.0001) %MON forcing_fu_mean              =  -1.0107889243800E-03
(PID.TID 0000.0001) %MON forcing_fu_sd                =   8.1358943532829E-02
(PID.TID 0000.0001) %MON forcing_fu_del2              =   6.9059151025788E-04
(PID.TID 0000.0001) %MON forcing_fv_max               =   3.6283205828083E-01
(PID.TID 0000.0001) %MON forcing_fv_min               =  -3.3104332978661E-01
(PID.TID 0000.0001) %MON forcing_fv_mean              =  -7.0328494300708E-03
(PID.TID 0000.0001) %MON forcing_fv_sd                =   7.1244276946361E-02
(PID.TID 0000.0001) %MON forcing_fv_del2              =   5.7690559694448E-04
(PID.TID 0000.0001) %MON trAdv_CFL_u_max              =   1.6401682642289E-03
(PID.TID 0000.0001) %MON trAdv_CFL_v_max              =   1.5163893890213E-03
(PID.TID 0000.0001) %MON trAdv_CFL_w_max              =   2.1805558391543E-03
(PID.TID 0000.0001) %MON advcfl_uvel_max              =   1.6364635106550E-03
(PID.TID 0000.0001) %MON advcfl_vvel_max              =   1.4569117942665E-03
(PID.TID 0000.0001) %MON advcfl_wvel_max              =   4.7939129497694E-03
(PID.TID 0000.0001) %MON advcfl_W_hf_max              =   2.5376180140341E-03
(PID.TID 0000.0001) %MON pe_b_mean                    =   9.8093504453291E-06
(PID.TID 0000.0001) %MON ke_max                       =   1.0344112750243E-01
(PID.TID 0000.0001) %MON ke_mean                      =   4.3776159553583E-05
(PID.TID 0000.0001) %MON ke_vol                       =   1.3398184583966E+18
(PID.TID 0000.0001) %MON vort_r_min                   =  -2.5631315767090E-06
(PID.TID 0000.0001) %MON vort_r_max                   =   2.5477734476806E-06
(PID.TID 0000.0001) %MON vort_a_mean                  =  -2.0549865324846E-05
(PID.TID 0000.0001) %MON vort_a_sd                    =   7.5259417363887E-05
(PID.TID 0000.0001) %MON vort_p_mean                  =  -2.4783223635982E-05
(PID.TID 0000.0001) %MON vort_p_sd                    =   1.2810505815863E-04
(PID.TID 0000.0001) %MON surfExpan_theta_mean         =  -5.3694768406191E-07
(PID.TID 0000.0001) %MON surfExpan_salt_mean          =   1.4709940509348E-06
(PID.TID 0000.0001) // =======================================================
(PID.TID 0000.0001) // End MONITOR dynamic field statistics
(PID.TID 0000.0001) // =======================================================
(PID.TID 0000.0001) DEBUG_MSG: LEAVING S/R FORWARD_STEP
(PID.TID 0000.0001) DEBUG_MSG: ENTERED S/R FORWARD_STEP
(PID.TID 0000.0001) DEBUG_MSG: CALLING S/R LOAD_FIELDS_DRIVER
(PID.TID 0000.0001) DEBUG_MSG: ENTERED S/R LOAD_FIELDS_DRIVER
(PID.TID 0000.0001) DEBUG_MSG: CALLING S/R EXTERNAL_FIELDS_LOAD
(PID.TID 0000.0001) DEBUG_MSG: LEAVING S/R LOAD_FIELDS_DRIVER
(PID.TID 0000.0001) DEBUG_MSG: CALLING S/R DO_ATMOSPHERIC_PHYS
(PID.TID 0000.0001) DEBUG_MSG: ENTERED S/R DO_ATMOSPHERIC_PHYS
(PID.TID 0000.0001) DEBUG_MSG: LEAVING S/R DO_ATMOSPHERIC_PHYS
(PID.TID 0000.0001) DEBUG_MSG: CALLING S/R DO_OCEANIC_PHYS
(PID.TID 0000.0001) DEBUG_MSG: ENTERED S/R DO_OCEANIC_PHYS
(PID.TID 0000.0001) DEBUG_MSG: CALLING S/R EXTERNAL_FORCING_SURF
(PID.TID 0000.0001) DEBUG_MSG: CALLING S/R FIND_RHO_2D (xNr)
(PID.TID 0000.0001) DEBUG_MSG:                  ENTERING UPWARD K LOOP (bi=   1, bj=   1)
(PID.TID 0000.0001) DEBUG_MSG: CALLING S/R GRAD_SIGMA
(PID.TID 0000.0001) DEBUG_MSG: CALLING S/R CALC_IVDC
(PID.TID 0000.0001) DEBUG_MSG: CALLING S/R GRAD_SIGMA
(PID.TID 0000.0001) DEBUG_MSG: CALLING S/R CALC_IVDC
(PID.TID 0000.0001) DEBUG_MSG: CALLING S/R GRAD_SIGMA
(PID.TID 0000.0001) DEBUG_MSG: CALLING S/R CALC_IVDC
(PID.TID 0000.0001) DEBUG_MSG: CALLING S/R GRAD_SIGMA
(PID.TID 0000.0001) DEBUG_MSG: CALLING S/R CALC_IVDC
(PID.TID 0000.0001) DEBUG_MSG: CALLING S/R GRAD_SIGMA
(PID.TID 0000.0001) DEBUG_MSG: CALLING S/R CALC_IVDC
(PID.TID 0000.0001) DEBUG_MSG: CALLING S/R GRAD_SIGMA
(PID.TID 0000.0001) DEBUG_MSG: CALLING S/R CALC_IVDC
(PID.TID 0000.0001) DEBUG_MSG: CALLING S/R GRAD_SIGMA
(PID.TID 0000.0001) DEBUG_MSG: CALLING S/R CALC_IVDC
(PID.TID 0000.0001) DEBUG_MSG: CALLING S/R GRAD_SIGMA
(PID.TID 0000.0001) DEBUG_MSG: CALLING S/R CALC_IVDC
(PID.TID 0000.0001) DEBUG_MSG: CALLING S/R GRAD_SIGMA
(PID.TID 0000.0001) DEBUG_MSG: CALLING S/R CALC_IVDC
(PID.TID 0000.0001) DEBUG_MSG: CALLING S/R GRAD_SIGMA
(PID.TID 0000.0001) DEBUG_MSG: CALLING S/R CALC_IVDC
(PID.TID 0000.0001) DEBUG_MSG: CALLING S/R GRAD_SIGMA
(PID.TID 0000.0001) DEBUG_MSG: CALLING S/R CALC_IVDC
(PID.TID 0000.0001) DEBUG_MSG: CALLING S/R GRAD_SIGMA
(PID.TID 0000.0001) DEBUG_MSG: CALLING S/R CALC_IVDC
(PID.TID 0000.0001) DEBUG_MSG: CALLING S/R GRAD_SIGMA
(PID.TID 0000.0001) DEBUG_MSG: CALLING S/R CALC_IVDC
(PID.TID 0000.0001) DEBUG_MSG: CALLING S/R GRAD_SIGMA
(PID.TID 0000.0001) DEBUG_MSG: CALLING S/R CALC_IVDC
(PID.TID 0000.0001) DEBUG_MSG: CALLING S/R GRAD_SIGMA
(PID.TID 0000.0001) DEBUG_MSG: CALLING S/R CALC_IVDC
(PID.TID 0000.0001) DEBUG_MSG: CALLING S/R GRAD_SIGMA
(PID.TID 0000.0001) DEBUG_MSG: CALLING S/R GMREDI_CALC_TENSOR
(PID.TID 0000.0001) DEBUG_MSG: LEAVING S/R DO_OCEANIC_PHYS
(PID.TID 0000.0001) DEBUG_MSG: CALLING S/R DYNAMICS
(PID.TID 0000.0001) DEBUG_MSG: ENTERED S/R DYNAMICS
DEBUG_STATS_RL:                EtaN (DYNAMICS)  min= -1.00260076663693E+00
DEBUG_STATS_RL:                EtaN (DYNAMICS)  max=  1.64754208594153E+00
DEBUG_STATS_RL:                EtaN (DYNAMICS) mean=  4.48721165383351E-02
DEBUG_STATS_RL:                EtaN (DYNAMICS) S.D.=  7.70798216658809E-02
DEBUG_STATS_RL:                Uvel (DYNAMICS)  min= -5.67263171631839E-01
DEBUG_STATS_RL:                Uvel (DYNAMICS)  max=  3.60077175461775E-01
DEBUG_STATS_RL:                Uvel (DYNAMICS) mean= -6.23601504816134E-04
DEBUG_STATS_RL:                Uvel (DYNAMICS) S.D.=  2.05104076790391E-02
DEBUG_STATS_RL:                Vvel (DYNAMICS)  min= -4.45155253450800E-01
DEBUG_STATS_RL:                Vvel (DYNAMICS)  max=  3.28136731381931E-01
DEBUG_STATS_RL:                Vvel (DYNAMICS) mean= -7.15012956972338E-04
DEBUG_STATS_RL:                Vvel (DYNAMICS) S.D.=  2.08764875973896E-02
DEBUG_STATS_RL:                Wvel (DYNAMICS)  min= -1.33412682648173E-04
DEBUG_STATS_RL:                Wvel (DYNAMICS)  max=  1.48361112241521E-04
DEBUG_STATS_RL:                Wvel (DYNAMICS) mean= -2.54572972736560E-07
DEBUG_STATS_RL:                Wvel (DYNAMICS) S.D.=  6.59377319675769E-06
DEBUG_STATS_RL:               Theta (DYNAMICS)  min=  1.60463059768765E+01
DEBUG_STATS_RL:               Theta (DYNAMICS)  max=  2.38494343782584E+01
DEBUG_STATS_RL:               Theta (DYNAMICS) mean=  2.00044633219534E+01
DEBUG_STATS_RL:               Theta (DYNAMICS) S.D.=  9.94719243241402E-02
DEBUG_STATS_RL:                Salt (DYNAMICS)  min=  2.33217162075459E+01
DEBUG_STATS_RL:                Salt (DYNAMICS)  max=  3.51507338836792E+01
DEBUG_STATS_RL:                Salt (DYNAMICS) mean=  3.49967567650401E+01
DEBUG_STATS_RL:                Salt (DYNAMICS) S.D.=  1.34334795354090E-01
DEBUG_STATS_RL:                  Gu (DYNAMICS)  min= -5.62873347014445E-01
DEBUG_STATS_RL:                  Gu (DYNAMICS)  max=  3.60447451753688E-01
DEBUG_STATS_RL:                  Gu (DYNAMICS) mean= -6.40154980251454E-04
DEBUG_STATS_RL:                  Gu (DYNAMICS) S.D.=  2.05217081150610E-02
DEBUG_STATS_RL:                  Gv (DYNAMICS)  min= -4.31408068575546E-01
DEBUG_STATS_RL:                  Gv (DYNAMICS)  max=  3.17972572274874E-01
DEBUG_STATS_RL:                  Gv (DYNAMICS) mean= -7.04087525180891E-04
DEBUG_STATS_RL:                  Gv (DYNAMICS) S.D.=  2.10916406078238E-02
DEBUG_STATS_RL:               GuNm1 (DYNAMICS)  min= -2.44153583435302E-05
DEBUG_STATS_RL:               GuNm1 (DYNAMICS)  max=  1.80864447920670E-05
DEBUG_STATS_RL:               GuNm1 (DYNAMICS) mean= -1.86257628681538E-08
DEBUG_STATS_RL:               GuNm1 (DYNAMICS) S.D.=  1.07483045823840E-06
DEBUG_STATS_RL:               GvNm1 (DYNAMICS)  min= -2.22634299569136E-05
DEBUG_STATS_RL:               GvNm1 (DYNAMICS)  max=  2.82221964836302E-05
DEBUG_STATS_RL:               GvNm1 (DYNAMICS) mean=  9.37612116186183E-09
DEBUG_STATS_RL:               GvNm1 (DYNAMICS) S.D.=  1.24084578854748E-06
DEBUG_STATS_RL:               GtNm1 (DYNAMICS)  min= -3.16415823663418E-06
DEBUG_STATS_RL:               GtNm1 (DYNAMICS)  max=  5.45301099073773E-06
DEBUG_STATS_RL:               GtNm1 (DYNAMICS) mean=  1.37854023844229E-09
DEBUG_STATS_RL:               GtNm1 (DYNAMICS) S.D.=  6.86962878623694E-08
DEBUG_STATS_RL:               GsNm1 (DYNAMICS)  min= -1.45178060911360E-05
DEBUG_STATS_RL:               GsNm1 (DYNAMICS)  max=  2.43717138074375E-06
DEBUG_STATS_RL:               GsNm1 (DYNAMICS) mean= -4.21686992356114E-09
DEBUG_STATS_RL:               GsNm1 (DYNAMICS) S.D.=  1.64949778316303E-07
(PID.TID 0000.0001) DEBUG_MSG: LEAVING S/R DYNAMICS
DEBUG_STATS_RL:    cg2d_b (SOLVE_FOR_PRESSURE)  min= -1.92507912859433E+05
DEBUG_STATS_RL:    cg2d_b (SOLVE_FOR_PRESSURE)  max=  8.65403699514304E+04
DEBUG_STATS_RL:    cg2d_b (SOLVE_FOR_PRESSURE) mean= -4.53480226270244E+03
DEBUG_STATS_RL:    cg2d_b (SOLVE_FOR_PRESSURE) S.D.=  7.59227084105717E+03
 cg2d: Sum(rhs),rhsMax =  -1.04119491523346E+02  3.68779018302716E+01
(PID.TID 0000.0001)  cg2d: iter=     1 ; resid.=  2.76240063358140E-02
(PID.TID 0000.0001)  cg2d: iter=     2 ; resid.=  3.59204781898705E-03
(PID.TID 0000.0001)  cg2d: iter=     3 ; resid.=  9.48521421072039E-04
(PID.TID 0000.0001)  cg2d: iter=     4 ; resid.=  3.10253620033441E-04
(PID.TID 0000.0001)  cg2d: iter=     5 ; resid.=  8.27677872399088E-05
(PID.TID 0000.0001)  cg2d: iter=     6 ; resid.=  1.67560966765685E-05
(PID.TID 0000.0001)  cg2d: iter=     7 ; resid.=  3.41377557124379E-06
(PID.TID 0000.0001)  cg2d: iter=     8 ; resid.=  9.81440349869792E-07
(PID.TID 0000.0001)  cg2d: iter=     9 ; resid.=  3.09631126471833E-07
(PID.TID 0000.0001)  cg2d: iter=    10 ; resid.=  8.32312630079706E-08
DEBUG_STATS_RL:    cg2d_x (SOLVE_FOR_PRESSURE)  min= -7.89300841627481E+00
DEBUG_STATS_RL:    cg2d_x (SOLVE_FOR_PRESSURE)  max=  1.57610932841173E+01
DEBUG_STATS_RL:    cg2d_x (SOLVE_FOR_PRESSURE) mean=  4.42452816938576E-01
DEBUG_STATS_RL:    cg2d_x (SOLVE_FOR_PRESSURE) S.D.=  7.46720994119848E-01
(PID.TID 0000.0001)      cg2d_init_res =   1.99186274844960E-01
(PID.TID 0000.0001)      cg2d_iters(min,last) =      -1      10
(PID.TID 0000.0001)      cg2d_last_res =   8.32312630079706E-08
(PID.TID 0000.0001) DEBUG_MSG: CALLING S/R UPDATE_ETAH
(PID.TID 0000.0001) DEBUG_MSG: ENTERED S/R CALC_R_STAR
(PID.TID 0000.0001) DEBUG_MSG: LEAVING S/R CALC_R_STAR
(PID.TID 0000.0001) DEBUG_MSG: CALLING S/R DO_STAGGER_FIELDS_EXCH.
(PID.TID 0000.0001) DEBUG_MSG: CALLING S/R THERMODYNAMICS
(PID.TID 0000.0001) DEBUG_MSG: ENTERED S/R THERMODYNAMICS
(PID.TID 0000.0001) DEBUG_MSG: CALLING S/R TEMP_INTEGRATE
(PID.TID 0000.0001) DEBUG_MSG: CALLING S/R SALT_INTEGRATE
DEBUG_STATS_RL:          Uvel (THERMODYNAMICS)  min= -5.73560334842723E-01
DEBUG_STATS_RL:          Uvel (THERMODYNAMICS)  max=  3.62532940664199E-01
DEBUG_STATS_RL:          Uvel (THERMODYNAMICS) mean= -6.52028481466828E-04
DEBUG_STATS_RL:          Uvel (THERMODYNAMICS) S.D.=  2.05531893891974E-02
DEBUG_STATS_RL:          Vvel (THERMODYNAMICS)  min= -4.53614858195089E-01
DEBUG_STATS_RL:          Vvel (THERMODYNAMICS)  max=  3.46247832968591E-01
DEBUG_STATS_RL:          Vvel (THERMODYNAMICS) mean= -7.08086829850832E-04
DEBUG_STATS_RL:          Vvel (THERMODYNAMICS) S.D.=  2.11726384629298E-02
DEBUG_STATS_RL:          Wvel (THERMODYNAMICS)  min= -1.28080526319171E-04
DEBUG_STATS_RL:          Wvel (THERMODYNAMICS)  max=  1.47212773531657E-04
DEBUG_STATS_RL:          Wvel (THERMODYNAMICS) mean= -2.53528859422682E-07
DEBUG_STATS_RL:          Wvel (THERMODYNAMICS) S.D.=  6.54692034824118E-06
DEBUG_STATS_RL:         Theta (THERMODYNAMICS)  min=  1.60469122935477E+01
DEBUG_STATS_RL:         Theta (THERMODYNAMICS)  max=  2.38755994927218E+01
DEBUG_STATS_RL:         Theta (THERMODYNAMICS) mean=  2.00045618974836E+01
DEBUG_STATS_RL:         Theta (THERMODYNAMICS) S.D.=  9.99939979251287E-02
DEBUG_STATS_RL:          Salt (THERMODYNAMICS)  min=  2.32773664394524E+01
DEBUG_STATS_RL:          Salt (THERMODYNAMICS)  max=  3.51507289075930E+01
DEBUG_STATS_RL:          Salt (THERMODYNAMICS) mean=  3.49967385515251E+01
DEBUG_STATS_RL:          Salt (THERMODYNAMICS) S.D.=  1.34886088718536E-01
DEBUG_STATS_RL:         GtNm1 (THERMODYNAMICS)  min= -3.13959648900159E-06
DEBUG_STATS_RL:         GtNm1 (THERMODYNAMICS)  max=  5.58615459931955E-06
DEBUG_STATS_RL:         GtNm1 (THERMODYNAMICS) mean=  1.37877525792130E-09
DEBUG_STATS_RL:         GtNm1 (THERMODYNAMICS) S.D.=  6.96614031748426E-08
DEBUG_STATS_RL:         GsNm1 (THERMODYNAMICS)  min= -1.44279113416251E-05
DEBUG_STATS_RL:         GsNm1 (THERMODYNAMICS)  max=  2.45571706960352E-06
DEBUG_STATS_RL:         GsNm1 (THERMODYNAMICS) mean= -4.18703162524911E-09
DEBUG_STATS_RL:         GsNm1 (THERMODYNAMICS) S.D.=  1.63513619857794E-07
(PID.TID 0000.0001) DEBUG_MSG: LEAVING S/R THERMODYNAMICS
(PID.TID 0000.0001) // =======================================================
(PID.TID 0000.0001) // Begin MONITOR dynamic field statistics
(PID.TID 0000.0001) // =======================================================
(PID.TID 0000.0001) %MON time_tsnumber                =                    83
(PID.TID 0000.0001) %MON time_secondsf                =   7.4700000000000E+04
(PID.TID 0000.0001) %MON dynstat_eta_max              =   1.6066353995076E+00
(PID.TID 0000.0001) %MON dynstat_eta_min              =  -8.0458800666446E-01
(PID.TID 0000.0001) %MON dynstat_eta_mean             =   4.4616902424379E-02
(PID.TID 0000.0001) %MON dynstat_eta_sd               =   7.2556307380361E-02
(PID.TID 0000.0001) %MON dynstat_eta_del2             =   1.2015325297767E-03
(PID.TID 0000.0001) %MON dynstat_uvel_max             =   3.6253294066420E-01
(PID.TID 0000.0001) %MON dynstat_uvel_min             =  -5.7356033484272E-01
(PID.TID 0000.0001) %MON dynstat_uvel_mean            =  -1.0576959957353E-04
(PID.TID 0000.0001) %MON dynstat_uvel_sd              =   6.7819470211480E-03
(PID.TID 0000.0001) %MON dynstat_uvel_del2            =   9.0805914428262E-05
(PID.TID 0000.0001) %MON dynstat_vvel_max             =   3.4624783296859E-01
(PID.TID 0000.0001) %MON dynstat_vvel_min             =  -4.5361485819509E-01
(PID.TID 0000.0001) %MON dynstat_vvel_mean            =   5.2487456990548E-04
(PID.TID 0000.0001) %MON dynstat_vvel_sd              =   7.0457082277690E-03
(PID.TID 0000.0001) %MON dynstat_vvel_del2            =   9.8901746103688E-05
(PID.TID 0000.0001) %MON dynstat_wvel_max             =   1.4721277353166E-04
(PID.TID 0000.0001) %MON dynstat_wvel_min             =  -1.2808052631917E-04
(PID.TID 0000.0001) %MON dynstat_wvel_mean            =  -1.1452176530917E-07
(PID.TID 0000.0001) %MON dynstat_wvel_sd              =   6.2867807720845E-06
(PID.TID 0000.0001) %MON dynstat_wvel_del2            =   6.9114261440098E-08
(PID.TID 0000.0001) %MON dynstat_theta_max            =   2.3875599492722E+01
(PID.TID 0000.0001) %MON dynstat_theta_min            =   1.6046912293548E+01
(PID.TID 0000.0001) %MON dynstat_theta_mean           =   1.9997923617721E+01
(PID.TID 0000.0001) %MON dynstat_theta_sd             =   3.2903921769813E-02
(PID.TID 0000.0001) %MON dynstat_theta_del2           =   5.6444179956799E-04
(PID.TID 0000.0001) %MON dynstat_salt_max             =   3.5150728907593E+01
(PID.TID 0000.0001) %MON dynstat_salt_min             =   2.3277366439452E+01
(PID.TID 0000.0001) %MON dynstat_salt_mean            =   3.4999576573790E+01
(PID.TID 0000.0001) %MON dynstat_salt_sd              =   4.1625221413429E-02
(PID.TID 0000.0001) %MON dynstat_salt_del2            =   1.4265324144103E-03
(PID.TID 0000.0001) %MON dynstat_sst_max              =   2.3875599492722E+01
(PID.TID 0000.0001) %MON dynstat_sst_min              =   1.6046912293548E+01
(PID.TID 0000.0001) %MON dynstat_sst_mean             =   2.0162306395589E+01
(PID.TID 0000.0001) %MON dynstat_sst_sd               =   3.0818339750508E-01
(PID.TID 0000.0001) %MON dynstat_sst_del2             =   6.6815670810166E-03
(PID.TID 0000.0001) %MON dynstat_sss_max              =   3.5150728907593E+01
(PID.TID 0000.0001) %MON dynstat_sss_min              =   2.3277366439452E+01
(PID.TID 0000.0001) %MON dynstat_sss_mean             =   3.4961247903642E+01
(PID.TID 0000.0001) %MON dynstat_sss_sd               =   5.0188941568552E-01
(PID.TID 0000.0001) %MON dynstat_sss_del2             =   1.9304983214655E-02
(PID.TID 0000.0001) %MON forcing_qnet_max             =   2.6610549331210E+03
(PID.TID 0000.0001) %MON forcing_qnet_min             =  -2.5705131835938E+03
(PID.TID 0000.0001) %MON forcing_qnet_mean            =  -2.0167072688012E+01
(PID.TID 0000.0001) %MON forcing_qnet_sd              =   4.4146119403822E+02
(PID.TID 0000.0001) %MON forcing_qnet_del2            =   5.1365575697570E+00
(PID.TID 0000.0001) %MON forcing_qsw_max              =   0.0000000000000E+00
(PID.TID 0000.0001) %MON forcing_qsw_min              =  -1.0713795669049E+02
(PID.TID 0000.0001) %MON forcing_qsw_mean             =  -1.9362834309441E+01
(PID.TID 0000.0001) %MON forcing_qsw_sd               =   2.8084929020775E+01
(PID.TID 0000.0001) %MON forcing_qsw_del2             =   2.3758752362010E-01
(PID.TID 0000.0001) %MON forcing_empmr_max            =   4.7457166947424E-03
(PID.TID 0000.0001) %MON forcing_empmr_min            =  -6.8202629685402E-02
(PID.TID 0000.0001) %MON forcing_empmr_mean           =  -3.5075694315301E-04
(PID.TID 0000.0001) %MON forcing_empmr_sd             =   3.0436965559560E-03
(PID.TID 0000.0001) %MON forcing_empmr_del2           =   1.1856727078449E-04
(PID.TID 0000.0001) %MON forcing_fu_max               =   5.1591659047082E-01
(PID.TID 0000.0001) %MON forcing_fu_min               =  -6.0560111533738E-01
(PID.TID 0000.0001) %MON forcing_fu_mean              =  -1.0999199849001E-03
(PID.TID 0000.0001) %MON forcing_fu_sd                =   8.0848476032340E-02
(PID.TID 0000.0001) %MON forcing_fu_del2              =   6.8688675218923E-04
(PID.TID 0000.0001) %MON forcing_fv_max               =   3.5953363705611E-01
(PID.TID 0000.0001) %MON forcing_fv_min               =  -3.2670257280438E-01
(PID.TID 0000.0001) %MON forcing_fv_mean              =  -7.0550703627212E-03
(PID.TID 0000.0001) %MON forcing_fv_sd                =   7.1360127035147E-02
(PID.TID 0000.0001) %MON forcing_fv_del2              =   5.7580889505045E-04
(PID.TID 0000.0001) %MON trAdv_CFL_u_max              =   1.6594059359000E-03
(PID.TID 0000.0001) %MON trAdv_CFL_v_max              =   1.5192215888008E-03
(PID.TID 0000.0001) %MON trAdv_CFL_w_max              =   2.1792261376792E-03
(PID.TID 0000.0001) %MON advcfl_uvel_max              =   1.6546298192232E-03
(PID.TID 0000.0001) %MON advcfl_vvel_max              =   1.4803107474934E-03
(PID.TID 0000.0001) %MON advcfl_wvel_max              =   4.7445307607236E-03
(PID.TID 0000.0001) %MON advcfl_W_hf_max              =   2.4953012222706E-03
(PID.TID 0000.0001) %MON pe_b_mean                    =   9.6649985758314E-06
(PID.TID 0000.0001) %MON ke_max                       =   1.0433918798462E-01
(PID.TID 0000.0001) %MON ke_mean                      =   4.4296706450796E-05
(PID.TID 0000.0001) %MON ke_vol                       =   1.3398185698742E+18
(PID.TID 0000.0001) %MON vort_r_min                   =  -2.5699551202099E-06
(PID.TID 0000.0001) %MON vort_r_max                   =   2.5595549062725E-06
(PID.TID 0000.0001) %MON vort_a_mean                  =  -2.0549865324846E-05
(PID.TID 0000.0001) %MON vort_a_sd                    =   7.5259413943057E-05
(PID.TID 0000.0001) %MON vort_p_mean                  =  -2.4783221564634E-05
(PID.TID 0000.0001) %MON vort_p_sd                    =   1.2810505348732E-04
(PID.TID 0000.0001) %MON surfExpan_theta_mean         =  -5.3508494510077E-07
(PID.TID 0000.0001) %MON surfExpan_salt_mean          =   1.4592848223795E-06
(PID.TID 0000.0001) // =======================================================
(PID.TID 0000.0001) // End MONITOR dynamic field statistics
(PID.TID 0000.0001) // =======================================================
 Computing Diagnostic #     81  oceTAUX      Counter:       1   Parms: UU      U1      
           Vector  Mate for  oceTAUX      Diagnostic #     82  oceTAUY  exists 
(PID.TID 0000.0001)  MDS_WRITE_FIELD: it,rec,kS,kL,kH=      82    -1  32   1   1 file=oceTAUX.0000000082
 Computing Diagnostic #     82  oceTAUY      Counter:       1   Parms: VV      U1      
           Vector  Mate for  oceTAUY      Diagnostic #     81  oceTAUX  exists 
(PID.TID 0000.0001)  MDS_WRITE_FIELD: it,rec,kS,kL,kH=      82    -1  32   1   1 file=oceTAUY.0000000082
 Computing Diagnostic #     85  oceFWflx     Counter:       1   Parms: SM      U1      
(PID.TID 0000.0001)  MDS_WRITE_FIELD: it,rec,kS,kL,kH=      82    -1  32   1   1 file=oceFWflx.0000000082
 Computing Diagnostic #     86  oceSflux     Counter:       1   Parms: SM      U1      
(PID.TID 0000.0001)  MDS_WRITE_FIELD: it,rec,kS,kL,kH=      82    -1  32   1   1 file=oceSflux.0000000082
 Computing Diagnostic #     87  oceQnet      Counter:       1   Parms: SM      U1      
(PID.TID 0000.0001)  MDS_WRITE_FIELD: it,rec,kS,kL,kH=      82    -1  32   1   1 file=oceQnet.0000000082
 Computing Diagnostic #     88  oceQsw       Counter:       1   Parms: SM      U1      
(PID.TID 0000.0001)  MDS_WRITE_FIELD: it,rec,kS,kL,kH=      82    -1  32   1   1 file=oceQsw.0000000082
 Computing Diagnostic #     27  SALT         Counter:       1   Parms: SMR     MR      
(PID.TID 0000.0001)  MDS_WRITE_FIELD: it,rec,kS,kL,kH=      82    -1  32   1   1 file=SSS.0000000082
 Computing Diagnostic #     26  THETA        Counter:       1   Parms: SMR     MR      
(PID.TID 0000.0001)  MDS_WRITE_FIELD: it,rec,kS,kL,kH=      82    -1  32   1   1 file=SST.0000000082
 Computing Diagnostic #     45  UVELMASS     Counter:       1   Parms: UUr     MR      
           Vector  Mate for  UVELMASS     Diagnostic #     46  VVELMASS exists 
(PID.TID 0000.0001)  MDS_WRITE_FIELD: it,rec,kS,kL,kH=      82    -1  32   1   1 file=UVEL1.0000000082
 Computing Diagnostic #     46  VVELMASS     Counter:       1   Parms: VVr     MR      
           Vector  Mate for  VVELMASS     Diagnostic #     45  UVELMASS exists 
(PID.TID 0000.0001)  MDS_WRITE_FIELD: it,rec,kS,kL,kH=      82    -1  32   1   1 file=VVEL1.0000000082
 Computing Diagnostic #     83  atmPload     Counter:       1   Parms: SM      U1      
(PID.TID 0000.0001)  MDS_WRITE_FIELD: it,rec,kS,kL,kH=      82    -1  32   1   1 file=atmPload.0000000082
(PID.TID 0000.0001)  write diagnostics summary to file: diagnostics_status.0000000083.txt
(PID.TID 0000.0001) DEBUG_MSG: LEAVING S/R FORWARD_STEP
(PID.TID 0000.0001) DEBUG_MSG: ENTERED S/R FORWARD_STEP
(PID.TID 0000.0001) DEBUG_MSG: CALLING S/R LOAD_FIELDS_DRIVER
(PID.TID 0000.0001) DEBUG_MSG: ENTERED S/R LOAD_FIELDS_DRIVER
(PID.TID 0000.0001) DEBUG_MSG: CALLING S/R EXTERNAL_FIELDS_LOAD
(PID.TID 0000.0001) DEBUG_MSG: LEAVING S/R LOAD_FIELDS_DRIVER
(PID.TID 0000.0001) DEBUG_MSG: CALLING S/R DO_ATMOSPHERIC_PHYS
(PID.TID 0000.0001) DEBUG_MSG: ENTERED S/R DO_ATMOSPHERIC_PHYS
(PID.TID 0000.0001) DEBUG_MSG: LEAVING S/R DO_ATMOSPHERIC_PHYS
(PID.TID 0000.0001) DEBUG_MSG: CALLING S/R DO_OCEANIC_PHYS
(PID.TID 0000.0001) DEBUG_MSG: ENTERED S/R DO_OCEANIC_PHYS
(PID.TID 0000.0001) DEBUG_MSG: CALLING S/R EXTERNAL_FORCING_SURF
(PID.TID 0000.0001) DEBUG_MSG: CALLING S/R FIND_RHO_2D (xNr)
(PID.TID 0000.0001) DEBUG_MSG:                  ENTERING UPWARD K LOOP (bi=   1, bj=   1)
(PID.TID 0000.0001) DEBUG_MSG: CALLING S/R GRAD_SIGMA
(PID.TID 0000.0001) DEBUG_MSG: CALLING S/R CALC_IVDC
(PID.TID 0000.0001) DEBUG_MSG: CALLING S/R GRAD_SIGMA
(PID.TID 0000.0001) DEBUG_MSG: CALLING S/R CALC_IVDC
(PID.TID 0000.0001) DEBUG_MSG: CALLING S/R GRAD_SIGMA
(PID.TID 0000.0001) DEBUG_MSG: CALLING S/R CALC_IVDC
(PID.TID 0000.0001) DEBUG_MSG: CALLING S/R GRAD_SIGMA
(PID.TID 0000.0001) DEBUG_MSG: CALLING S/R CALC_IVDC
(PID.TID 0000.0001) DEBUG_MSG: CALLING S/R GRAD_SIGMA
(PID.TID 0000.0001) DEBUG_MSG: CALLING S/R CALC_IVDC
(PID.TID 0000.0001) DEBUG_MSG: CALLING S/R GRAD_SIGMA
(PID.TID 0000.0001) DEBUG_MSG: CALLING S/R CALC_IVDC
(PID.TID 0000.0001) DEBUG_MSG: CALLING S/R GRAD_SIGMA
(PID.TID 0000.0001) DEBUG_MSG: CALLING S/R CALC_IVDC
(PID.TID 0000.0001) DEBUG_MSG: CALLING S/R GRAD_SIGMA
(PID.TID 0000.0001) DEBUG_MSG: CALLING S/R CALC_IVDC
(PID.TID 0000.0001) DEBUG_MSG: CALLING S/R GRAD_SIGMA
(PID.TID 0000.0001) DEBUG_MSG: CALLING S/R CALC_IVDC
(PID.TID 0000.0001) DEBUG_MSG: CALLING S/R GRAD_SIGMA
(PID.TID 0000.0001) DEBUG_MSG: CALLING S/R CALC_IVDC
(PID.TID 0000.0001) DEBUG_MSG: CALLING S/R GRAD_SIGMA
(PID.TID 0000.0001) DEBUG_MSG: CALLING S/R CALC_IVDC
(PID.TID 0000.0001) DEBUG_MSG: CALLING S/R GRAD_SIGMA
(PID.TID 0000.0001) DEBUG_MSG: CALLING S/R CALC_IVDC
(PID.TID 0000.0001) DEBUG_MSG: CALLING S/R GRAD_SIGMA
(PID.TID 0000.0001) DEBUG_MSG: CALLING S/R CALC_IVDC
(PID.TID 0000.0001) DEBUG_MSG: CALLING S/R GRAD_SIGMA
(PID.TID 0000.0001) DEBUG_MSG: CALLING S/R CALC_IVDC
(PID.TID 0000.0001) DEBUG_MSG: CALLING S/R GRAD_SIGMA
(PID.TID 0000.0001) DEBUG_MSG: CALLING S/R CALC_IVDC
(PID.TID 0000.0001) DEBUG_MSG: CALLING S/R GRAD_SIGMA
(PID.TID 0000.0001) DEBUG_MSG: CALLING S/R GMREDI_CALC_TENSOR
(PID.TID 0000.0001) DEBUG_MSG: LEAVING S/R DO_OCEANIC_PHYS
(PID.TID 0000.0001) DEBUG_MSG: CALLING S/R DYNAMICS
(PID.TID 0000.0001) DEBUG_MSG: ENTERED S/R DYNAMICS
DEBUG_STATS_RL:                EtaN (DYNAMICS)  min= -8.04588006664459E-01
DEBUG_STATS_RL:                EtaN (DYNAMICS)  max=  1.60663539950759E+00
DEBUG_STATS_RL:                EtaN (DYNAMICS) mean=  4.51022242056411E-02
DEBUG_STATS_RL:                EtaN (DYNAMICS) S.D.=  7.61183480523208E-02
DEBUG_STATS_RL:                Uvel (DYNAMICS)  min= -5.73560334842723E-01
DEBUG_STATS_RL:                Uvel (DYNAMICS)  max=  3.62532940664199E-01
DEBUG_STATS_RL:                Uvel (DYNAMICS) mean= -6.52028481466828E-04
DEBUG_STATS_RL:                Uvel (DYNAMICS) S.D.=  2.05531893891974E-02
DEBUG_STATS_RL:                Vvel (DYNAMICS)  min= -4.53614858195089E-01
DEBUG_STATS_RL:                Vvel (DYNAMICS)  max=  3.46247832968591E-01
DEBUG_STATS_RL:                Vvel (DYNAMICS) mean= -7.08086829850832E-04
DEBUG_STATS_RL:                Vvel (DYNAMICS) S.D.=  2.11726384629298E-02
DEBUG_STATS_RL:                Wvel (DYNAMICS)  min= -1.28080526319171E-04
DEBUG_STATS_RL:                Wvel (DYNAMICS)  max=  1.47212773531657E-04
DEBUG_STATS_RL:                Wvel (DYNAMICS) mean= -2.53528859422682E-07
DEBUG_STATS_RL:                Wvel (DYNAMICS) S.D.=  6.54692034824118E-06
DEBUG_STATS_RL:               Theta (DYNAMICS)  min=  1.60469122935477E+01
DEBUG_STATS_RL:               Theta (DYNAMICS)  max=  2.38755994927218E+01
DEBUG_STATS_RL:               Theta (DYNAMICS) mean=  2.00045618974836E+01
DEBUG_STATS_RL:               Theta (DYNAMICS) S.D.=  9.99939979251287E-02
DEBUG_STATS_RL:                Salt (DYNAMICS)  min=  2.32773664394524E+01
DEBUG_STATS_RL:                Salt (DYNAMICS)  max=  3.51507289075930E+01
DEBUG_STATS_RL:                Salt (DYNAMICS) mean=  3.49967385515251E+01
DEBUG_STATS_RL:                Salt (DYNAMICS) S.D.=  1.34886088718536E-01
DEBUG_STATS_RL:                  Gu (DYNAMICS)  min= -5.69041575378257E-01
DEBUG_STATS_RL:                  Gu (DYNAMICS)  max=  3.63091585477158E-01
DEBUG_STATS_RL:                  Gu (DYNAMICS) mean= -6.68455069092340E-04
DEBUG_STATS_RL:                  Gu (DYNAMICS) S.D.=  2.05476000741848E-02
DEBUG_STATS_RL:                  Gv (DYNAMICS)  min= -4.38421777715210E-01
DEBUG_STATS_RL:                  Gv (DYNAMICS)  max=  3.36901522707021E-01
DEBUG_STATS_RL:                  Gv (DYNAMICS) mean= -6.95140929696114E-04
DEBUG_STATS_RL:                  Gv (DYNAMICS) S.D.=  2.13795079043859E-02
DEBUG_STATS_RL:               GuNm1 (DYNAMICS)  min= -2.50592669724689E-05
DEBUG_STATS_RL:               GuNm1 (DYNAMICS)  max=  1.71596077782670E-05
DEBUG_STATS_RL:               GuNm1 (DYNAMICS) mean= -1.86343759402856E-08
DEBUG_STATS_RL:               GuNm1 (DYNAMICS) S.D.=  1.09084184029723E-06
DEBUG_STATS_RL:               GvNm1 (DYNAMICS)  min= -2.21508335105852E-05
DEBUG_STATS_RL:               GvNm1 (DYNAMICS)  max=  2.96211610093484E-05
DEBUG_STATS_RL:               GvNm1 (DYNAMICS) mean=  1.15788204679150E-08
DEBUG_STATS_RL:               GvNm1 (DYNAMICS) S.D.=  1.22291987621128E-06
DEBUG_STATS_RL:               GtNm1 (DYNAMICS)  min= -3.13959648900159E-06
DEBUG_STATS_RL:               GtNm1 (DYNAMICS)  max=  5.58615459931955E-06
DEBUG_STATS_RL:               GtNm1 (DYNAMICS) mean=  1.37877525792130E-09
DEBUG_STATS_RL:               GtNm1 (DYNAMICS) S.D.=  6.96614031748426E-08
DEBUG_STATS_RL:               GsNm1 (DYNAMICS)  min= -1.44279113416251E-05
DEBUG_STATS_RL:               GsNm1 (DYNAMICS)  max=  2.45571706960352E-06
DEBUG_STATS_RL:               GsNm1 (DYNAMICS) mean= -4.18703162524911E-09
DEBUG_STATS_RL:               GsNm1 (DYNAMICS) S.D.=  1.63513619857794E-07
(PID.TID 0000.0001) DEBUG_MSG: LEAVING S/R DYNAMICS
DEBUG_STATS_RL:    cg2d_b (SOLVE_FOR_PRESSURE)  min= -1.86786270139066E+05
DEBUG_STATS_RL:    cg2d_b (SOLVE_FOR_PRESSURE)  max=  8.37259480553421E+04
DEBUG_STATS_RL:    cg2d_b (SOLVE_FOR_PRESSURE) mean= -4.56562276318043E+03
DEBUG_STATS_RL:    cg2d_b (SOLVE_FOR_PRESSURE) S.D.=  7.51166431699503E+03
 cg2d: Sum(rhs),rhsMax =  -1.08038201085299E+02  3.57818316718276E+01
(PID.TID 0000.0001)  cg2d: iter=     1 ; resid.=  2.74907139819767E-02
(PID.TID 0000.0001)  cg2d: iter=     2 ; resid.=  3.49633867883202E-03
(PID.TID 0000.0001)  cg2d: iter=     3 ; resid.=  8.83452085937095E-04
(PID.TID 0000.0001)  cg2d: iter=     4 ; resid.=  2.82923583928247E-04
(PID.TID 0000.0001)  cg2d: iter=     5 ; resid.=  8.06811384206242E-05
(PID.TID 0000.0001)  cg2d: iter=     6 ; resid.=  1.65472950927308E-05
(PID.TID 0000.0001)  cg2d: iter=     7 ; resid.=  3.34900323347970E-06
(PID.TID 0000.0001)  cg2d: iter=     8 ; resid.=  9.45083047144157E-07
(PID.TID 0000.0001)  cg2d: iter=     9 ; resid.=  2.93206255384034E-07
(PID.TID 0000.0001)  cg2d: iter=    10 ; resid.=  7.96890572391993E-08
DEBUG_STATS_RL:    cg2d_x (SOLVE_FOR_PRESSURE)  min= -6.97032116561173E+00
DEBUG_STATS_RL:    cg2d_x (SOLVE_FOR_PRESSURE)  max=  1.52945844538836E+01
DEBUG_STATS_RL:    cg2d_x (SOLVE_FOR_PRESSURE) mean=  4.44752805739677E-01
DEBUG_STATS_RL:    cg2d_x (SOLVE_FOR_PRESSURE) S.D.=  7.38163471257600E-01
(PID.TID 0000.0001)      cg2d_init_res =   2.05715770008440E-01
(PID.TID 0000.0001)      cg2d_iters(min,last) =      -1      10
(PID.TID 0000.0001)      cg2d_last_res =   7.96890572391993E-08
(PID.TID 0000.0001) DEBUG_MSG: CALLING S/R UPDATE_ETAH
(PID.TID 0000.0001) DEBUG_MSG: ENTERED S/R CALC_R_STAR
(PID.TID 0000.0001) DEBUG_MSG: LEAVING S/R CALC_R_STAR
(PID.TID 0000.0001) DEBUG_MSG: CALLING S/R DO_STAGGER_FIELDS_EXCH.
(PID.TID 0000.0001) DEBUG_MSG: CALLING S/R THERMODYNAMICS
(PID.TID 0000.0001) DEBUG_MSG: ENTERED S/R THERMODYNAMICS
(PID.TID 0000.0001) DEBUG_MSG: CALLING S/R TEMP_INTEGRATE
(PID.TID 0000.0001) DEBUG_MSG: CALLING S/R SALT_INTEGRATE
DEBUG_STATS_RL:          Uvel (THERMODYNAMICS)  min= -5.77717615949581E-01
DEBUG_STATS_RL:          Uvel (THERMODYNAMICS)  max=  3.61449050905515E-01
DEBUG_STATS_RL:          Uvel (THERMODYNAMICS) mean= -6.80400139459160E-04
DEBUG_STATS_RL:          Uvel (THERMODYNAMICS) S.D.=  2.05766821386285E-02
DEBUG_STATS_RL:          Vvel (THERMODYNAMICS)  min= -4.54862975055867E-01
DEBUG_STATS_RL:          Vvel (THERMODYNAMICS)  max=  3.59975779971501E-01
DEBUG_STATS_RL:          Vvel (THERMODYNAMICS) mean= -6.98539291129038E-04
DEBUG_STATS_RL:          Vvel (THERMODYNAMICS) S.D.=  2.14514405342207E-02
DEBUG_STATS_RL:          Wvel (THERMODYNAMICS)  min= -1.22918543838790E-04
DEBUG_STATS_RL:          Wvel (THERMODYNAMICS)  max=  1.45732169008990E-04
DEBUG_STATS_RL:          Wvel (THERMODYNAMICS) mean= -2.52468181339854E-07
DEBUG_STATS_RL:          Wvel (THERMODYNAMICS) S.D.=  6.49888719507360E-06
DEBUG_STATS_RL:         Theta (THERMODYNAMICS)  min=  1.60477103532739E+01
DEBUG_STATS_RL:         Theta (THERMODYNAMICS)  max=  2.39013965940922E+01
DEBUG_STATS_RL:         Theta (THERMODYNAMICS) mean=  2.00046589065754E+01
DEBUG_STATS_RL:         Theta (THERMODYNAMICS) S.D.=  1.00511583479053E-01
DEBUG_STATS_RL:          Salt (THERMODYNAMICS)  min=  2.32339504657185E+01
DEBUG_STATS_RL:          Salt (THERMODYNAMICS)  max=  3.51507237507771E+01
DEBUG_STATS_RL:          Salt (THERMODYNAMICS) mean=  3.49967203321656E+01
DEBUG_STATS_RL:          Salt (THERMODYNAMICS) S.D.=  1.35425998347197E-01
DEBUG_STATS_RL:         GtNm1 (THERMODYNAMICS)  min= -3.11949304704080E-06
DEBUG_STATS_RL:         GtNm1 (THERMODYNAMICS)  max=  5.64876226613958E-06
DEBUG_STATS_RL:         GtNm1 (THERMODYNAMICS) mean=  1.37264691950106E-09
DEBUG_STATS_RL:         GtNm1 (THERMODYNAMICS) S.D.=  7.02693832379885E-08
DEBUG_STATS_RL:         GsNm1 (THERMODYNAMICS)  min= -1.43376664039847E-05
DEBUG_STATS_RL:         GsNm1 (THERMODYNAMICS)  max=  2.47320625344801E-06
DEBUG_STATS_RL:         GsNm1 (THERMODYNAMICS) mean= -4.15660188140384E-09
DEBUG_STATS_RL:         GsNm1 (THERMODYNAMICS) S.D.=  1.62070504058581E-07
(PID.TID 0000.0001) DEBUG_MSG: LEAVING S/R THERMODYNAMICS
(PID.TID 0000.0001) // =======================================================
(PID.TID 0000.0001) // Begin MONITOR dynamic field statistics
(PID.TID 0000.0001) // =======================================================
(PID.TID 0000.0001) %MON time_tsnumber                =                    84
(PID.TID 0000.0001) %MON time_secondsf                =   7.5600000000000E+04
(PID.TID 0000.0001) %MON dynstat_eta_max              =   1.5590809824812E+00
(PID.TID 0000.0001) %MON dynstat_eta_min              =  -7.1053222695345E-01
(PID.TID 0000.0001) %MON dynstat_eta_mean             =   4.4920138416345E-02
(PID.TID 0000.0001) %MON dynstat_eta_sd               =   7.1684405424939E-02
(PID.TID 0000.0001) %MON dynstat_eta_del2             =   1.1484634754389E-03
(PID.TID 0000.0001) %MON dynstat_uvel_max             =   3.6144905090552E-01
(PID.TID 0000.0001) %MON dynstat_uvel_min             =  -5.7771761594958E-01
(PID.TID 0000.0001) %MON dynstat_uvel_mean            =  -1.1541705025921E-04
(PID.TID 0000.0001) %MON dynstat_uvel_sd              =   6.7763138013545E-03
(PID.TID 0000.0001) %MON dynstat_uvel_del2            =   9.1022053505880E-05
(PID.TID 0000.0001) %MON dynstat_vvel_max             =   3.5997577997150E-01
(PID.TID 0000.0001) %MON dynstat_vvel_min             =  -4.5486297505587E-01
(PID.TID 0000.0001) %MON dynstat_vvel_mean            =   5.0219462267584E-04
(PID.TID 0000.0001) %MON dynstat_vvel_sd              =   7.1237582983976E-03
(PID.TID 0000.0001) %MON dynstat_vvel_del2            =   9.9072879144319E-05
(PID.TID 0000.0001) %MON dynstat_wvel_max             =   1.4573216900899E-04
(PID.TID 0000.0001) %MON dynstat_wvel_min             =  -1.2291854383879E-04
(PID.TID 0000.0001) %MON dynstat_wvel_mean            =  -1.0924280594337E-07
(PID.TID 0000.0001) %MON dynstat_wvel_sd              =   6.2373743763734E-06
(PID.TID 0000.0001) %MON dynstat_wvel_del2            =   6.8702602486447E-08
(PID.TID 0000.0001) %MON dynstat_theta_max            =   2.3901396594092E+01
(PID.TID 0000.0001) %MON dynstat_theta_min            =   1.6047710353274E+01
(PID.TID 0000.0001) %MON dynstat_theta_mean           =   1.9997924867185E+01
(PID.TID 0000.0001) %MON dynstat_theta_sd             =   3.3068936126498E-02
(PID.TID 0000.0001) %MON dynstat_theta_del2           =   5.6652824427331E-04
(PID.TID 0000.0001) %MON dynstat_salt_max             =   3.5150723750777E+01
(PID.TID 0000.0001) %MON dynstat_salt_min             =   2.3233950465718E+01
(PID.TID 0000.0001) %MON dynstat_salt_mean            =   3.4999574058349E+01
(PID.TID 0000.0001) %MON dynstat_salt_sd              =   4.1791265468736E-02
(PID.TID 0000.0001) %MON dynstat_salt_del2            =   1.4315861765981E-03
(PID.TID 0000.0001) %MON dynstat_sst_max              =   2.3901396594092E+01
(PID.TID 0000.0001) %MON dynstat_sst_min              =   1.6047710353274E+01
(PID.TID 0000.0001) %MON dynstat_sst_mean             =   2.0163697486405E+01
(PID.TID 0000.0001) %MON dynstat_sst_sd               =   3.0979292468330E-01
(PID.TID 0000.0001) %MON dynstat_sst_del2             =   6.7116572729230E-03
(PID.TID 0000.0001) %MON dynstat_sss_max              =   3.5150723750777E+01
(PID.TID 0000.0001) %MON dynstat_sss_min              =   2.3233950465718E+01
(PID.TID 0000.0001) %MON dynstat_sss_mean             =   3.4961016067201E+01
(PID.TID 0000.0001) %MON dynstat_sss_sd               =   5.0388830395288E-01
(PID.TID 0000.0001) %MON dynstat_sss_del2             =   1.9373119081720E-02
(PID.TID 0000.0001) %MON forcing_qnet_max             =   2.7275119520869E+03
(PID.TID 0000.0001) %MON forcing_qnet_min             =  -2.5336994628906E+03
(PID.TID 0000.0001) %MON forcing_qnet_mean            =  -1.9653498851074E+01
(PID.TID 0000.0001) %MON forcing_qnet_sd              =   4.3938226399546E+02
(PID.TID 0000.0001) %MON forcing_qnet_del2            =   5.0527947307040E+00
(PID.TID 0000.0001) %MON forcing_qsw_max              =   0.0000000000000E+00
(PID.TID 0000.0001) %MON forcing_qsw_min              =  -1.0730345900176E+02
(PID.TID 0000.0001) %MON forcing_qsw_mean             =  -1.9442472087474E+01
(PID.TID 0000.0001) %MON forcing_qsw_sd               =   2.8125570152699E+01
(PID.TID 0000.0001) %MON forcing_qsw_del2             =   2.3733674593719E-01
(PID.TID 0000.0001) %MON forcing_empmr_max            =   4.6969088725746E-03
(PID.TID 0000.0001) %MON forcing_empmr_min            =  -6.7500308156013E-02
(PID.TID 0000.0001) %MON forcing_empmr_mean           =  -3.4872139076002E-04
(PID.TID 0000.0001) %MON forcing_empmr_sd             =   3.0135091715558E-03
(PID.TID 0000.0001) %MON forcing_empmr_del2           =   1.1735503388715E-04
(PID.TID 0000.0001) %MON forcing_fu_max               =   5.1243189906790E-01
(PID.TID 0000.0001) %MON forcing_fu_min               =  -6.0134994193042E-01
(PID.TID 0000.0001) %MON forcing_fu_mean              =  -1.1758366680809E-03
(PID.TID 0000.0001) %MON forcing_fu_sd                =   8.0357231450022E-02
(PID.TID 0000.0001) %MON forcing_fu_del2              =   6.8349236935983E-04
(PID.TID 0000.0001) %MON forcing_fv_max               =   3.5395502447255E-01
(PID.TID 0000.0001) %MON forcing_fv_min               =  -3.2267563768107E-01
(PID.TID 0000.0001) %MON forcing_fv_mean              =  -7.0504764018160E-03
(PID.TID 0000.0001) %MON forcing_fv_sd                =   7.1386363682612E-02
(PID.TID 0000.0001) %MON forcing_fv_del2              =   5.7410663212733E-04
(PID.TID 0000.0001) %MON trAdv_CFL_u_max              =   1.6725345246538E-03
(PID.TID 0000.0001) %MON trAdv_CFL_v_max              =   1.5210993082781E-03
(PID.TID 0000.0001) %MON trAdv_CFL_w_max              =   2.1755946147972E-03
(PID.TID 0000.0001) %MON advcfl_uvel_max              =   1.6666229102172E-03
(PID.TID 0000.0001) %MON advcfl_vvel_max              =   1.4843838080860E-03
(PID.TID 0000.0001) %MON advcfl_wvel_max              =   4.6956736108531E-03
(PID.TID 0000.0001) %MON advcfl_W_hf_max              =   2.4208666388241E-03
(PID.TID 0000.0001) %MON pe_b_mean                    =   9.5336287528410E-06
(PID.TID 0000.0001) %MON ke_max                       =   1.0905541828019E-01
(PID.TID 0000.0001) %MON ke_mean                      =   4.4764906492574E-05
(PID.TID 0000.0001) %MON ke_vol                       =   1.3398186808618E+18
(PID.TID 0000.0001) %MON vort_r_min                   =  -2.5765268951392E-06
(PID.TID 0000.0001) %MON vort_r_max                   =   2.5718346872696E-06
(PID.TID 0000.0001) %MON vort_a_mean                  =  -2.0549865324846E-05
(PID.TID 0000.0001) %MON vort_a_sd                    =   7.5259410944168E-05
(PID.TID 0000.0001) %MON vort_p_mean                  =  -2.4783219518348E-05
(PID.TID 0000.0001) %MON vort_p_sd                    =   1.2810505053334E-04
(PID.TID 0000.0001) %MON surfExpan_theta_mean         =  -5.3049312106273E-07
(PID.TID 0000.0001) %MON surfExpan_salt_mean          =   1.4470576548645E-06
(PID.TID 0000.0001) // =======================================================
(PID.TID 0000.0001) // End MONITOR dynamic field statistics
(PID.TID 0000.0001) // =======================================================
(PID.TID 0000.0001) DEBUG_MSG: LEAVING S/R FORWARD_STEP
(PID.TID 0000.0001) DEBUG_MSG: ENTERED S/R FORWARD_STEP
(PID.TID 0000.0001) DEBUG_MSG: CALLING S/R LOAD_FIELDS_DRIVER
(PID.TID 0000.0001) DEBUG_MSG: ENTERED S/R LOAD_FIELDS_DRIVER
(PID.TID 0000.0001) DEBUG_MSG: CALLING S/R EXTERNAL_FIELDS_LOAD
(PID.TID 0000.0001) DEBUG_MSG: LEAVING S/R LOAD_FIELDS_DRIVER
(PID.TID 0000.0001) DEBUG_MSG: CALLING S/R DO_ATMOSPHERIC_PHYS
(PID.TID 0000.0001) DEBUG_MSG: ENTERED S/R DO_ATMOSPHERIC_PHYS
(PID.TID 0000.0001) DEBUG_MSG: LEAVING S/R DO_ATMOSPHERIC_PHYS
(PID.TID 0000.0001) DEBUG_MSG: CALLING S/R DO_OCEANIC_PHYS
(PID.TID 0000.0001) DEBUG_MSG: ENTERED S/R DO_OCEANIC_PHYS
(PID.TID 0000.0001) DEBUG_MSG: CALLING S/R EXTERNAL_FORCING_SURF
(PID.TID 0000.0001) DEBUG_MSG: CALLING S/R FIND_RHO_2D (xNr)
(PID.TID 0000.0001) DEBUG_MSG:                  ENTERING UPWARD K LOOP (bi=   1, bj=   1)
(PID.TID 0000.0001) DEBUG_MSG: CALLING S/R GRAD_SIGMA
(PID.TID 0000.0001) DEBUG_MSG: CALLING S/R CALC_IVDC
(PID.TID 0000.0001) DEBUG_MSG: CALLING S/R GRAD_SIGMA
(PID.TID 0000.0001) DEBUG_MSG: CALLING S/R CALC_IVDC
(PID.TID 0000.0001) DEBUG_MSG: CALLING S/R GRAD_SIGMA
(PID.TID 0000.0001) DEBUG_MSG: CALLING S/R CALC_IVDC
(PID.TID 0000.0001) DEBUG_MSG: CALLING S/R GRAD_SIGMA
(PID.TID 0000.0001) DEBUG_MSG: CALLING S/R CALC_IVDC
(PID.TID 0000.0001) DEBUG_MSG: CALLING S/R GRAD_SIGMA
(PID.TID 0000.0001) DEBUG_MSG: CALLING S/R CALC_IVDC
(PID.TID 0000.0001) DEBUG_MSG: CALLING S/R GRAD_SIGMA
(PID.TID 0000.0001) DEBUG_MSG: CALLING S/R CALC_IVDC
(PID.TID 0000.0001) DEBUG_MSG: CALLING S/R GRAD_SIGMA
(PID.TID 0000.0001) DEBUG_MSG: CALLING S/R CALC_IVDC
(PID.TID 0000.0001) DEBUG_MSG: CALLING S/R GRAD_SIGMA
(PID.TID 0000.0001) DEBUG_MSG: CALLING S/R CALC_IVDC
(PID.TID 0000.0001) DEBUG_MSG: CALLING S/R GRAD_SIGMA
(PID.TID 0000.0001) DEBUG_MSG: CALLING S/R CALC_IVDC
(PID.TID 0000.0001) DEBUG_MSG: CALLING S/R GRAD_SIGMA
(PID.TID 0000.0001) DEBUG_MSG: CALLING S/R CALC_IVDC
(PID.TID 0000.0001) DEBUG_MSG: CALLING S/R GRAD_SIGMA
(PID.TID 0000.0001) DEBUG_MSG: CALLING S/R CALC_IVDC
(PID.TID 0000.0001) DEBUG_MSG: CALLING S/R GRAD_SIGMA
(PID.TID 0000.0001) DEBUG_MSG: CALLING S/R CALC_IVDC
(PID.TID 0000.0001) DEBUG_MSG: CALLING S/R GRAD_SIGMA
(PID.TID 0000.0001) DEBUG_MSG: CALLING S/R CALC_IVDC
(PID.TID 0000.0001) DEBUG_MSG: CALLING S/R GRAD_SIGMA
(PID.TID 0000.0001) DEBUG_MSG: CALLING S/R CALC_IVDC
(PID.TID 0000.0001) DEBUG_MSG: CALLING S/R GRAD_SIGMA
(PID.TID 0000.0001) DEBUG_MSG: CALLING S/R CALC_IVDC
(PID.TID 0000.0001) DEBUG_MSG: CALLING S/R GRAD_SIGMA
(PID.TID 0000.0001) DEBUG_MSG: CALLING S/R GMREDI_CALC_TENSOR
(PID.TID 0000.0001) DEBUG_MSG: LEAVING S/R DO_OCEANIC_PHYS
(PID.TID 0000.0001) DEBUG_MSG: CALLING S/R DYNAMICS
(PID.TID 0000.0001) DEBUG_MSG: ENTERED S/R DYNAMICS
DEBUG_STATS_RL:                EtaN (DYNAMICS)  min= -7.10532226953450E-01
DEBUG_STATS_RL:                EtaN (DYNAMICS)  max=  1.55908098248123E+00
DEBUG_STATS_RL:                EtaN (DYNAMICS) mean=  4.53366776759522E-02
DEBUG_STATS_RL:                EtaN (DYNAMICS) S.D.=  7.52460215606787E-02
DEBUG_STATS_RL:                Uvel (DYNAMICS)  min= -5.77717615949581E-01
DEBUG_STATS_RL:                Uvel (DYNAMICS)  max=  3.61449050905515E-01
DEBUG_STATS_RL:                Uvel (DYNAMICS) mean= -6.80400139459160E-04
DEBUG_STATS_RL:                Uvel (DYNAMICS) S.D.=  2.05766821386285E-02
DEBUG_STATS_RL:                Vvel (DYNAMICS)  min= -4.54862975055867E-01
DEBUG_STATS_RL:                Vvel (DYNAMICS)  max=  3.59975779971501E-01
DEBUG_STATS_RL:                Vvel (DYNAMICS) mean= -6.98539291129038E-04
DEBUG_STATS_RL:                Vvel (DYNAMICS) S.D.=  2.14514405342207E-02
DEBUG_STATS_RL:                Wvel (DYNAMICS)  min= -1.22918543838790E-04
DEBUG_STATS_RL:                Wvel (DYNAMICS)  max=  1.45732169008990E-04
DEBUG_STATS_RL:                Wvel (DYNAMICS) mean= -2.52468181339854E-07
DEBUG_STATS_RL:                Wvel (DYNAMICS) S.D.=  6.49888719507360E-06
DEBUG_STATS_RL:               Theta (DYNAMICS)  min=  1.60477103532739E+01
DEBUG_STATS_RL:               Theta (DYNAMICS)  max=  2.39013965940922E+01
DEBUG_STATS_RL:               Theta (DYNAMICS) mean=  2.00046589065754E+01
DEBUG_STATS_RL:               Theta (DYNAMICS) S.D.=  1.00511583479053E-01
DEBUG_STATS_RL:                Salt (DYNAMICS)  min=  2.32339504657185E+01
DEBUG_STATS_RL:                Salt (DYNAMICS)  max=  3.51507237507771E+01
DEBUG_STATS_RL:                Salt (DYNAMICS) mean=  3.49967203321656E+01
DEBUG_STATS_RL:                Salt (DYNAMICS) S.D.=  1.35425998347197E-01
DEBUG_STATS_RL:                  Gu (DYNAMICS)  min= -5.73079122183826E-01
DEBUG_STATS_RL:                  Gu (DYNAMICS)  max=  3.62241464255298E-01
DEBUG_STATS_RL:                  Gu (DYNAMICS) mean= -6.96580654801853E-04
DEBUG_STATS_RL:                  Gu (DYNAMICS) S.D.=  2.05571956162428E-02
DEBUG_STATS_RL:                  Gv (DYNAMICS)  min= -4.38508002966247E-01
DEBUG_STATS_RL:                  Gv (DYNAMICS)  max=  3.51465413902621E-01
DEBUG_STATS_RL:                  Gv (DYNAMICS) mean= -6.83470706269691E-04
DEBUG_STATS_RL:                  Gv (DYNAMICS) S.D.=  2.16458625422178E-02
DEBUG_STATS_RL:               GuNm1 (DYNAMICS)  min= -2.53502838451389E-05
DEBUG_STATS_RL:               GuNm1 (DYNAMICS)  max=  1.70459425857276E-05
DEBUG_STATS_RL:               GuNm1 (DYNAMICS) mean= -1.84605480738299E-08
DEBUG_STATS_RL:               GuNm1 (DYNAMICS) S.D.=  1.10843532506652E-06
DEBUG_STATS_RL:               GvNm1 (DYNAMICS)  min= -2.18037354758038E-05
DEBUG_STATS_RL:               GvNm1 (DYNAMICS)  max=  3.09032128995975E-05
DEBUG_STATS_RL:               GvNm1 (DYNAMICS) mean=  1.38717542065245E-08
DEBUG_STATS_RL:               GvNm1 (DYNAMICS) S.D.=  1.20333931733590E-06
DEBUG_STATS_RL:               GtNm1 (DYNAMICS)  min= -3.11949304704080E-06
DEBUG_STATS_RL:               GtNm1 (DYNAMICS)  max=  5.64876226613958E-06
DEBUG_STATS_RL:               GtNm1 (DYNAMICS) mean=  1.37264691950106E-09
DEBUG_STATS_RL:               GtNm1 (DYNAMICS) S.D.=  7.02693832379885E-08
DEBUG_STATS_RL:               GsNm1 (DYNAMICS)  min= -1.43376664039847E-05
DEBUG_STATS_RL:               GsNm1 (DYNAMICS)  max=  2.47320625344801E-06
DEBUG_STATS_RL:               GsNm1 (DYNAMICS) mean= -4.15660188140384E-09
DEBUG_STATS_RL:               GsNm1 (DYNAMICS) S.D.=  1.62070504058581E-07
(PID.TID 0000.0001) DEBUG_MSG: LEAVING S/R DYNAMICS
DEBUG_STATS_RL:    cg2d_b (SOLVE_FOR_PRESSURE)  min= -1.80305210910090E+05
DEBUG_STATS_RL:    cg2d_b (SOLVE_FOR_PRESSURE)  max=  7.96215636159504E+04
DEBUG_STATS_RL:    cg2d_b (SOLVE_FOR_PRESSURE) mean= -4.59619932038633E+03
DEBUG_STATS_RL:    cg2d_b (SOLVE_FOR_PRESSURE) S.D.=  7.43556581644647E+03
 cg2d: Sum(rhs),rhsMax =  -1.12671180680617E+02  3.45402834027086E+01
(PID.TID 0000.0001)  cg2d: iter=     1 ; resid.=  2.73857075890801E-02
(PID.TID 0000.0001)  cg2d: iter=     2 ; resid.=  3.41384589296140E-03
(PID.TID 0000.0001)  cg2d: iter=     3 ; resid.=  8.05477749933297E-04
(PID.TID 0000.0001)  cg2d: iter=     4 ; resid.=  2.43130701262097E-04
(PID.TID 0000.0001)  cg2d: iter=     5 ; resid.=  7.60037576329431E-05
(PID.TID 0000.0001)  cg2d: iter=     6 ; resid.=  1.62820675236410E-05
(PID.TID 0000.0001)  cg2d: iter=     7 ; resid.=  3.28800205394444E-06
(PID.TID 0000.0001)  cg2d: iter=     8 ; resid.=  8.91833233384206E-07
(PID.TID 0000.0001)  cg2d: iter=     9 ; resid.=  2.67352399703174E-07
(PID.TID 0000.0001)  cg2d: iter=    10 ; resid.=  7.33493587817665E-08
DEBUG_STATS_RL:    cg2d_x (SOLVE_FOR_PRESSURE)  min= -6.62816367443400E+00
DEBUG_STATS_RL:    cg2d_x (SOLVE_FOR_PRESSURE)  max=  1.47661834241263E+01
DEBUG_STATS_RL:    cg2d_x (SOLVE_FOR_PRESSURE) mean=  4.47097435547393E-01
DEBUG_STATS_RL:    cg2d_x (SOLVE_FOR_PRESSURE) S.D.=  7.30670217698992E-01
(PID.TID 0000.0001)      cg2d_init_res =   2.12719434974645E-01
(PID.TID 0000.0001)      cg2d_iters(min,last) =      -1      10
(PID.TID 0000.0001)      cg2d_last_res =   7.33493587817665E-08
(PID.TID 0000.0001) DEBUG_MSG: CALLING S/R UPDATE_ETAH
(PID.TID 0000.0001) DEBUG_MSG: ENTERED S/R CALC_R_STAR
(PID.TID 0000.0001) DEBUG_MSG: LEAVING S/R CALC_R_STAR
(PID.TID 0000.0001) DEBUG_MSG: CALLING S/R DO_STAGGER_FIELDS_EXCH.
(PID.TID 0000.0001) DEBUG_MSG: CALLING S/R THERMODYNAMICS
(PID.TID 0000.0001) DEBUG_MSG: ENTERED S/R THERMODYNAMICS
(PID.TID 0000.0001) DEBUG_MSG: CALLING S/R TEMP_INTEGRATE
(PID.TID 0000.0001) DEBUG_MSG: CALLING S/R SALT_INTEGRATE
DEBUG_STATS_RL:          Uvel (THERMODYNAMICS)  min= -5.79655620027878E-01
DEBUG_STATS_RL:          Uvel (THERMODYNAMICS)  max=  3.56993579167847E-01
DEBUG_STATS_RL:          Uvel (THERMODYNAMICS) mean= -7.08517832790261E-04
DEBUG_STATS_RL:          Uvel (THERMODYNAMICS) S.D.=  2.05824904801479E-02
DEBUG_STATS_RL:          Vvel (THERMODYNAMICS)  min= -4.49114959510985E-01
DEBUG_STATS_RL:          Vvel (THERMODYNAMICS)  max=  3.69259136919302E-01
DEBUG_STATS_RL:          Vvel (THERMODYNAMICS) mean= -6.86261681700071E-04
DEBUG_STATS_RL:          Vvel (THERMODYNAMICS) S.D.=  2.17076539359972E-02
DEBUG_STATS_RL:          Wvel (THERMODYNAMICS)  min= -1.17946031403635E-04
DEBUG_STATS_RL:          Wvel (THERMODYNAMICS)  max=  1.44022881006437E-04
DEBUG_STATS_RL:          Wvel (THERMODYNAMICS) mean= -2.50763007289979E-07
DEBUG_STATS_RL:          Wvel (THERMODYNAMICS) S.D.=  6.44978173472687E-06
DEBUG_STATS_RL:         Theta (THERMODYNAMICS)  min=  1.60486499665648E+01
DEBUG_STATS_RL:         Theta (THERMODYNAMICS)  max=  2.39268365096090E+01
DEBUG_STATS_RL:         Theta (THERMODYNAMICS) mean=  2.00047540071205E+01
DEBUG_STATS_RL:         Theta (THERMODYNAMICS) S.D.=  1.01029256499186E-01
DEBUG_STATS_RL:          Salt (THERMODYNAMICS)  min=  2.31914439476447E+01
DEBUG_STATS_RL:          Salt (THERMODYNAMICS)  max=  3.51507244796933E+01
DEBUG_STATS_RL:          Salt (THERMODYNAMICS) mean=  3.49967018075313E+01
DEBUG_STATS_RL:          Salt (THERMODYNAMICS) S.D.=  1.35955084621163E-01
DEBUG_STATS_RL:         GtNm1 (THERMODYNAMICS)  min= -3.10396646936414E-06
DEBUG_STATS_RL:         GtNm1 (THERMODYNAMICS)  max=  5.64299700523081E-06
DEBUG_STATS_RL:         GtNm1 (THERMODYNAMICS) mean=  1.35923013961832E-09
DEBUG_STATS_RL:         GtNm1 (THERMODYNAMICS) S.D.=  7.04662852337730E-08
DEBUG_STATS_RL:         GsNm1 (THERMODYNAMICS)  min= -1.42470122965362E-05
DEBUG_STATS_RL:         GsNm1 (THERMODYNAMICS)  max=  2.48951915904247E-06
DEBUG_STATS_RL:         GsNm1 (THERMODYNAMICS) mean= -4.12490626834172E-09
DEBUG_STATS_RL:         GsNm1 (THERMODYNAMICS) S.D.=  1.60618892008128E-07
(PID.TID 0000.0001) DEBUG_MSG: LEAVING S/R THERMODYNAMICS
(PID.TID 0000.0001) // =======================================================
(PID.TID 0000.0001) // Begin MONITOR dynamic field statistics
(PID.TID 0000.0001) // =======================================================
(PID.TID 0000.0001) %MON time_tsnumber                =                    85
(PID.TID 0000.0001) %MON time_secondsf                =   7.6500000000000E+04
(PID.TID 0000.0001) %MON dynstat_eta_max              =   1.5052174728509E+00
(PID.TID 0000.0001) %MON dynstat_eta_min              =  -6.7565378738505E-01
(PID.TID 0000.0001) %MON dynstat_eta_mean             =   4.5220974305166E-02
(PID.TID 0000.0001) %MON dynstat_eta_sd               =   7.0892667471284E-02
(PID.TID 0000.0001) %MON dynstat_eta_del2             =   1.1022280018433E-03
(PID.TID 0000.0001) %MON dynstat_uvel_max             =   3.5699357916785E-01
(PID.TID 0000.0001) %MON dynstat_uvel_min             =  -5.7965562002788E-01
(PID.TID 0000.0001) %MON dynstat_uvel_mean            =  -1.2444084726343E-04
(PID.TID 0000.0001) %MON dynstat_uvel_sd              =   6.7673268380911E-03
(PID.TID 0000.0001) %MON dynstat_uvel_del2            =   9.1273841870071E-05
(PID.TID 0000.0001) %MON dynstat_vvel_max             =   3.6925913691930E-01
(PID.TID 0000.0001) %MON dynstat_vvel_min             =  -4.4911495951099E-01
(PID.TID 0000.0001) %MON dynstat_vvel_mean            =   4.8136470694525E-04
(PID.TID 0000.0001) %MON dynstat_vvel_sd              =   7.1950256021540E-03
(PID.TID 0000.0001) %MON dynstat_vvel_del2            =   9.8957256831165E-05
(PID.TID 0000.0001) %MON dynstat_wvel_max             =   1.4402288100644E-04
(PID.TID 0000.0001) %MON dynstat_wvel_min             =  -1.1794603140363E-04
(PID.TID 0000.0001) %MON dynstat_wvel_mean            =  -1.0404972087257E-07
(PID.TID 0000.0001) %MON dynstat_wvel_sd              =   6.1884195774580E-06
(PID.TID 0000.0001) %MON dynstat_wvel_del2            =   6.8264814729651E-08
(PID.TID 0000.0001) %MON dynstat_theta_max            =   2.3926836509609E+01
(PID.TID 0000.0001) %MON dynstat_theta_min            =   1.6048649966565E+01
(PID.TID 0000.0001) %MON dynstat_theta_mean           =   1.9997926171729E+01
(PID.TID 0000.0001) %MON dynstat_theta_sd             =   3.3234245047703E-02
(PID.TID 0000.0001) %MON dynstat_theta_del2           =   5.6857164403038E-04
(PID.TID 0000.0001) %MON dynstat_salt_max             =   3.5150724479693E+01
(PID.TID 0000.0001) %MON dynstat_salt_min             =   2.3191443947645E+01
(PID.TID 0000.0001) %MON dynstat_salt_mean            =   3.4999571575099E+01
(PID.TID 0000.0001) %MON dynstat_salt_sd              =   4.1954064058617E-02
(PID.TID 0000.0001) %MON dynstat_salt_del2            =   1.4365171728004E-03
(PID.TID 0000.0001) %MON dynstat_sst_max              =   2.3926836509609E+01
(PID.TID 0000.0001) %MON dynstat_sst_min              =   1.6048649966565E+01
(PID.TID 0000.0001) %MON dynstat_sst_mean             =   2.0165105774039E+01
(PID.TID 0000.0001) %MON dynstat_sst_sd               =   3.1140427560719E-01
(PID.TID 0000.0001) %MON dynstat_sst_del2             =   6.7422590077600E-03
(PID.TID 0000.0001) %MON dynstat_sss_max              =   3.5150724479693E+01
(PID.TID 0000.0001) %MON dynstat_sss_min              =   2.3191443947645E+01
(PID.TID 0000.0001) %MON dynstat_sss_mean             =   3.4960794851405E+01
(PID.TID 0000.0001) %MON dynstat_sss_sd               =   5.0584829577366E-01
(PID.TID 0000.0001) %MON dynstat_sss_del2             =   1.9439658607714E-02
(PID.TID 0000.0001) %MON forcing_qnet_max             =   2.8469879348689E+03
(PID.TID 0000.0001) %MON forcing_qnet_min             =  -2.4982868652344E+03
(PID.TID 0000.0001) %MON forcing_qnet_mean            =  -2.0608476011663E+01
(PID.TID 0000.0001) %MON forcing_qnet_sd              =   4.3790079527846E+02
(PID.TID 0000.0001) %MON forcing_qnet_del2            =   5.0871412068868E+00
(PID.TID 0000.0001) %MON forcing_qsw_max              =   0.0000000000000E+00
(PID.TID 0000.0001) %MON forcing_qsw_min              =  -1.0548106382565E+02
(PID.TID 0000.0001) %MON forcing_qsw_mean             =  -1.9736144496406E+01
(PID.TID 0000.0001) %MON forcing_qsw_sd               =   2.8460545695010E+01
(PID.TID 0000.0001) %MON forcing_qsw_del2             =   2.3583557280538E-01
(PID.TID 0000.0001) %MON forcing_empmr_max            =   4.6485923230648E-03
(PID.TID 0000.0001) %MON forcing_empmr_min            =  -6.6804707050323E-02
(PID.TID 0000.0001) %MON forcing_empmr_mean           =  -3.4596127214457E-04
(PID.TID 0000.0001) %MON forcing_empmr_sd             =   2.9836942228675E-03
(PID.TID 0000.0001) %MON forcing_empmr_del2           =   1.1615890450391E-04
(PID.TID 0000.0001) %MON forcing_fu_max               =   5.0538642457064E-01
(PID.TID 0000.0001) %MON forcing_fu_min               =  -5.9968774364187E-01
(PID.TID 0000.0001) %MON forcing_fu_mean              =  -1.2637417918570E-03
(PID.TID 0000.0001) %MON forcing_fu_sd                =   7.9905469166482E-02
(PID.TID 0000.0001) %MON forcing_fu_del2              =   6.8033079028644E-04
(PID.TID 0000.0001) %MON forcing_fv_max               =   3.5007120624927E-01
(PID.TID 0000.0001) %MON forcing_fv_min               =  -3.1909015682083E-01
(PID.TID 0000.0001) %MON forcing_fv_mean              =  -7.0071346387397E-03
(PID.TID 0000.0001) %MON forcing_fv_sd                =   7.1371087630616E-02
(PID.TID 0000.0001) %MON forcing_fv_del2              =   5.7207518884955E-04
(PID.TID 0000.0001) %MON trAdv_CFL_u_max              =   1.6793085501234E-03
(PID.TID 0000.0001) %MON trAdv_CFL_v_max              =   1.5218322228873E-03
(PID.TID 0000.0001) %MON trAdv_CFL_w_max              =   2.1696862424910E-03
(PID.TID 0000.0001) %MON advcfl_uvel_max              =   1.6722137419796E-03
(PID.TID 0000.0001) %MON advcfl_vvel_max              =   1.4656259366580E-03
(PID.TID 0000.0001) %MON advcfl_wvel_max              =   4.6472839687182E-03
(PID.TID 0000.0001) %MON advcfl_W_hf_max              =   2.3161950212678E-03
(PID.TID 0000.0001) %MON pe_b_mean                    =   9.4193732028278E-06
(PID.TID 0000.0001) %MON ke_max                       =   1.1321297963281E-01
(PID.TID 0000.0001) %MON ke_mean                      =   4.5173937140916E-05
(PID.TID 0000.0001) %MON ke_vol                       =   1.3398187912054E+18
(PID.TID 0000.0001) %MON vort_r_min                   =  -2.5825806693303E-06
(PID.TID 0000.0001) %MON vort_r_max                   =   2.5838505841623E-06
(PID.TID 0000.0001) %MON vort_a_mean                  =  -2.0549865324846E-05
(PID.TID 0000.0001) %MON vort_a_sd                    =   7.5259408383695E-05
(PID.TID 0000.0001) %MON vort_p_mean                  =  -2.4783217498209E-05
(PID.TID 0000.0001) %MON vort_p_sd                    =   1.2810504893508E-04
(PID.TID 0000.0001) %MON surfExpan_theta_mean         =  -5.2335278595584E-07
(PID.TID 0000.0001) %MON surfExpan_salt_mean          =   1.4343508939469E-06
(PID.TID 0000.0001) // =======================================================
(PID.TID 0000.0001) // End MONITOR dynamic field statistics
(PID.TID 0000.0001) // =======================================================
(PID.TID 0000.0001) DEBUG_MSG: LEAVING S/R FORWARD_STEP
(PID.TID 0000.0001) DEBUG_MSG: ENTERED S/R FORWARD_STEP
(PID.TID 0000.0001) DEBUG_MSG: CALLING S/R LOAD_FIELDS_DRIVER
(PID.TID 0000.0001) DEBUG_MSG: ENTERED S/R LOAD_FIELDS_DRIVER
(PID.TID 0000.0001) DEBUG_MSG: CALLING S/R EXTERNAL_FIELDS_LOAD
(PID.TID 0000.0001) DEBUG_MSG: LEAVING S/R LOAD_FIELDS_DRIVER
(PID.TID 0000.0001) DEBUG_MSG: CALLING S/R DO_ATMOSPHERIC_PHYS
(PID.TID 0000.0001) DEBUG_MSG: ENTERED S/R DO_ATMOSPHERIC_PHYS
(PID.TID 0000.0001) DEBUG_MSG: LEAVING S/R DO_ATMOSPHERIC_PHYS
(PID.TID 0000.0001) DEBUG_MSG: CALLING S/R DO_OCEANIC_PHYS
(PID.TID 0000.0001) DEBUG_MSG: ENTERED S/R DO_OCEANIC_PHYS
(PID.TID 0000.0001) DEBUG_MSG: CALLING S/R EXTERNAL_FORCING_SURF
(PID.TID 0000.0001) DEBUG_MSG: CALLING S/R FIND_RHO_2D (xNr)
(PID.TID 0000.0001) DEBUG_MSG:                  ENTERING UPWARD K LOOP (bi=   1, bj=   1)
(PID.TID 0000.0001) DEBUG_MSG: CALLING S/R GRAD_SIGMA
(PID.TID 0000.0001) DEBUG_MSG: CALLING S/R CALC_IVDC
(PID.TID 0000.0001) DEBUG_MSG: CALLING S/R GRAD_SIGMA
(PID.TID 0000.0001) DEBUG_MSG: CALLING S/R CALC_IVDC
(PID.TID 0000.0001) DEBUG_MSG: CALLING S/R GRAD_SIGMA
(PID.TID 0000.0001) DEBUG_MSG: CALLING S/R CALC_IVDC
(PID.TID 0000.0001) DEBUG_MSG: CALLING S/R GRAD_SIGMA
(PID.TID 0000.0001) DEBUG_MSG: CALLING S/R CALC_IVDC
(PID.TID 0000.0001) DEBUG_MSG: CALLING S/R GRAD_SIGMA
(PID.TID 0000.0001) DEBUG_MSG: CALLING S/R CALC_IVDC
(PID.TID 0000.0001) DEBUG_MSG: CALLING S/R GRAD_SIGMA
(PID.TID 0000.0001) DEBUG_MSG: CALLING S/R CALC_IVDC
(PID.TID 0000.0001) DEBUG_MSG: CALLING S/R GRAD_SIGMA
(PID.TID 0000.0001) DEBUG_MSG: CALLING S/R CALC_IVDC
(PID.TID 0000.0001) DEBUG_MSG: CALLING S/R GRAD_SIGMA
(PID.TID 0000.0001) DEBUG_MSG: CALLING S/R CALC_IVDC
(PID.TID 0000.0001) DEBUG_MSG: CALLING S/R GRAD_SIGMA
(PID.TID 0000.0001) DEBUG_MSG: CALLING S/R CALC_IVDC
(PID.TID 0000.0001) DEBUG_MSG: CALLING S/R GRAD_SIGMA
(PID.TID 0000.0001) DEBUG_MSG: CALLING S/R CALC_IVDC
(PID.TID 0000.0001) DEBUG_MSG: CALLING S/R GRAD_SIGMA
(PID.TID 0000.0001) DEBUG_MSG: CALLING S/R CALC_IVDC
(PID.TID 0000.0001) DEBUG_MSG: CALLING S/R GRAD_SIGMA
(PID.TID 0000.0001) DEBUG_MSG: CALLING S/R CALC_IVDC
(PID.TID 0000.0001) DEBUG_MSG: CALLING S/R GRAD_SIGMA
(PID.TID 0000.0001) DEBUG_MSG: CALLING S/R CALC_IVDC
(PID.TID 0000.0001) DEBUG_MSG: CALLING S/R GRAD_SIGMA
(PID.TID 0000.0001) DEBUG_MSG: CALLING S/R CALC_IVDC
(PID.TID 0000.0001) DEBUG_MSG: CALLING S/R GRAD_SIGMA
(PID.TID 0000.0001) DEBUG_MSG: CALLING S/R CALC_IVDC
(PID.TID 0000.0001) DEBUG_MSG: CALLING S/R GRAD_SIGMA
(PID.TID 0000.0001) DEBUG_MSG: CALLING S/R GMREDI_CALC_TENSOR
(PID.TID 0000.0001) DEBUG_MSG: LEAVING S/R DO_OCEANIC_PHYS
(PID.TID 0000.0001) DEBUG_MSG: CALLING S/R DYNAMICS
(PID.TID 0000.0001) DEBUG_MSG: ENTERED S/R DYNAMICS
DEBUG_STATS_RL:                EtaN (DYNAMICS)  min= -6.75653787385047E-01
DEBUG_STATS_RL:                EtaN (DYNAMICS)  max=  1.50521747285088E+00
DEBUG_STATS_RL:                EtaN (DYNAMICS) mean=  4.55756817128085E-02
DEBUG_STATS_RL:                EtaN (DYNAMICS) S.D.=  7.44821832798065E-02
DEBUG_STATS_RL:                Uvel (DYNAMICS)  min= -5.79655620027878E-01
DEBUG_STATS_RL:                Uvel (DYNAMICS)  max=  3.56993579167847E-01
DEBUG_STATS_RL:                Uvel (DYNAMICS) mean= -7.08517832790261E-04
DEBUG_STATS_RL:                Uvel (DYNAMICS) S.D.=  2.05824904801479E-02
DEBUG_STATS_RL:                Vvel (DYNAMICS)  min= -4.49114959510985E-01
DEBUG_STATS_RL:                Vvel (DYNAMICS)  max=  3.69259136919302E-01
DEBUG_STATS_RL:                Vvel (DYNAMICS) mean= -6.86261681700071E-04
DEBUG_STATS_RL:                Vvel (DYNAMICS) S.D.=  2.17076539359972E-02
DEBUG_STATS_RL:                Wvel (DYNAMICS)  min= -1.17946031403635E-04
DEBUG_STATS_RL:                Wvel (DYNAMICS)  max=  1.44022881006437E-04
DEBUG_STATS_RL:                Wvel (DYNAMICS) mean= -2.50763007289979E-07
DEBUG_STATS_RL:                Wvel (DYNAMICS) S.D.=  6.44978173472687E-06
DEBUG_STATS_RL:               Theta (DYNAMICS)  min=  1.60486499665648E+01
DEBUG_STATS_RL:               Theta (DYNAMICS)  max=  2.39268365096090E+01
DEBUG_STATS_RL:               Theta (DYNAMICS) mean=  2.00047540071205E+01
DEBUG_STATS_RL:               Theta (DYNAMICS) S.D.=  1.01029256499186E-01
DEBUG_STATS_RL:                Salt (DYNAMICS)  min=  2.31914439476447E+01
DEBUG_STATS_RL:                Salt (DYNAMICS)  max=  3.51507244796933E+01
DEBUG_STATS_RL:                Salt (DYNAMICS) mean=  3.49967018075313E+01
DEBUG_STATS_RL:                Salt (DYNAMICS) S.D.=  1.35955084621163E-01
DEBUG_STATS_RL:                  Gu (DYNAMICS)  min= -5.74910896961520E-01
DEBUG_STATS_RL:                  Gu (DYNAMICS)  max=  3.58059837067056E-01
DEBUG_STATS_RL:                  Gu (DYNAMICS) mean= -7.24420569835079E-04
DEBUG_STATS_RL:                  Gu (DYNAMICS) S.D.=  2.05519515664670E-02
DEBUG_STATS_RL:                  Gv (DYNAMICS)  min= -4.31885255825391E-01
DEBUG_STATS_RL:                  Gv (DYNAMICS)  max=  3.61582663763688E-01
DEBUG_STATS_RL:                  Gv (DYNAMICS) mean= -6.69204226314779E-04
DEBUG_STATS_RL:                  Gv (DYNAMICS) S.D.=  2.18857765317404E-02
DEBUG_STATS_RL:               GuNm1 (DYNAMICS)  min= -2.52986660505701E-05
DEBUG_STATS_RL:               GuNm1 (DYNAMICS)  max=  1.74122755770490E-05
DEBUG_STATS_RL:               GuNm1 (DYNAMICS) mean= -1.81963784177550E-08
DEBUG_STATS_RL:               GuNm1 (DYNAMICS) S.D.=  1.12672156870189E-06
DEBUG_STATS_RL:               GvNm1 (DYNAMICS)  min= -2.12190109021471E-05
DEBUG_STATS_RL:               GvNm1 (DYNAMICS)  max=  3.21180873536934E-05
DEBUG_STATS_RL:               GvNm1 (DYNAMICS) mean=  1.61061365633000E-08
DEBUG_STATS_RL:               GvNm1 (DYNAMICS) S.D.=  1.18237428199726E-06
DEBUG_STATS_RL:               GtNm1 (DYNAMICS)  min= -3.10396646936414E-06
DEBUG_STATS_RL:               GtNm1 (DYNAMICS)  max=  5.64299700523081E-06
DEBUG_STATS_RL:               GtNm1 (DYNAMICS) mean=  1.35923013961832E-09
DEBUG_STATS_RL:               GtNm1 (DYNAMICS) S.D.=  7.04662852337730E-08
DEBUG_STATS_RL:               GsNm1 (DYNAMICS)  min= -1.42470122965362E-05
DEBUG_STATS_RL:               GsNm1 (DYNAMICS)  max=  2.48951915904247E-06
DEBUG_STATS_RL:               GsNm1 (DYNAMICS) mean= -4.12490626834172E-09
DEBUG_STATS_RL:               GsNm1 (DYNAMICS) S.D.=  1.60618892008128E-07
(PID.TID 0000.0001) DEBUG_MSG: LEAVING S/R DYNAMICS
DEBUG_STATS_RL:    cg2d_b (SOLVE_FOR_PRESSURE)  min= -1.73113260139695E+05
DEBUG_STATS_RL:    cg2d_b (SOLVE_FOR_PRESSURE)  max=  7.43309312011071E+04
DEBUG_STATS_RL:    cg2d_b (SOLVE_FOR_PRESSURE) mean= -4.62658570301497E+03
DEBUG_STATS_RL:    cg2d_b (SOLVE_FOR_PRESSURE) S.D.=  7.36559824707531E+03
 cg2d: Sum(rhs),rhsMax =  -1.18127916895704E+02  3.31625527393853E+01
(PID.TID 0000.0001)  cg2d: iter=     1 ; resid.=  2.73855386165317E-02
(PID.TID 0000.0001)  cg2d: iter=     2 ; resid.=  3.37459078851321E-03
(PID.TID 0000.0001)  cg2d: iter=     3 ; resid.=  7.33134600400212E-04
(PID.TID 0000.0001)  cg2d: iter=     4 ; resid.=  1.94627627237056E-04
(PID.TID 0000.0001)  cg2d: iter=     5 ; resid.=  6.55212442190026E-05
(PID.TID 0000.0001)  cg2d: iter=     6 ; resid.=  1.56772218304979E-05
(PID.TID 0000.0001)  cg2d: iter=     7 ; resid.=  3.22068578206937E-06
(PID.TID 0000.0001)  cg2d: iter=     8 ; resid.=  8.36863020803926E-07
(PID.TID 0000.0001)  cg2d: iter=     9 ; resid.=  2.35967742025797E-07
(PID.TID 0000.0001)  cg2d: iter=    10 ; resid.=  6.22495098479340E-08
DEBUG_STATS_RL:    cg2d_x (SOLVE_FOR_PRESSURE)  min= -6.18683645792742E+00
DEBUG_STATS_RL:    cg2d_x (SOLVE_FOR_PRESSURE)  max=  1.41798338956269E+01
DEBUG_STATS_RL:    cg2d_x (SOLVE_FOR_PRESSURE) mean=  4.49496513059606E-01
DEBUG_STATS_RL:    cg2d_x (SOLVE_FOR_PRESSURE) S.D.=  7.24269788370684E-01
(PID.TID 0000.0001)      cg2d_init_res =   2.20291355162019E-01
(PID.TID 0000.0001)      cg2d_iters(min,last) =      -1      10
(PID.TID 0000.0001)      cg2d_last_res =   6.22495098479340E-08
(PID.TID 0000.0001) DEBUG_MSG: CALLING S/R UPDATE_ETAH
(PID.TID 0000.0001) DEBUG_MSG: ENTERED S/R CALC_R_STAR
(PID.TID 0000.0001) DEBUG_MSG: LEAVING S/R CALC_R_STAR
(PID.TID 0000.0001) DEBUG_MSG: CALLING S/R DO_STAGGER_FIELDS_EXCH.
(PID.TID 0000.0001) DEBUG_MSG: CALLING S/R THERMODYNAMICS
(PID.TID 0000.0001) DEBUG_MSG: ENTERED S/R THERMODYNAMICS
(PID.TID 0000.0001) DEBUG_MSG: CALLING S/R TEMP_INTEGRATE
(PID.TID 0000.0001) DEBUG_MSG: CALLING S/R SALT_INTEGRATE
DEBUG_STATS_RL:          Uvel (THERMODYNAMICS)  min= -5.79311612348399E-01
DEBUG_STATS_RL:          Uvel (THERMODYNAMICS)  max=  3.49414752875598E-01
DEBUG_STATS_RL:          Uvel (THERMODYNAMICS) mean= -7.36277812890970E-04
DEBUG_STATS_RL:          Uvel (THERMODYNAMICS) S.D.=  2.05724442692513E-02
DEBUG_STATS_RL:          Vvel (THERMODYNAMICS)  min= -4.36682832666240E-01
DEBUG_STATS_RL:          Vvel (THERMODYNAMICS)  max=  3.74107625380851E-01
DEBUG_STATS_RL:          Vvel (THERMODYNAMICS) mean= -6.71382764505578E-04
DEBUG_STATS_RL:          Vvel (THERMODYNAMICS) S.D.=  2.19371771190009E-02
DEBUG_STATS_RL:          Wvel (THERMODYNAMICS)  min= -1.13179094685601E-04
DEBUG_STATS_RL:          Wvel (THERMODYNAMICS)  max=  1.42023844870638E-04
DEBUG_STATS_RL:          Wvel (THERMODYNAMICS) mean= -2.49632850157431E-07
DEBUG_STATS_RL:          Wvel (THERMODYNAMICS) S.D.=  6.40130433124867E-06
DEBUG_STATS_RL:         Theta (THERMODYNAMICS)  min=  1.60497631144786E+01
DEBUG_STATS_RL:         Theta (THERMODYNAMICS)  max=  2.39519303503188E+01
DEBUG_STATS_RL:         Theta (THERMODYNAMICS) mean=  2.00048488495087E+01
DEBUG_STATS_RL:         Theta (THERMODYNAMICS) S.D.=  1.01545975586069E-01
DEBUG_STATS_RL:          Salt (THERMODYNAMICS)  min=  2.31498239244054E+01
DEBUG_STATS_RL:          Salt (THERMODYNAMICS)  max=  3.51507457332280E+01
DEBUG_STATS_RL:          Salt (THERMODYNAMICS) mean=  3.49966837369522E+01
DEBUG_STATS_RL:          Salt (THERMODYNAMICS) S.D.=  1.36473608856226E-01
DEBUG_STATS_RL:         GtNm1 (THERMODYNAMICS)  min= -3.09293564375310E-06
DEBUG_STATS_RL:         GtNm1 (THERMODYNAMICS)  max=  5.57202089970010E-06
DEBUG_STATS_RL:         GtNm1 (THERMODYNAMICS) mean=  1.34069859572810E-09
DEBUG_STATS_RL:         GtNm1 (THERMODYNAMICS) S.D.=  7.02697494221289E-08
DEBUG_STATS_RL:         GsNm1 (THERMODYNAMICS)  min= -1.41562342085753E-05
DEBUG_STATS_RL:         GsNm1 (THERMODYNAMICS)  max=  2.50464399501837E-06
DEBUG_STATS_RL:         GsNm1 (THERMODYNAMICS) mean= -4.09241356621069E-09
DEBUG_STATS_RL:         GsNm1 (THERMODYNAMICS) S.D.=  1.59173832343699E-07
(PID.TID 0000.0001) DEBUG_MSG: LEAVING S/R THERMODYNAMICS
(PID.TID 0000.0001) // =======================================================
(PID.TID 0000.0001) // Begin MONITOR dynamic field statistics
(PID.TID 0000.0001) // =======================================================
(PID.TID 0000.0001) %MON time_tsnumber                =                    86
(PID.TID 0000.0001) %MON time_secondsf                =   7.7400000000000E+04
(PID.TID 0000.0001) %MON dynstat_eta_max              =   1.4454468788910E+00
(PID.TID 0000.0001) %MON dynstat_eta_min              =  -6.3066630368479E-01
(PID.TID 0000.0001) %MON dynstat_eta_mean             =   4.5519939108973E-02
(PID.TID 0000.0001) %MON dynstat_eta_sd               =   7.0192832008069E-02
(PID.TID 0000.0001) %MON dynstat_eta_del2             =   1.0646646597425E-03
(PID.TID 0000.0001) %MON dynstat_uvel_max             =   3.4941475287560E-01
(PID.TID 0000.0001) %MON dynstat_uvel_min             =  -5.7931161234840E-01
(PID.TID 0000.0001) %MON dynstat_uvel_mean            =  -1.3277426130396E-04
(PID.TID 0000.0001) %MON dynstat_uvel_sd              =   6.7557266810511E-03
(PID.TID 0000.0001) %MON dynstat_uvel_del2            =   9.1536276315773E-05
(PID.TID 0000.0001) %MON dynstat_vvel_max             =   3.7410762538085E-01
(PID.TID 0000.0001) %MON dynstat_vvel_min             =  -4.3668283266624E-01
(PID.TID 0000.0001) %MON dynstat_vvel_mean            =   4.6256537263057E-04
(PID.TID 0000.0001) %MON dynstat_vvel_sd              =   7.2582906709068E-03
(PID.TID 0000.0001) %MON dynstat_vvel_del2            =   9.8573441006814E-05
(PID.TID 0000.0001) %MON dynstat_wvel_max             =   1.4202384487064E-04
(PID.TID 0000.0001) %MON dynstat_wvel_min             =  -1.1317909468560E-04
(PID.TID 0000.0001) %MON dynstat_wvel_mean            =  -1.0034227434962E-07
(PID.TID 0000.0001) %MON dynstat_wvel_sd              =   6.1406605948597E-06
(PID.TID 0000.0001) %MON dynstat_wvel_del2            =   6.7811121400800E-08
(PID.TID 0000.0001) %MON dynstat_theta_max            =   2.3951930350319E+01
(PID.TID 0000.0001) %MON dynstat_theta_min            =   1.6049763114479E+01
(PID.TID 0000.0001) %MON dynstat_theta_mean           =   1.9997927444035E+01
(PID.TID 0000.0001) %MON dynstat_theta_sd             =   3.3399390947949E-02
(PID.TID 0000.0001) %MON dynstat_theta_del2           =   5.7061775073281E-04
(PID.TID 0000.0001) %MON dynstat_salt_max             =   3.5150745733228E+01
(PID.TID 0000.0001) %MON dynstat_salt_min             =   2.3149823924405E+01
(PID.TID 0000.0001) %MON dynstat_salt_mean            =   3.4999569108165E+01
(PID.TID 0000.0001) %MON dynstat_salt_sd              =   4.2113687623805E-02
(PID.TID 0000.0001) %MON dynstat_salt_del2            =   1.4413300436754E-03
(PID.TID 0000.0001) %MON dynstat_sst_max              =   2.3951930350319E+01
(PID.TID 0000.0001) %MON dynstat_sst_min              =   1.6049763114479E+01
(PID.TID 0000.0001) %MON dynstat_sst_mean             =   2.0166514012759E+01
(PID.TID 0000.0001) %MON dynstat_sst_sd               =   3.1300684251007E-01
(PID.TID 0000.0001) %MON dynstat_sst_del2             =   6.7724880113771E-03
(PID.TID 0000.0001) %MON dynstat_sss_max              =   3.5150745733228E+01
(PID.TID 0000.0001) %MON dynstat_sss_min              =   2.3149823924405E+01
(PID.TID 0000.0001) %MON dynstat_sss_mean             =   3.4960580041849E+01
(PID.TID 0000.0001) %MON dynstat_sss_sd               =   5.0776887289279E-01
(PID.TID 0000.0001) %MON dynstat_sss_del2             =   1.9504598601678E-02
(PID.TID 0000.0001) %MON forcing_qnet_max             =   2.9395228870492E+03
(PID.TID 0000.0001) %MON forcing_qnet_min             =  -2.4642519531250E+03
(PID.TID 0000.0001) %MON forcing_qnet_mean            =  -2.0086292688582E+01
(PID.TID 0000.0001) %MON forcing_qnet_sd              =   4.3619264447224E+02
(PID.TID 0000.0001) %MON forcing_qnet_del2            =   5.0274525778191E+00
(PID.TID 0000.0001) %MON forcing_qsw_max              =   0.0000000000000E+00
(PID.TID 0000.0001) %MON forcing_qsw_min              =  -1.0534230624273E+02
(PID.TID 0000.0001) %MON forcing_qsw_mean             =  -1.9937355413254E+01
(PID.TID 0000.0001) %MON forcing_qsw_sd               =   2.8636585050612E+01
(PID.TID 0000.0001) %MON forcing_qsw_del2             =   2.3679136167474E-01
(PID.TID 0000.0001) %MON forcing_empmr_max            =   4.6007679775357E-03
(PID.TID 0000.0001) %MON forcing_empmr_min            =  -6.6116653382778E-02
(PID.TID 0000.0001) %MON forcing_empmr_mean           =  -3.4380952437800E-04
(PID.TID 0000.0001) %MON forcing_empmr_sd             =   2.9542959606460E-03
(PID.TID 0000.0001) %MON forcing_empmr_del2           =   1.1496836973247E-04
(PID.TID 0000.0001) %MON forcing_fu_max               =   5.0086726822163E-01
(PID.TID 0000.0001) %MON forcing_fu_min               =  -5.9515398548188E-01
(PID.TID 0000.0001) %MON forcing_fu_mean              =  -1.4003132968171E-03
(PID.TID 0000.0001) %MON forcing_fu_sd                =   7.9482582733674E-02
(PID.TID 0000.0001) %MON forcing_fu_del2              =   6.7747704259867E-04
(PID.TID 0000.0001) %MON forcing_fv_max               =   3.4371964347776E-01
(PID.TID 0000.0001) %MON forcing_fv_min               =  -3.1583001018777E-01
(PID.TID 0000.0001) %MON forcing_fv_mean              =  -6.9739746315867E-03
(PID.TID 0000.0001) %MON forcing_fv_sd                =   7.1390079647679E-02
(PID.TID 0000.0001) %MON forcing_fv_del2              =   5.7014801760183E-04
(PID.TID 0000.0001) %MON trAdv_CFL_u_max              =   1.6795277872306E-03
(PID.TID 0000.0001) %MON trAdv_CFL_v_max              =   1.5212077522263E-03
(PID.TID 0000.0001) %MON trAdv_CFL_w_max              =   2.1617609945063E-03
(PID.TID 0000.0001) %MON advcfl_uvel_max              =   1.6712213348519E-03
(PID.TID 0000.0001) %MON advcfl_vvel_max              =   1.4614217948113E-03
(PID.TID 0000.0001) %MON advcfl_wvel_max              =   4.5994193657585E-03
(PID.TID 0000.0001) %MON advcfl_W_hf_max              =   2.1835604549380E-03
(PID.TID 0000.0001) %MON pe_b_mean                    =   9.3239781209611E-06
(PID.TID 0000.0001) %MON ke_max                       =   1.1672613888852E-01
(PID.TID 0000.0001) %MON ke_mean                      =   4.5518864288229E-05
(PID.TID 0000.0001) %MON ke_vol                       =   1.3398189006756E+18
(PID.TID 0000.0001) %MON vort_r_min                   =  -2.5877986615431E-06
(PID.TID 0000.0001) %MON vort_r_max                   =   2.5948282259182E-06
(PID.TID 0000.0001) %MON vort_a_mean                  =  -2.0549865324846E-05
(PID.TID 0000.0001) %MON vort_a_sd                    =   7.5259406262608E-05
(PID.TID 0000.0001) %MON vort_p_mean                  =  -2.4783215507127E-05
(PID.TID 0000.0001) %MON vort_p_sd                    =   1.2810504819268E-04
(PID.TID 0000.0001) %MON surfExpan_theta_mean         =  -5.1380034930252E-07
(PID.TID 0000.0001) %MON surfExpan_salt_mean          =   1.4211852549705E-06
(PID.TID 0000.0001) // =======================================================
(PID.TID 0000.0001) // End MONITOR dynamic field statistics
(PID.TID 0000.0001) // =======================================================
(PID.TID 0000.0001) DEBUG_MSG: LEAVING S/R FORWARD_STEP
(PID.TID 0000.0001) DEBUG_MSG: ENTERED S/R FORWARD_STEP
(PID.TID 0000.0001) DEBUG_MSG: CALLING S/R LOAD_FIELDS_DRIVER
(PID.TID 0000.0001) DEBUG_MSG: ENTERED S/R LOAD_FIELDS_DRIVER
(PID.TID 0000.0001) DEBUG_MSG: CALLING S/R EXTERNAL_FIELDS_LOAD
(PID.TID 0000.0001) DEBUG_MSG: LEAVING S/R LOAD_FIELDS_DRIVER
(PID.TID 0000.0001) DEBUG_MSG: CALLING S/R DO_ATMOSPHERIC_PHYS
(PID.TID 0000.0001) DEBUG_MSG: ENTERED S/R DO_ATMOSPHERIC_PHYS
(PID.TID 0000.0001) DEBUG_MSG: LEAVING S/R DO_ATMOSPHERIC_PHYS
(PID.TID 0000.0001) DEBUG_MSG: CALLING S/R DO_OCEANIC_PHYS
(PID.TID 0000.0001) DEBUG_MSG: ENTERED S/R DO_OCEANIC_PHYS
(PID.TID 0000.0001) DEBUG_MSG: CALLING S/R EXTERNAL_FORCING_SURF
(PID.TID 0000.0001) DEBUG_MSG: CALLING S/R FIND_RHO_2D (xNr)
(PID.TID 0000.0001) DEBUG_MSG:                  ENTERING UPWARD K LOOP (bi=   1, bj=   1)
(PID.TID 0000.0001) DEBUG_MSG: CALLING S/R GRAD_SIGMA
(PID.TID 0000.0001) DEBUG_MSG: CALLING S/R CALC_IVDC
(PID.TID 0000.0001) DEBUG_MSG: CALLING S/R GRAD_SIGMA
(PID.TID 0000.0001) DEBUG_MSG: CALLING S/R CALC_IVDC
(PID.TID 0000.0001) DEBUG_MSG: CALLING S/R GRAD_SIGMA
(PID.TID 0000.0001) DEBUG_MSG: CALLING S/R CALC_IVDC
(PID.TID 0000.0001) DEBUG_MSG: CALLING S/R GRAD_SIGMA
(PID.TID 0000.0001) DEBUG_MSG: CALLING S/R CALC_IVDC
(PID.TID 0000.0001) DEBUG_MSG: CALLING S/R GRAD_SIGMA
(PID.TID 0000.0001) DEBUG_MSG: CALLING S/R CALC_IVDC
(PID.TID 0000.0001) DEBUG_MSG: CALLING S/R GRAD_SIGMA
(PID.TID 0000.0001) DEBUG_MSG: CALLING S/R CALC_IVDC
(PID.TID 0000.0001) DEBUG_MSG: CALLING S/R GRAD_SIGMA
(PID.TID 0000.0001) DEBUG_MSG: CALLING S/R CALC_IVDC
(PID.TID 0000.0001) DEBUG_MSG: CALLING S/R GRAD_SIGMA
(PID.TID 0000.0001) DEBUG_MSG: CALLING S/R CALC_IVDC
(PID.TID 0000.0001) DEBUG_MSG: CALLING S/R GRAD_SIGMA
(PID.TID 0000.0001) DEBUG_MSG: CALLING S/R CALC_IVDC
(PID.TID 0000.0001) DEBUG_MSG: CALLING S/R GRAD_SIGMA
(PID.TID 0000.0001) DEBUG_MSG: CALLING S/R CALC_IVDC
(PID.TID 0000.0001) DEBUG_MSG: CALLING S/R GRAD_SIGMA
(PID.TID 0000.0001) DEBUG_MSG: CALLING S/R CALC_IVDC
(PID.TID 0000.0001) DEBUG_MSG: CALLING S/R GRAD_SIGMA
(PID.TID 0000.0001) DEBUG_MSG: CALLING S/R CALC_IVDC
(PID.TID 0000.0001) DEBUG_MSG: CALLING S/R GRAD_SIGMA
(PID.TID 0000.0001) DEBUG_MSG: CALLING S/R CALC_IVDC
(PID.TID 0000.0001) DEBUG_MSG: CALLING S/R GRAD_SIGMA
(PID.TID 0000.0001) DEBUG_MSG: CALLING S/R CALC_IVDC
(PID.TID 0000.0001) DEBUG_MSG: CALLING S/R GRAD_SIGMA
(PID.TID 0000.0001) DEBUG_MSG: CALLING S/R CALC_IVDC
(PID.TID 0000.0001) DEBUG_MSG: CALLING S/R GRAD_SIGMA
(PID.TID 0000.0001) DEBUG_MSG: CALLING S/R GMREDI_CALC_TENSOR
(PID.TID 0000.0001) DEBUG_MSG: LEAVING S/R DO_OCEANIC_PHYS
(PID.TID 0000.0001) DEBUG_MSG: CALLING S/R DYNAMICS
(PID.TID 0000.0001) DEBUG_MSG: ENTERED S/R DYNAMICS
DEBUG_STATS_RL:                EtaN (DYNAMICS)  min= -6.30666303684793E-01
DEBUG_STATS_RL:                EtaN (DYNAMICS)  max=  1.44544687889103E+00
DEBUG_STATS_RL:                EtaN (DYNAMICS) mean=  4.58202359417400E-02
DEBUG_STATS_RL:                EtaN (DYNAMICS) S.D.=  7.38297440131209E-02
DEBUG_STATS_RL:                Uvel (DYNAMICS)  min= -5.79311612348399E-01
DEBUG_STATS_RL:                Uvel (DYNAMICS)  max=  3.49414752875598E-01
DEBUG_STATS_RL:                Uvel (DYNAMICS) mean= -7.36277812890970E-04
DEBUG_STATS_RL:                Uvel (DYNAMICS) S.D.=  2.05724442692513E-02
DEBUG_STATS_RL:                Vvel (DYNAMICS)  min= -4.36682832666240E-01
DEBUG_STATS_RL:                Vvel (DYNAMICS)  max=  3.74107625380851E-01
DEBUG_STATS_RL:                Vvel (DYNAMICS) mean= -6.71382764505578E-04
DEBUG_STATS_RL:                Vvel (DYNAMICS) S.D.=  2.19371771190009E-02
DEBUG_STATS_RL:                Wvel (DYNAMICS)  min= -1.13179094685601E-04
DEBUG_STATS_RL:                Wvel (DYNAMICS)  max=  1.42023844870638E-04
DEBUG_STATS_RL:                Wvel (DYNAMICS) mean= -2.49632850157431E-07
DEBUG_STATS_RL:                Wvel (DYNAMICS) S.D.=  6.40130433124867E-06
DEBUG_STATS_RL:               Theta (DYNAMICS)  min=  1.60497631144786E+01
DEBUG_STATS_RL:               Theta (DYNAMICS)  max=  2.39519303503188E+01
DEBUG_STATS_RL:               Theta (DYNAMICS) mean=  2.00048488495087E+01
DEBUG_STATS_RL:               Theta (DYNAMICS) S.D.=  1.01545975586069E-01
DEBUG_STATS_RL:                Salt (DYNAMICS)  min=  2.31498239244054E+01
DEBUG_STATS_RL:                Salt (DYNAMICS)  max=  3.51507457332280E+01
DEBUG_STATS_RL:                Salt (DYNAMICS) mean=  3.49966837369522E+01
DEBUG_STATS_RL:                Salt (DYNAMICS) S.D.=  1.36473608856226E-01
DEBUG_STATS_RL:                  Gu (DYNAMICS)  min= -5.74478363702668E-01
DEBUG_STATS_RL:                  Gu (DYNAMICS)  max=  3.50788660328657E-01
DEBUG_STATS_RL:                  Gu (DYNAMICS) mean= -7.51600189993761E-04
DEBUG_STATS_RL:                  Gu (DYNAMICS) S.D.=  2.05344062938852E-02
DEBUG_STATS_RL:                  Gv (DYNAMICS)  min= -4.18864121621817E-01
DEBUG_STATS_RL:                  Gv (DYNAMICS)  max=  3.67248510170190E-01
DEBUG_STATS_RL:                  Gv (DYNAMICS) mean= -6.52435537240717E-04
DEBUG_STATS_RL:                  Gv (DYNAMICS) S.D.=  2.20956486083478E-02
DEBUG_STATS_RL:               GuNm1 (DYNAMICS)  min= -2.50599070675388E-05
DEBUG_STATS_RL:               GuNm1 (DYNAMICS)  max=  1.79312225695688E-05
DEBUG_STATS_RL:               GuNm1 (DYNAMICS) mean= -1.76882367402249E-08
DEBUG_STATS_RL:               GuNm1 (DYNAMICS) S.D.=  1.14393785861999E-06
DEBUG_STATS_RL:               GvNm1 (DYNAMICS)  min= -2.04157448636629E-05
DEBUG_STATS_RL:               GvNm1 (DYNAMICS)  max=  3.32098582146346E-05
DEBUG_STATS_RL:               GvNm1 (DYNAMICS) mean=  1.82500899039906E-08
DEBUG_STATS_RL:               GvNm1 (DYNAMICS) S.D.=  1.16120053287011E-06
DEBUG_STATS_RL:               GtNm1 (DYNAMICS)  min= -3.09293564375310E-06
DEBUG_STATS_RL:               GtNm1 (DYNAMICS)  max=  5.57202089970010E-06
DEBUG_STATS_RL:               GtNm1 (DYNAMICS) mean=  1.34069859572810E-09
DEBUG_STATS_RL:               GtNm1 (DYNAMICS) S.D.=  7.02697494221289E-08
DEBUG_STATS_RL:               GsNm1 (DYNAMICS)  min= -1.41562342085753E-05
DEBUG_STATS_RL:               GsNm1 (DYNAMICS)  max=  2.50464399501837E-06
DEBUG_STATS_RL:               GsNm1 (DYNAMICS) mean= -4.09241356621069E-09
DEBUG_STATS_RL:               GsNm1 (DYNAMICS) S.D.=  1.59173832343699E-07
(PID.TID 0000.0001) DEBUG_MSG: LEAVING S/R DYNAMICS
DEBUG_STATS_RL:    cg2d_b (SOLVE_FOR_PRESSURE)  min= -1.65266386050933E+05
DEBUG_STATS_RL:    cg2d_b (SOLVE_FOR_PRESSURE)  max=  6.79692073079840E+04
DEBUG_STATS_RL:    cg2d_b (SOLVE_FOR_PRESSURE) mean= -4.65681364673837E+03
DEBUG_STATS_RL:    cg2d_b (SOLVE_FOR_PRESSURE) S.D.=  7.30297948962721E+03
 cg2d: Sum(rhs),rhsMax =  -1.24545086332559E+02  3.16593612704137E+01
(PID.TID 0000.0001)  cg2d: iter=     1 ; resid.=  2.75889421343546E-02
(PID.TID 0000.0001)  cg2d: iter=     2 ; resid.=  3.41157212786659E-03
(PID.TID 0000.0001)  cg2d: iter=     3 ; resid.=  6.97299320395105E-04
(PID.TID 0000.0001)  cg2d: iter=     4 ; resid.=  1.58339215487833E-04
(PID.TID 0000.0001)  cg2d: iter=     5 ; resid.=  5.01990859784809E-05
(PID.TID 0000.0001)  cg2d: iter=     6 ; resid.=  1.41527553128281E-05
(PID.TID 0000.0001)  cg2d: iter=     7 ; resid.=  3.07068466711139E-06
(PID.TID 0000.0001)  cg2d: iter=     8 ; resid.=  7.83301090405081E-07
(PID.TID 0000.0001)  cg2d: iter=     9 ; resid.=  2.07179193479471E-07
(PID.TID 0000.0001)  cg2d: iter=    10 ; resid.=  4.82028145239088E-08
DEBUG_STATS_RL:    cg2d_x (SOLVE_FOR_PRESSURE)  min= -5.65596981285078E+00
DEBUG_STATS_RL:    cg2d_x (SOLVE_FOR_PRESSURE)  max=  1.35400841036713E+01
DEBUG_STATS_RL:    cg2d_x (SOLVE_FOR_PRESSURE) mean=  4.51962045064605E-01
DEBUG_STATS_RL:    cg2d_x (SOLVE_FOR_PRESSURE) S.D.=  7.18942568790516E-01
(PID.TID 0000.0001)      cg2d_init_res =   2.28556243124585E-01
(PID.TID 0000.0001)      cg2d_iters(min,last) =      -1      10
(PID.TID 0000.0001)      cg2d_last_res =   4.82028145239088E-08
(PID.TID 0000.0001) DEBUG_MSG: CALLING S/R UPDATE_ETAH
(PID.TID 0000.0001) DEBUG_MSG: ENTERED S/R CALC_R_STAR
(PID.TID 0000.0001) DEBUG_MSG: LEAVING S/R CALC_R_STAR
(PID.TID 0000.0001) DEBUG_MSG: CALLING S/R DO_STAGGER_FIELDS_EXCH.
(PID.TID 0000.0001) DEBUG_MSG: CALLING S/R THERMODYNAMICS
(PID.TID 0000.0001) DEBUG_MSG: ENTERED S/R THERMODYNAMICS
(PID.TID 0000.0001) DEBUG_MSG: CALLING S/R TEMP_INTEGRATE
(PID.TID 0000.0001) DEBUG_MSG: CALLING S/R SALT_INTEGRATE
DEBUG_STATS_RL:          Uvel (THERMODYNAMICS)  min= -5.76641174364811E-01
DEBUG_STATS_RL:          Uvel (THERMODYNAMICS)  max=  3.39032381968012E-01
DEBUG_STATS_RL:          Uvel (THERMODYNAMICS) mean= -7.63316376709296E-04
DEBUG_STATS_RL:          Uvel (THERMODYNAMICS) S.D.=  2.05494582521863E-02
DEBUG_STATS_RL:          Vvel (THERMODYNAMICS)  min= -4.17969243044752E-01
DEBUG_STATS_RL:          Vvel (THERMODYNAMICS)  max=  3.74602435859241E-01
DEBUG_STATS_RL:          Vvel (THERMODYNAMICS) mean= -6.54002014186126E-04
DEBUG_STATS_RL:          Vvel (THERMODYNAMICS) S.D.=  2.21371424357051E-02
DEBUG_STATS_RL:          Wvel (THERMODYNAMICS)  min= -1.08631986133502E-04
DEBUG_STATS_RL:          Wvel (THERMODYNAMICS)  max=  1.40016531724841E-04
DEBUG_STATS_RL:          Wvel (THERMODYNAMICS) mean= -2.49009982555375E-07
DEBUG_STATS_RL:          Wvel (THERMODYNAMICS) S.D.=  6.35492007188310E-06
DEBUG_STATS_RL:         Theta (THERMODYNAMICS)  min=  1.60509743584843E+01
DEBUG_STATS_RL:         Theta (THERMODYNAMICS)  max=  2.39766732626181E+01
DEBUG_STATS_RL:         Theta (THERMODYNAMICS) mean=  2.00049422444678E+01
DEBUG_STATS_RL:         Theta (THERMODYNAMICS) S.D.=  1.02060023232436E-01
DEBUG_STATS_RL:          Salt (THERMODYNAMICS)  min=  2.31090680347887E+01
DEBUG_STATS_RL:          Salt (THERMODYNAMICS)  max=  3.51507678687006E+01
DEBUG_STATS_RL:          Salt (THERMODYNAMICS) mean=  3.49966657042253E+01
DEBUG_STATS_RL:          Salt (THERMODYNAMICS) S.D.=  1.36981620124409E-01
DEBUG_STATS_RL:         GtNm1 (THERMODYNAMICS)  min= -3.08610676215360E-06
DEBUG_STATS_RL:         GtNm1 (THERMODYNAMICS)  max=  5.43970591055525E-06
DEBUG_STATS_RL:         GtNm1 (THERMODYNAMICS) mean=  1.31573767016214E-09
DEBUG_STATS_RL:         GtNm1 (THERMODYNAMICS) S.D.=  6.96994277041030E-08
DEBUG_STATS_RL:         GsNm1 (THERMODYNAMICS)  min= -1.40654463080992E-05
DEBUG_STATS_RL:         GsNm1 (THERMODYNAMICS)  max=  2.51857736688722E-06
DEBUG_STATS_RL:         GsNm1 (THERMODYNAMICS) mean= -4.05755485594473E-09
DEBUG_STATS_RL:         GsNm1 (THERMODYNAMICS) S.D.=  1.57716660128890E-07
(PID.TID 0000.0001) DEBUG_MSG: LEAVING S/R THERMODYNAMICS
(PID.TID 0000.0001) // =======================================================
(PID.TID 0000.0001) // Begin MONITOR dynamic field statistics
(PID.TID 0000.0001) // =======================================================
(PID.TID 0000.0001) %MON time_tsnumber                =                    87
(PID.TID 0000.0001) %MON time_secondsf                =   7.8300000000000E+04
(PID.TID 0000.0001) %MON dynstat_eta_max              =   1.3802328330923E+00
(PID.TID 0000.0001) %MON dynstat_eta_min              =  -5.7655145740715E-01
(PID.TID 0000.0001) %MON dynstat_eta_mean             =   4.5817345067925E-02
(PID.TID 0000.0001) %MON dynstat_eta_sd               =   6.9591717763622E-02
(PID.TID 0000.0001) %MON dynstat_eta_del2             =   1.0368401347730E-03
(PID.TID 0000.0001) %MON dynstat_uvel_max             =   3.3903238196801E-01
(PID.TID 0000.0001) %MON dynstat_uvel_min             =  -5.7664117436481E-01
(PID.TID 0000.0001) %MON dynstat_uvel_mean            =  -1.4034342644236E-04
(PID.TID 0000.0001) %MON dynstat_uvel_sd              =   6.7424751542487E-03
(PID.TID 0000.0001) %MON dynstat_uvel_del2            =   9.1787290692175E-05
(PID.TID 0000.0001) %MON dynstat_vvel_max             =   3.7460243585924E-01
(PID.TID 0000.0001) %MON dynstat_vvel_min             =  -4.1796924304475E-01
(PID.TID 0000.0001) %MON dynstat_vvel_mean            =   4.4596173021021E-04
(PID.TID 0000.0001) %MON dynstat_vvel_sd              =   7.3126999008011E-03
(PID.TID 0000.0001) %MON dynstat_vvel_del2            =   9.7958372222606E-05
(PID.TID 0000.0001) %MON dynstat_wvel_max             =   1.4001653172484E-04
(PID.TID 0000.0001) %MON dynstat_wvel_min             =  -1.0863198613350E-04
(PID.TID 0000.0001) %MON dynstat_wvel_mean            =  -9.7638915161339E-08
(PID.TID 0000.0001) %MON dynstat_wvel_sd              =   6.0961479494122E-06
(PID.TID 0000.0001) %MON dynstat_wvel_del2            =   6.7352789601990E-08
(PID.TID 0000.0001) %MON dynstat_theta_max            =   2.3976673262618E+01
(PID.TID 0000.0001) %MON dynstat_theta_min            =   1.6050974358484E+01
(PID.TID 0000.0001) %MON dynstat_theta_mean           =   1.9997928664103E+01
(PID.TID 0000.0001) %MON dynstat_theta_sd             =   3.3563764516883E-02
(PID.TID 0000.0001) %MON dynstat_theta_del2           =   5.7264336325887E-04
(PID.TID 0000.0001) %MON dynstat_salt_max             =   3.5150767868701E+01
(PID.TID 0000.0001) %MON dynstat_salt_min             =   2.3109068034789E+01
(PID.TID 0000.0001) %MON dynstat_salt_mean            =   3.4999566654705E+01
(PID.TID 0000.0001) %MON dynstat_salt_sd              =   4.2270153709041E-02
(PID.TID 0000.0001) %MON dynstat_salt_del2            =   1.4460258325306E-03
(PID.TID 0000.0001) %MON dynstat_sst_max              =   2.3976673262618E+01
(PID.TID 0000.0001) %MON dynstat_sst_min              =   1.6050974358484E+01
(PID.TID 0000.0001) %MON dynstat_sst_mean             =   2.0167908687287E+01
(PID.TID 0000.0001) %MON dynstat_sst_sd               =   3.1460384206213E-01
(PID.TID 0000.0001) %MON dynstat_sst_del2             =   6.8024265251046E-03
(PID.TID 0000.0001) %MON dynstat_sss_max              =   3.5150767868701E+01
(PID.TID 0000.0001) %MON dynstat_sss_min              =   2.3109068034789E+01
(PID.TID 0000.0001) %MON dynstat_sss_mean             =   3.4960366237205E+01
(PID.TID 0000.0001) %MON dynstat_sss_sd               =   5.0965010968573E-01
(PID.TID 0000.0001) %MON dynstat_sss_del2             =   1.9567972264384E-02
(PID.TID 0000.0001) %MON forcing_qnet_max             =   3.0293943412643E+03
(PID.TID 0000.0001) %MON forcing_qnet_min             =  -2.4297287597656E+03
(PID.TID 0000.0001) %MON forcing_qnet_mean            =  -1.9224078472982E+01
(PID.TID 0000.0001) %MON forcing_qnet_sd              =   4.3463458433539E+02
(PID.TID 0000.0001) %MON forcing_qnet_del2            =   4.9677588945178E+00
(PID.TID 0000.0001) %MON forcing_qsw_max              =   0.0000000000000E+00
(PID.TID 0000.0001) %MON forcing_qsw_min              =  -1.0609922785941E+02
(PID.TID 0000.0001) %MON forcing_qsw_mean             =  -2.0092476101978E+01
(PID.TID 0000.0001) %MON forcing_qsw_sd               =   2.8780476633004E+01
(PID.TID 0000.0001) %MON forcing_qsw_del2             =   2.3750234386718E-01
(PID.TID 0000.0001) %MON forcing_empmr_max            =   4.5535340905190E-03
(PID.TID 0000.0001) %MON forcing_empmr_min            =  -6.5436154603958E-02
(PID.TID 0000.0001) %MON forcing_empmr_mean           =  -3.4201685279471E-04
(PID.TID 0000.0001) %MON forcing_empmr_sd             =   2.9250298455090E-03
(PID.TID 0000.0001) %MON forcing_empmr_del2           =   1.1379509501633E-04
(PID.TID 0000.0001) %MON forcing_fu_max               =   4.9678128307677E-01
(PID.TID 0000.0001) %MON forcing_fu_min               =  -5.9356074890104E-01
(PID.TID 0000.0001) %MON forcing_fu_mean              =  -1.5152564562145E-03
(PID.TID 0000.0001) %MON forcing_fu_sd                =   7.9157262056313E-02
(PID.TID 0000.0001) %MON forcing_fu_del2              =   6.7534809365500E-04
(PID.TID 0000.0001) %MON forcing_fv_max               =   3.3971677409024E-01
(PID.TID 0000.0001) %MON forcing_fv_min               =  -3.1299612749595E-01
(PID.TID 0000.0001) %MON forcing_fv_mean              =  -6.9497755198894E-03
(PID.TID 0000.0001) %MON forcing_fv_sd                =   7.1423595449158E-02
(PID.TID 0000.0001) %MON forcing_fv_del2              =   5.6832562473387E-04
(PID.TID 0000.0001) %MON trAdv_CFL_u_max              =   1.6730423685486E-03
(PID.TID 0000.0001) %MON trAdv_CFL_v_max              =   1.5190384314246E-03
(PID.TID 0000.0001) %MON trAdv_CFL_w_max              =   2.1520948302008E-03
(PID.TID 0000.0001) %MON advcfl_uvel_max              =   1.6635175484329E-03
(PID.TID 0000.0001) %MON advcfl_vvel_max              =   1.4592991357599E-03
(PID.TID 0000.0001) %MON advcfl_wvel_max              =   4.5520803202753E-03
(PID.TID 0000.0001) %MON advcfl_W_hf_max              =   2.1520948302008E-03
(PID.TID 0000.0001) %MON pe_b_mean                    =   9.2482273002004E-06
(PID.TID 0000.0001) %MON ke_max                       =   1.1952127355164E-01
(PID.TID 0000.0001) %MON ke_mean                      =   4.5798463813654E-05
(PID.TID 0000.0001) %MON ke_vol                       =   1.3398190094649E+18
(PID.TID 0000.0001) %MON vort_r_min                   =  -2.5919143809912E-06
(PID.TID 0000.0001) %MON vort_r_max                   =   2.6041050125275E-06
(PID.TID 0000.0001) %MON vort_a_mean                  =  -2.0549865324846E-05
(PID.TID 0000.0001) %MON vort_a_sd                    =   7.5259404580432E-05
(PID.TID 0000.0001) %MON vort_p_mean                  =  -2.4783213538585E-05
(PID.TID 0000.0001) %MON vort_p_sd                    =   1.2810504779855E-04
(PID.TID 0000.0001) %MON surfExpan_theta_mean         =  -5.0215131325071E-07
(PID.TID 0000.0001) %MON surfExpan_salt_mean          =   1.4076307857495E-06
(PID.TID 0000.0001) // =======================================================
(PID.TID 0000.0001) // End MONITOR dynamic field statistics
(PID.TID 0000.0001) // =======================================================
 Computing Diagnostic #     81  oceTAUX      Counter:       1   Parms: UU      U1      
           Vector  Mate for  oceTAUX      Diagnostic #     82  oceTAUY  exists 
(PID.TID 0000.0001)  MDS_WRITE_FIELD: it,rec,kS,kL,kH=      86    -1  32   1   1 file=oceTAUX.0000000086
 Computing Diagnostic #     82  oceTAUY      Counter:       1   Parms: VV      U1      
           Vector  Mate for  oceTAUY      Diagnostic #     81  oceTAUX  exists 
(PID.TID 0000.0001)  MDS_WRITE_FIELD: it,rec,kS,kL,kH=      86    -1  32   1   1 file=oceTAUY.0000000086
 Computing Diagnostic #     85  oceFWflx     Counter:       1   Parms: SM      U1      
(PID.TID 0000.0001)  MDS_WRITE_FIELD: it,rec,kS,kL,kH=      86    -1  32   1   1 file=oceFWflx.0000000086
 Computing Diagnostic #     86  oceSflux     Counter:       1   Parms: SM      U1      
(PID.TID 0000.0001)  MDS_WRITE_FIELD: it,rec,kS,kL,kH=      86    -1  32   1   1 file=oceSflux.0000000086
 Computing Diagnostic #     87  oceQnet      Counter:       1   Parms: SM      U1      
(PID.TID 0000.0001)  MDS_WRITE_FIELD: it,rec,kS,kL,kH=      86    -1  32   1   1 file=oceQnet.0000000086
 Computing Diagnostic #     88  oceQsw       Counter:       1   Parms: SM      U1      
(PID.TID 0000.0001)  MDS_WRITE_FIELD: it,rec,kS,kL,kH=      86    -1  32   1   1 file=oceQsw.0000000086
 Computing Diagnostic #     27  SALT         Counter:       1   Parms: SMR     MR      
(PID.TID 0000.0001)  MDS_WRITE_FIELD: it,rec,kS,kL,kH=      86    -1  32   1   1 file=SSS.0000000086
 Computing Diagnostic #     26  THETA        Counter:       1   Parms: SMR     MR      
(PID.TID 0000.0001)  MDS_WRITE_FIELD: it,rec,kS,kL,kH=      86    -1  32   1   1 file=SST.0000000086
 Computing Diagnostic #     45  UVELMASS     Counter:       1   Parms: UUr     MR      
           Vector  Mate for  UVELMASS     Diagnostic #     46  VVELMASS exists 
(PID.TID 0000.0001)  MDS_WRITE_FIELD: it,rec,kS,kL,kH=      86    -1  32   1   1 file=UVEL1.0000000086
 Computing Diagnostic #     46  VVELMASS     Counter:       1   Parms: VVr     MR      
           Vector  Mate for  VVELMASS     Diagnostic #     45  UVELMASS exists 
(PID.TID 0000.0001)  MDS_WRITE_FIELD: it,rec,kS,kL,kH=      86    -1  32   1   1 file=VVEL1.0000000086
 Computing Diagnostic #     83  atmPload     Counter:       1   Parms: SM      U1      
(PID.TID 0000.0001)  MDS_WRITE_FIELD: it,rec,kS,kL,kH=      86    -1  32   1   1 file=atmPload.0000000086
(PID.TID 0000.0001)  write diagnostics summary to file: diagnostics_status.0000000087.txt
(PID.TID 0000.0001) DEBUG_MSG: LEAVING S/R FORWARD_STEP
(PID.TID 0000.0001) DEBUG_MSG: ENTERED S/R FORWARD_STEP
(PID.TID 0000.0001) DEBUG_MSG: CALLING S/R LOAD_FIELDS_DRIVER
(PID.TID 0000.0001) DEBUG_MSG: ENTERED S/R LOAD_FIELDS_DRIVER
(PID.TID 0000.0001) DEBUG_MSG: CALLING S/R EXTERNAL_FIELDS_LOAD
(PID.TID 0000.0001) DEBUG_MSG: LEAVING S/R LOAD_FIELDS_DRIVER
(PID.TID 0000.0001) DEBUG_MSG: CALLING S/R DO_ATMOSPHERIC_PHYS
(PID.TID 0000.0001) DEBUG_MSG: ENTERED S/R DO_ATMOSPHERIC_PHYS
(PID.TID 0000.0001) DEBUG_MSG: LEAVING S/R DO_ATMOSPHERIC_PHYS
(PID.TID 0000.0001) DEBUG_MSG: CALLING S/R DO_OCEANIC_PHYS
(PID.TID 0000.0001) DEBUG_MSG: ENTERED S/R DO_OCEANIC_PHYS
(PID.TID 0000.0001) DEBUG_MSG: CALLING S/R EXTERNAL_FORCING_SURF
(PID.TID 0000.0001) DEBUG_MSG: CALLING S/R FIND_RHO_2D (xNr)
(PID.TID 0000.0001) DEBUG_MSG:                  ENTERING UPWARD K LOOP (bi=   1, bj=   1)
(PID.TID 0000.0001) DEBUG_MSG: CALLING S/R GRAD_SIGMA
(PID.TID 0000.0001) DEBUG_MSG: CALLING S/R CALC_IVDC
(PID.TID 0000.0001) DEBUG_MSG: CALLING S/R GRAD_SIGMA
(PID.TID 0000.0001) DEBUG_MSG: CALLING S/R CALC_IVDC
(PID.TID 0000.0001) DEBUG_MSG: CALLING S/R GRAD_SIGMA
(PID.TID 0000.0001) DEBUG_MSG: CALLING S/R CALC_IVDC
(PID.TID 0000.0001) DEBUG_MSG: CALLING S/R GRAD_SIGMA
(PID.TID 0000.0001) DEBUG_MSG: CALLING S/R CALC_IVDC
(PID.TID 0000.0001) DEBUG_MSG: CALLING S/R GRAD_SIGMA
(PID.TID 0000.0001) DEBUG_MSG: CALLING S/R CALC_IVDC
(PID.TID 0000.0001) DEBUG_MSG: CALLING S/R GRAD_SIGMA
(PID.TID 0000.0001) DEBUG_MSG: CALLING S/R CALC_IVDC
(PID.TID 0000.0001) DEBUG_MSG: CALLING S/R GRAD_SIGMA
(PID.TID 0000.0001) DEBUG_MSG: CALLING S/R CALC_IVDC
(PID.TID 0000.0001) DEBUG_MSG: CALLING S/R GRAD_SIGMA
(PID.TID 0000.0001) DEBUG_MSG: CALLING S/R CALC_IVDC
(PID.TID 0000.0001) DEBUG_MSG: CALLING S/R GRAD_SIGMA
(PID.TID 0000.0001) DEBUG_MSG: CALLING S/R CALC_IVDC
(PID.TID 0000.0001) DEBUG_MSG: CALLING S/R GRAD_SIGMA
(PID.TID 0000.0001) DEBUG_MSG: CALLING S/R CALC_IVDC
(PID.TID 0000.0001) DEBUG_MSG: CALLING S/R GRAD_SIGMA
(PID.TID 0000.0001) DEBUG_MSG: CALLING S/R CALC_IVDC
(PID.TID 0000.0001) DEBUG_MSG: CALLING S/R GRAD_SIGMA
(PID.TID 0000.0001) DEBUG_MSG: CALLING S/R CALC_IVDC
(PID.TID 0000.0001) DEBUG_MSG: CALLING S/R GRAD_SIGMA
(PID.TID 0000.0001) DEBUG_MSG: CALLING S/R CALC_IVDC
(PID.TID 0000.0001) DEBUG_MSG: CALLING S/R GRAD_SIGMA
(PID.TID 0000.0001) DEBUG_MSG: CALLING S/R CALC_IVDC
(PID.TID 0000.0001) DEBUG_MSG: CALLING S/R GRAD_SIGMA
(PID.TID 0000.0001) DEBUG_MSG: CALLING S/R CALC_IVDC
(PID.TID 0000.0001) DEBUG_MSG: CALLING S/R GRAD_SIGMA
(PID.TID 0000.0001) DEBUG_MSG: CALLING S/R GMREDI_CALC_TENSOR
(PID.TID 0000.0001) DEBUG_MSG: LEAVING S/R DO_OCEANIC_PHYS
(PID.TID 0000.0001) DEBUG_MSG: CALLING S/R DYNAMICS
(PID.TID 0000.0001) DEBUG_MSG: ENTERED S/R DYNAMICS
DEBUG_STATS_RL:                EtaN (DYNAMICS)  min= -5.76551457407146E-01
DEBUG_STATS_RL:                EtaN (DYNAMICS)  max=  1.38023283309226E+00
DEBUG_STATS_RL:                EtaN (DYNAMICS) mean=  4.60715642870463E-02
DEBUG_STATS_RL:                EtaN (DYNAMICS) S.D.=  7.32867043033516E-02
DEBUG_STATS_RL:                Uvel (DYNAMICS)  min= -5.76641174364811E-01
DEBUG_STATS_RL:                Uvel (DYNAMICS)  max=  3.39032381968012E-01
DEBUG_STATS_RL:                Uvel (DYNAMICS) mean= -7.63316376709296E-04
DEBUG_STATS_RL:                Uvel (DYNAMICS) S.D.=  2.05494582521863E-02
DEBUG_STATS_RL:                Vvel (DYNAMICS)  min= -4.17969243044752E-01
DEBUG_STATS_RL:                Vvel (DYNAMICS)  max=  3.74602435859241E-01
DEBUG_STATS_RL:                Vvel (DYNAMICS) mean= -6.54002014186126E-04
DEBUG_STATS_RL:                Vvel (DYNAMICS) S.D.=  2.21371424357051E-02
DEBUG_STATS_RL:                Wvel (DYNAMICS)  min= -1.08631986133502E-04
DEBUG_STATS_RL:                Wvel (DYNAMICS)  max=  1.40016531724841E-04
DEBUG_STATS_RL:                Wvel (DYNAMICS) mean= -2.49009982555375E-07
DEBUG_STATS_RL:                Wvel (DYNAMICS) S.D.=  6.35492007188310E-06
DEBUG_STATS_RL:               Theta (DYNAMICS)  min=  1.60509743584843E+01
DEBUG_STATS_RL:               Theta (DYNAMICS)  max=  2.39766732626181E+01
DEBUG_STATS_RL:               Theta (DYNAMICS) mean=  2.00049422444678E+01
DEBUG_STATS_RL:               Theta (DYNAMICS) S.D.=  1.02060023232436E-01
DEBUG_STATS_RL:                Salt (DYNAMICS)  min=  2.31090680347887E+01
DEBUG_STATS_RL:                Salt (DYNAMICS)  max=  3.51507678687006E+01
DEBUG_STATS_RL:                Salt (DYNAMICS) mean=  3.49966657042253E+01
DEBUG_STATS_RL:                Salt (DYNAMICS) S.D.=  1.36981620124409E-01
DEBUG_STATS_RL:                  Gu (DYNAMICS)  min= -5.71740860148518E-01
DEBUG_STATS_RL:                  Gu (DYNAMICS)  max=  3.40741293713876E-01
DEBUG_STATS_RL:                  Gu (DYNAMICS) mean= -7.77910593162164E-04
DEBUG_STATS_RL:                  Gu (DYNAMICS) S.D.=  2.05064597724308E-02
DEBUG_STATS_RL:                  Gv (DYNAMICS)  min= -3.99841418901349E-01
DEBUG_STATS_RL:                  Gv (DYNAMICS)  max=  3.70154652592441E-01
DEBUG_STATS_RL:                  Gv (DYNAMICS) mean= -6.33250273291083E-04
DEBUG_STATS_RL:                  Gv (DYNAMICS) S.D.=  2.22730154607488E-02
DEBUG_STATS_RL:               GuNm1 (DYNAMICS)  min= -2.56678172470599E-05
DEBUG_STATS_RL:               GuNm1 (DYNAMICS)  max=  1.85131679004453E-05
DEBUG_STATS_RL:               GuNm1 (DYNAMICS) mean= -1.69861512633662E-08
DEBUG_STATS_RL:               GuNm1 (DYNAMICS) S.D.=  1.15920513422455E-06
DEBUG_STATS_RL:               GvNm1 (DYNAMICS)  min= -1.94101771730584E-05
DEBUG_STATS_RL:               GvNm1 (DYNAMICS)  max=  3.41740007794414E-05
DEBUG_STATS_RL:               GvNm1 (DYNAMICS) mean=  2.03012267700306E-08
DEBUG_STATS_RL:               GvNm1 (DYNAMICS) S.D.=  1.14086662344127E-06
DEBUG_STATS_RL:               GtNm1 (DYNAMICS)  min= -3.08610676215360E-06
DEBUG_STATS_RL:               GtNm1 (DYNAMICS)  max=  5.43970591055525E-06
DEBUG_STATS_RL:               GtNm1 (DYNAMICS) mean=  1.31573767016214E-09
DEBUG_STATS_RL:               GtNm1 (DYNAMICS) S.D.=  6.96994277041030E-08
DEBUG_STATS_RL:               GsNm1 (DYNAMICS)  min= -1.40654463080992E-05
DEBUG_STATS_RL:               GsNm1 (DYNAMICS)  max=  2.51857736688722E-06
DEBUG_STATS_RL:               GsNm1 (DYNAMICS) mean= -4.05755485594473E-09
DEBUG_STATS_RL:               GsNm1 (DYNAMICS) S.D.=  1.57716660128890E-07
(PID.TID 0000.0001) DEBUG_MSG: LEAVING S/R DYNAMICS
DEBUG_STATS_RL:    cg2d_b (SOLVE_FOR_PRESSURE)  min= -1.59952459420977E+05
DEBUG_STATS_RL:    cg2d_b (SOLVE_FOR_PRESSURE)  max=  6.06616015954600E+04
DEBUG_STATS_RL:    cg2d_b (SOLVE_FOR_PRESSURE) mean= -4.68686793946412E+03
DEBUG_STATS_RL:    cg2d_b (SOLVE_FOR_PRESSURE) S.D.=  7.24819672941980E+03
 cg2d: Sum(rhs),rhsMax =  -1.29513208908587E+02  3.06413955063992E+01
(PID.TID 0000.0001)  cg2d: iter=     1 ; resid.=  2.75687273146836E-02
(PID.TID 0000.0001)  cg2d: iter=     2 ; resid.=  3.49150458761406E-03
(PID.TID 0000.0001)  cg2d: iter=     3 ; resid.=  7.21473241077316E-04
(PID.TID 0000.0001)  cg2d: iter=     4 ; resid.=  1.72387741114646E-04
(PID.TID 0000.0001)  cg2d: iter=     5 ; resid.=  5.63067117085727E-05
(PID.TID 0000.0001)  cg2d: iter=     6 ; resid.=  1.49039321159386E-05
(PID.TID 0000.0001)  cg2d: iter=     7 ; resid.=  3.13336840442469E-06
(PID.TID 0000.0001)  cg2d: iter=     8 ; resid.=  7.85889560227829E-07
(PID.TID 0000.0001)  cg2d: iter=     9 ; resid.=  2.01292864930047E-07
(PID.TID 0000.0001)  cg2d: iter=    10 ; resid.=  4.52178961677266E-08
DEBUG_STATS_RL:    cg2d_x (SOLVE_FOR_PRESSURE)  min= -5.04603416544447E+00
DEBUG_STATS_RL:    cg2d_x (SOLVE_FOR_PRESSURE)  max=  1.28942411231836E+01
DEBUG_STATS_RL:    cg2d_x (SOLVE_FOR_PRESSURE) mean=  4.54495362318901E-01
DEBUG_STATS_RL:    cg2d_x (SOLVE_FOR_PRESSURE) S.D.=  7.14567025243672E-01
(PID.TID 0000.0001)      cg2d_init_res =   2.33053789656776E-01
(PID.TID 0000.0001)      cg2d_iters(min,last) =      -1      10
(PID.TID 0000.0001)      cg2d_last_res =   4.52178961677266E-08
(PID.TID 0000.0001) DEBUG_MSG: CALLING S/R UPDATE_ETAH
(PID.TID 0000.0001) DEBUG_MSG: ENTERED S/R CALC_R_STAR
(PID.TID 0000.0001) DEBUG_MSG: LEAVING S/R CALC_R_STAR
(PID.TID 0000.0001) DEBUG_MSG: CALLING S/R DO_STAGGER_FIELDS_EXCH.
(PID.TID 0000.0001) DEBUG_MSG: CALLING S/R THERMODYNAMICS
(PID.TID 0000.0001) DEBUG_MSG: ENTERED S/R THERMODYNAMICS
(PID.TID 0000.0001) DEBUG_MSG: CALLING S/R TEMP_INTEGRATE
(PID.TID 0000.0001) DEBUG_MSG: CALLING S/R SALT_INTEGRATE
DEBUG_STATS_RL:          Uvel (THERMODYNAMICS)  min= -5.71618927903150E-01
DEBUG_STATS_RL:          Uvel (THERMODYNAMICS)  max=  3.26228015523264E-01
DEBUG_STATS_RL:          Uvel (THERMODYNAMICS) mean= -7.89424195440351E-04
DEBUG_STATS_RL:          Uvel (THERMODYNAMICS) S.D.=  2.05158017096299E-02
DEBUG_STATS_RL:          Vvel (THERMODYNAMICS)  min= -3.93460016976295E-01
DEBUG_STATS_RL:          Vvel (THERMODYNAMICS)  max=  3.70878248416753E-01
DEBUG_STATS_RL:          Vvel (THERMODYNAMICS) mean= -6.34212020760329E-04
DEBUG_STATS_RL:          Vvel (THERMODYNAMICS) S.D.=  2.23057057157365E-02
DEBUG_STATS_RL:          Wvel (THERMODYNAMICS)  min= -1.04314909648062E-04
DEBUG_STATS_RL:          Wvel (THERMODYNAMICS)  max=  1.37766750420386E-04
DEBUG_STATS_RL:          Wvel (THERMODYNAMICS) mean= -2.48068626252097E-07
DEBUG_STATS_RL:          Wvel (THERMODYNAMICS) S.D.=  6.30996989662983E-06
DEBUG_STATS_RL:         Theta (THERMODYNAMICS)  min=  1.60523823803972E+01
DEBUG_STATS_RL:         Theta (THERMODYNAMICS)  max=  2.40010689570287E+01
DEBUG_STATS_RL:         Theta (THERMODYNAMICS) mean=  2.00050345594784E+01
DEBUG_STATS_RL:         Theta (THERMODYNAMICS) S.D.=  1.02571907065907E-01
DEBUG_STATS_RL:          Salt (THERMODYNAMICS)  min=  2.30691548969293E+01
DEBUG_STATS_RL:          Salt (THERMODYNAMICS)  max=  3.51507899694324E+01
DEBUG_STATS_RL:          Salt (THERMODYNAMICS) mean=  3.49966479515816E+01
DEBUG_STATS_RL:          Salt (THERMODYNAMICS) S.D.=  1.37479422908739E-01
DEBUG_STATS_RL:         GtNm1 (THERMODYNAMICS)  min= -3.08306296456375E-06
DEBUG_STATS_RL:         GtNm1 (THERMODYNAMICS)  max=  5.25083211698704E-06
DEBUG_STATS_RL:         GtNm1 (THERMODYNAMICS) mean=  1.28631521458860E-09
DEBUG_STATS_RL:         GtNm1 (THERMODYNAMICS) S.D.=  6.87821196196173E-08
DEBUG_STATS_RL:         GsNm1 (THERMODYNAMICS)  min= -1.39743998968577E-05
DEBUG_STATS_RL:         GsNm1 (THERMODYNAMICS)  max=  2.53133722262511E-06
DEBUG_STATS_RL:         GsNm1 (THERMODYNAMICS) mean= -4.02301875174401E-09
DEBUG_STATS_RL:         GsNm1 (THERMODYNAMICS) S.D.=  1.56296749111455E-07
(PID.TID 0000.0001) DEBUG_MSG: LEAVING S/R THERMODYNAMICS
(PID.TID 0000.0001) // =======================================================
(PID.TID 0000.0001) // Begin MONITOR dynamic field statistics
(PID.TID 0000.0001) // =======================================================
(PID.TID 0000.0001) %MON time_tsnumber                =                    88
(PID.TID 0000.0001) %MON time_secondsf                =   7.9200000000000E+04
(PID.TID 0000.0001) %MON dynstat_eta_max              =   1.3143976682032E+00
(PID.TID 0000.0001) %MON dynstat_eta_min              =  -5.1437656979808E-01
(PID.TID 0000.0001) %MON dynstat_eta_mean             =   4.6113042513656E-02
(PID.TID 0000.0001) %MON dynstat_eta_sd               =   6.9086940257082E-02
(PID.TID 0000.0001) %MON dynstat_eta_del2             =   1.0188881978842E-03
(PID.TID 0000.0001) %MON dynstat_uvel_max             =   3.2622801552326E-01
(PID.TID 0000.0001) %MON dynstat_uvel_min             =  -5.7161892790315E-01
(PID.TID 0000.0001) %MON dynstat_uvel_mean            =  -1.4710521950527E-04
(PID.TID 0000.0001) %MON dynstat_uvel_sd              =   6.7282377961612E-03
(PID.TID 0000.0001) %MON dynstat_uvel_del2            =   9.2007879173847E-05
(PID.TID 0000.0001) %MON dynstat_vvel_max             =   3.7087824841675E-01
(PID.TID 0000.0001) %MON dynstat_vvel_min             =  -3.9346001697629E-01
(PID.TID 0000.0001) %MON dynstat_vvel_mean            =   4.3168928237655E-04
(PID.TID 0000.0001) %MON dynstat_vvel_sd              =   7.3576931557879E-03
(PID.TID 0000.0001) %MON dynstat_vvel_del2            =   9.7164258232040E-05
(PID.TID 0000.0001) %MON dynstat_wvel_max             =   1.3776675042039E-04
(PID.TID 0000.0001) %MON dynstat_wvel_min             =  -1.0431490964806E-04
(PID.TID 0000.0001) %MON dynstat_wvel_mean            =  -9.5521916641196E-08
(PID.TID 0000.0001) %MON dynstat_wvel_sd              =   6.0537774291513E-06
(PID.TID 0000.0001) %MON dynstat_wvel_del2            =   6.6890697157670E-08
(PID.TID 0000.0001) %MON dynstat_theta_max            =   2.4001068957029E+01
(PID.TID 0000.0001) %MON dynstat_theta_min            =   1.6052382380397E+01
(PID.TID 0000.0001) %MON dynstat_theta_mean           =   1.9997929822853E+01
(PID.TID 0000.0001) %MON dynstat_theta_sd             =   3.3727680854732E-02
(PID.TID 0000.0001) %MON dynstat_theta_del2           =   5.7465336172694E-04
(PID.TID 0000.0001) %MON dynstat_salt_max             =   3.5150789969432E+01
(PID.TID 0000.0001) %MON dynstat_salt_min             =   2.3069154896929E+01
(PID.TID 0000.0001) %MON dynstat_salt_mean            =   3.4999564218203E+01
(PID.TID 0000.0001) %MON dynstat_salt_sd              =   4.2423576636270E-02
(PID.TID 0000.0001) %MON dynstat_salt_del2            =   1.4506076101806E-03
(PID.TID 0000.0001) %MON dynstat_sst_max              =   2.4001068957029E+01
(PID.TID 0000.0001) %MON dynstat_sst_min              =   1.6052382380397E+01
(PID.TID 0000.0001) %MON dynstat_sst_mean             =   2.0169293020919E+01
(PID.TID 0000.0001) %MON dynstat_sst_sd               =   3.1619713580913E-01
(PID.TID 0000.0001) %MON dynstat_sst_del2             =   6.8322137615241E-03
(PID.TID 0000.0001) %MON dynstat_sss_max              =   3.5150789969432E+01
(PID.TID 0000.0001) %MON dynstat_sss_min              =   2.3069154896929E+01
(PID.TID 0000.0001) %MON dynstat_sss_mean             =   3.4960155494997E+01
(PID.TID 0000.0001) %MON dynstat_sss_sd               =   5.1149323045999E-01
(PID.TID 0000.0001) %MON dynstat_sss_del2             =   1.9629817949256E-02
(PID.TID 0000.0001) %MON forcing_qnet_max             =   3.1363522846791E+03
(PID.TID 0000.0001) %MON forcing_qnet_min             =  -2.3956491699219E+03
(PID.TID 0000.0001) %MON forcing_qnet_mean            =  -1.8206825326420E+01
(PID.TID 0000.0001) %MON forcing_qnet_sd              =   4.3370084587422E+02
(PID.TID 0000.0001) %MON forcing_qnet_del2            =   4.9570414421575E+00
(PID.TID 0000.0001) %MON forcing_qsw_max              =   0.0000000000000E+00
(PID.TID 0000.0001) %MON forcing_qsw_min              =  -1.0642945846360E+02
(PID.TID 0000.0001) %MON forcing_qsw_mean             =  -2.0194373915066E+01
(PID.TID 0000.0001) %MON forcing_qsw_sd               =   2.8894519990819E+01
(PID.TID 0000.0001) %MON forcing_qsw_del2             =   2.3794888830624E-01
(PID.TID 0000.0001) %MON forcing_empmr_max            =   4.5066941529512E-03
(PID.TID 0000.0001) %MON forcing_empmr_min            =  -6.4761534333229E-02
(PID.TID 0000.0001) %MON forcing_empmr_mean           =  -3.4005206259116E-04
(PID.TID 0000.0001) %MON forcing_empmr_sd             =   2.8962005554719E-03
(PID.TID 0000.0001) %MON forcing_empmr_del2           =   1.1263697980068E-04
(PID.TID 0000.0001) %MON forcing_fu_max               =   4.9226591674138E-01
(PID.TID 0000.0001) %MON forcing_fu_min               =  -5.9148154313949E-01
(PID.TID 0000.0001) %MON forcing_fu_mean              =  -1.6174697511575E-03
(PID.TID 0000.0001) %MON forcing_fu_sd                =   7.8871534576046E-02
(PID.TID 0000.0001) %MON forcing_fu_del2              =   6.7350028965836E-04
(PID.TID 0000.0001) %MON forcing_fv_max               =   3.3490335806731E-01
(PID.TID 0000.0001) %MON forcing_fv_min               =  -3.1163739342959E-01
(PID.TID 0000.0001) %MON forcing_fv_mean              =  -6.9377946853637E-03
(PID.TID 0000.0001) %MON forcing_fv_sd                =   7.1438771785790E-02
(PID.TID 0000.0001) %MON forcing_fv_del2              =   5.6643456957102E-04
(PID.TID 0000.0001) %MON trAdv_CFL_u_max              =   1.6597552312457E-03
(PID.TID 0000.0001) %MON trAdv_CFL_v_max              =   1.5150987363598E-03
(PID.TID 0000.0001) %MON trAdv_CFL_w_max              =   2.1409148665898E-03
(PID.TID 0000.0001) %MON advcfl_uvel_max              =   1.6490291707503E-03
(PID.TID 0000.0001) %MON advcfl_vvel_max              =   1.4554766433990E-03
(PID.TID 0000.0001) %MON advcfl_wvel_max              =   4.5051502144855E-03
(PID.TID 0000.0001) %MON advcfl_W_hf_max              =   2.1409148665898E-03
(PID.TID 0000.0001) %MON pe_b_mean                    =   9.1911853928458E-06
(PID.TID 0000.0001) %MON ke_max                       =   1.2153882787095E-01
(PID.TID 0000.0001) %MON ke_mean                      =   4.6011674765296E-05
(PID.TID 0000.0001) %MON ke_vol                       =   1.3398191176870E+18
(PID.TID 0000.0001) %MON vort_r_min                   =  -2.5945766402767E-06
(PID.TID 0000.0001) %MON vort_r_max                   =   2.6110180314476E-06
(PID.TID 0000.0001) %MON vort_a_mean                  =  -2.0549865324846E-05
(PID.TID 0000.0001) %MON vort_a_sd                    =   7.5259403328841E-05
(PID.TID 0000.0001) %MON vort_p_mean                  =  -2.4783211588257E-05
(PID.TID 0000.0001) %MON vort_p_sd                    =   1.2810504723583E-04
(PID.TID 0000.0001) %MON surfExpan_theta_mean         =  -4.8860758912714E-07
(PID.TID 0000.0001) %MON surfExpan_salt_mean          =   1.3937742420544E-06
(PID.TID 0000.0001) // =======================================================
(PID.TID 0000.0001) // End MONITOR dynamic field statistics
(PID.TID 0000.0001) // =======================================================
(PID.TID 0000.0001) DEBUG_MSG: LEAVING S/R FORWARD_STEP
(PID.TID 0000.0001) DEBUG_MSG: ENTERED S/R FORWARD_STEP
(PID.TID 0000.0001) DEBUG_MSG: CALLING S/R LOAD_FIELDS_DRIVER
(PID.TID 0000.0001) DEBUG_MSG: ENTERED S/R LOAD_FIELDS_DRIVER
(PID.TID 0000.0001) DEBUG_MSG: CALLING S/R EXTERNAL_FIELDS_LOAD
(PID.TID 0000.0001) DEBUG_MSG: LEAVING S/R LOAD_FIELDS_DRIVER
(PID.TID 0000.0001) DEBUG_MSG: CALLING S/R DO_ATMOSPHERIC_PHYS
(PID.TID 0000.0001) DEBUG_MSG: ENTERED S/R DO_ATMOSPHERIC_PHYS
(PID.TID 0000.0001) DEBUG_MSG: LEAVING S/R DO_ATMOSPHERIC_PHYS
(PID.TID 0000.0001) DEBUG_MSG: CALLING S/R DO_OCEANIC_PHYS
(PID.TID 0000.0001) DEBUG_MSG: ENTERED S/R DO_OCEANIC_PHYS
(PID.TID 0000.0001) DEBUG_MSG: CALLING S/R EXTERNAL_FORCING_SURF
(PID.TID 0000.0001) DEBUG_MSG: CALLING S/R FIND_RHO_2D (xNr)
(PID.TID 0000.0001) DEBUG_MSG:                  ENTERING UPWARD K LOOP (bi=   1, bj=   1)
(PID.TID 0000.0001) DEBUG_MSG: CALLING S/R GRAD_SIGMA
(PID.TID 0000.0001) DEBUG_MSG: CALLING S/R CALC_IVDC
(PID.TID 0000.0001) DEBUG_MSG: CALLING S/R GRAD_SIGMA
(PID.TID 0000.0001) DEBUG_MSG: CALLING S/R CALC_IVDC
(PID.TID 0000.0001) DEBUG_MSG: CALLING S/R GRAD_SIGMA
(PID.TID 0000.0001) DEBUG_MSG: CALLING S/R CALC_IVDC
(PID.TID 0000.0001) DEBUG_MSG: CALLING S/R GRAD_SIGMA
(PID.TID 0000.0001) DEBUG_MSG: CALLING S/R CALC_IVDC
(PID.TID 0000.0001) DEBUG_MSG: CALLING S/R GRAD_SIGMA
(PID.TID 0000.0001) DEBUG_MSG: CALLING S/R CALC_IVDC
(PID.TID 0000.0001) DEBUG_MSG: CALLING S/R GRAD_SIGMA
(PID.TID 0000.0001) DEBUG_MSG: CALLING S/R CALC_IVDC
(PID.TID 0000.0001) DEBUG_MSG: CALLING S/R GRAD_SIGMA
(PID.TID 0000.0001) DEBUG_MSG: CALLING S/R CALC_IVDC
(PID.TID 0000.0001) DEBUG_MSG: CALLING S/R GRAD_SIGMA
(PID.TID 0000.0001) DEBUG_MSG: CALLING S/R CALC_IVDC
(PID.TID 0000.0001) DEBUG_MSG: CALLING S/R GRAD_SIGMA
(PID.TID 0000.0001) DEBUG_MSG: CALLING S/R CALC_IVDC
(PID.TID 0000.0001) DEBUG_MSG: CALLING S/R GRAD_SIGMA
(PID.TID 0000.0001) DEBUG_MSG: CALLING S/R CALC_IVDC
(PID.TID 0000.0001) DEBUG_MSG: CALLING S/R GRAD_SIGMA
(PID.TID 0000.0001) DEBUG_MSG: CALLING S/R CALC_IVDC
(PID.TID 0000.0001) DEBUG_MSG: CALLING S/R GRAD_SIGMA
(PID.TID 0000.0001) DEBUG_MSG: CALLING S/R CALC_IVDC
(PID.TID 0000.0001) DEBUG_MSG: CALLING S/R GRAD_SIGMA
(PID.TID 0000.0001) DEBUG_MSG: CALLING S/R CALC_IVDC
(PID.TID 0000.0001) DEBUG_MSG: CALLING S/R GRAD_SIGMA
(PID.TID 0000.0001) DEBUG_MSG: CALLING S/R CALC_IVDC
(PID.TID 0000.0001) DEBUG_MSG: CALLING S/R GRAD_SIGMA
(PID.TID 0000.0001) DEBUG_MSG: CALLING S/R CALC_IVDC
(PID.TID 0000.0001) DEBUG_MSG: CALLING S/R GRAD_SIGMA
(PID.TID 0000.0001) DEBUG_MSG: CALLING S/R GMREDI_CALC_TENSOR
(PID.TID 0000.0001) DEBUG_MSG: LEAVING S/R DO_OCEANIC_PHYS
(PID.TID 0000.0001) DEBUG_MSG: CALLING S/R DYNAMICS
(PID.TID 0000.0001) DEBUG_MSG: ENTERED S/R DYNAMICS
DEBUG_STATS_RL:                EtaN (DYNAMICS)  min= -5.14376569798085E-01
DEBUG_STATS_RL:                EtaN (DYNAMICS)  max=  1.31439766820319E+00
DEBUG_STATS_RL:                EtaN (DYNAMICS) mean=  4.63298023735316E-02
DEBUG_STATS_RL:                EtaN (DYNAMICS) S.D.=  7.28406753804293E-02
DEBUG_STATS_RL:                Uvel (DYNAMICS)  min= -5.71618927903150E-01
DEBUG_STATS_RL:                Uvel (DYNAMICS)  max=  3.26228015523264E-01
DEBUG_STATS_RL:                Uvel (DYNAMICS) mean= -7.89424195440351E-04
DEBUG_STATS_RL:                Uvel (DYNAMICS) S.D.=  2.05158017096299E-02
DEBUG_STATS_RL:                Vvel (DYNAMICS)  min= -3.93460016976295E-01
DEBUG_STATS_RL:                Vvel (DYNAMICS)  max=  3.70878248416753E-01
DEBUG_STATS_RL:                Vvel (DYNAMICS) mean= -6.34212020760329E-04
DEBUG_STATS_RL:                Vvel (DYNAMICS) S.D.=  2.23057057157365E-02
DEBUG_STATS_RL:                Wvel (DYNAMICS)  min= -1.04314909648062E-04
DEBUG_STATS_RL:                Wvel (DYNAMICS)  max=  1.37766750420386E-04
DEBUG_STATS_RL:                Wvel (DYNAMICS) mean= -2.48068626252097E-07
DEBUG_STATS_RL:                Wvel (DYNAMICS) S.D.=  6.30996989662983E-06
DEBUG_STATS_RL:               Theta (DYNAMICS)  min=  1.60523823803972E+01
DEBUG_STATS_RL:               Theta (DYNAMICS)  max=  2.40010689570287E+01
DEBUG_STATS_RL:               Theta (DYNAMICS) mean=  2.00050345594784E+01
DEBUG_STATS_RL:               Theta (DYNAMICS) S.D.=  1.02571907065907E-01
DEBUG_STATS_RL:                Salt (DYNAMICS)  min=  2.30691548969293E+01
DEBUG_STATS_RL:                Salt (DYNAMICS)  max=  3.51507899694324E+01
DEBUG_STATS_RL:                Salt (DYNAMICS) mean=  3.49966479515816E+01
DEBUG_STATS_RL:                Salt (DYNAMICS) S.D.=  1.37479422908739E-01
DEBUG_STATS_RL:                  Gu (DYNAMICS)  min= -5.66676991037347E-01
DEBUG_STATS_RL:                  Gu (DYNAMICS)  max=  3.28292115385611E-01
DEBUG_STATS_RL:                  Gu (DYNAMICS) mean= -8.03192678484425E-04
DEBUG_STATS_RL:                  Gu (DYNAMICS) S.D.=  2.04707304518896E-02
DEBUG_STATS_RL:                  Gv (DYNAMICS)  min= -3.91613954584950E-01
DEBUG_STATS_RL:                  Gv (DYNAMICS)  max=  3.78898151431951E-01
DEBUG_STATS_RL:                  Gv (DYNAMICS) mean= -6.11742941756320E-04
DEBUG_STATS_RL:                  Gv (DYNAMICS) S.D.=  2.24158578478626E-02
DEBUG_STATS_RL:               GuNm1 (DYNAMICS)  min= -2.61457919848934E-05
DEBUG_STATS_RL:               GuNm1 (DYNAMICS)  max=  1.92067299213711E-05
DEBUG_STATS_RL:               GuNm1 (DYNAMICS) mean= -1.61437423101305E-08
DEBUG_STATS_RL:               GuNm1 (DYNAMICS) S.D.=  1.17226556806496E-06
DEBUG_STATS_RL:               GvNm1 (DYNAMICS)  min= -1.81891078420559E-05
DEBUG_STATS_RL:               GvNm1 (DYNAMICS)  max=  3.49903530942518E-05
DEBUG_STATS_RL:               GvNm1 (DYNAMICS) mean=  2.22573089694652E-08
DEBUG_STATS_RL:               GvNm1 (DYNAMICS) S.D.=  1.12186550422189E-06
DEBUG_STATS_RL:               GtNm1 (DYNAMICS)  min= -3.08306296456375E-06
DEBUG_STATS_RL:               GtNm1 (DYNAMICS)  max=  5.25083211698704E-06
DEBUG_STATS_RL:               GtNm1 (DYNAMICS) mean=  1.28631521458860E-09
DEBUG_STATS_RL:               GtNm1 (DYNAMICS) S.D.=  6.87821196196173E-08
DEBUG_STATS_RL:               GsNm1 (DYNAMICS)  min= -1.39743998968577E-05
DEBUG_STATS_RL:               GsNm1 (DYNAMICS)  max=  2.53133722262511E-06
DEBUG_STATS_RL:               GsNm1 (DYNAMICS) mean= -4.02301875174401E-09
DEBUG_STATS_RL:               GsNm1 (DYNAMICS) S.D.=  1.56296749111455E-07
(PID.TID 0000.0001) DEBUG_MSG: LEAVING S/R DYNAMICS
DEBUG_STATS_RL:    cg2d_b (SOLVE_FOR_PRESSURE)  min= -1.60852870231400E+05
DEBUG_STATS_RL:    cg2d_b (SOLVE_FOR_PRESSURE)  max=  5.25412109669745E+04
DEBUG_STATS_RL:    cg2d_b (SOLVE_FOR_PRESSURE) mean= -4.71671247460307E+03
DEBUG_STATS_RL:    cg2d_b (SOLVE_FOR_PRESSURE) S.D.=  7.20118918811750E+03
 cg2d: Sum(rhs),rhsMax =  -1.29608312912006E+02  3.08138832809558E+01
(PID.TID 0000.0001)  cg2d: iter=     1 ; resid.=  2.67636734507085E-02
(PID.TID 0000.0001)  cg2d: iter=     2 ; resid.=  3.54003898445093E-03
(PID.TID 0000.0001)  cg2d: iter=     3 ; resid.=  7.98692955633501E-04
(PID.TID 0000.0001)  cg2d: iter=     4 ; resid.=  2.28188462833654E-04
(PID.TID 0000.0001)  cg2d: iter=     5 ; resid.=  7.44045935415283E-05
(PID.TID 0000.0001)  cg2d: iter=     6 ; resid.=  1.61135727000026E-05
(PID.TID 0000.0001)  cg2d: iter=     7 ; resid.=  3.24882402140620E-06
(PID.TID 0000.0001)  cg2d: iter=     8 ; resid.=  8.33925128536835E-07
(PID.TID 0000.0001)  cg2d: iter=     9 ; resid.=  2.27110407000300E-07
(PID.TID 0000.0001)  cg2d: iter=    10 ; resid.=  6.14759526204771E-08
DEBUG_STATS_RL:    cg2d_x (SOLVE_FOR_PRESSURE)  min= -5.70071346362121E+00
DEBUG_STATS_RL:    cg2d_x (SOLVE_FOR_PRESSURE)  max=  1.29657714771442E+01
DEBUG_STATS_RL:    cg2d_x (SOLVE_FOR_PRESSURE) mean=  4.57097986924379E-01
DEBUG_STATS_RL:    cg2d_x (SOLVE_FOR_PRESSURE) S.D.=  7.10962615995399E-01
(PID.TID 0000.0001)      cg2d_init_res =   2.27964391415763E-01
(PID.TID 0000.0001)      cg2d_iters(min,last) =      -1      10
(PID.TID 0000.0001)      cg2d_last_res =   6.14759526204771E-08
(PID.TID 0000.0001) DEBUG_MSG: CALLING S/R UPDATE_ETAH
(PID.TID 0000.0001) DEBUG_MSG: ENTERED S/R CALC_R_STAR
(PID.TID 0000.0001) DEBUG_MSG: LEAVING S/R CALC_R_STAR
(PID.TID 0000.0001) DEBUG_MSG: CALLING S/R DO_STAGGER_FIELDS_EXCH.
(PID.TID 0000.0001) DEBUG_MSG: CALLING S/R THERMODYNAMICS
(PID.TID 0000.0001) DEBUG_MSG: ENTERED S/R THERMODYNAMICS
(PID.TID 0000.0001) DEBUG_MSG: CALLING S/R TEMP_INTEGRATE
(PID.TID 0000.0001) DEBUG_MSG: CALLING S/R SALT_INTEGRATE
DEBUG_STATS_RL:          Uvel (THERMODYNAMICS)  min= -5.64239898166254E-01
DEBUG_STATS_RL:          Uvel (THERMODYNAMICS)  max=  3.11433370762904E-01
DEBUG_STATS_RL:          Uvel (THERMODYNAMICS) mean= -8.14438823533267E-04
DEBUG_STATS_RL:          Uvel (THERMODYNAMICS) S.D.=  2.04744232626953E-02
DEBUG_STATS_RL:          Vvel (THERMODYNAMICS)  min= -3.91075663208601E-01
DEBUG_STATS_RL:          Vvel (THERMODYNAMICS)  max=  3.78249074300725E-01
DEBUG_STATS_RL:          Vvel (THERMODYNAMICS) mean= -6.12114330558444E-04
DEBUG_STATS_RL:          Vvel (THERMODYNAMICS) S.D.=  2.24413151703825E-02
DEBUG_STATS_RL:          Wvel (THERMODYNAMICS)  min= -1.00235322745077E-04
DEBUG_STATS_RL:          Wvel (THERMODYNAMICS)  max=  1.35344753019764E-04
DEBUG_STATS_RL:          Wvel (THERMODYNAMICS) mean= -2.46965028182276E-07
DEBUG_STATS_RL:          Wvel (THERMODYNAMICS) S.D.=  6.26808340537631E-06
DEBUG_STATS_RL:         Theta (THERMODYNAMICS)  min=  1.60542064313425E+01
DEBUG_STATS_RL:         Theta (THERMODYNAMICS)  max=  2.40251213583773E+01
DEBUG_STATS_RL:         Theta (THERMODYNAMICS) mean=  2.00051263270386E+01
DEBUG_STATS_RL:         Theta (THERMODYNAMICS) S.D.=  1.03083153050785E-01
DEBUG_STATS_RL:          Salt (THERMODYNAMICS)  min=  2.30300630494932E+01
DEBUG_STATS_RL:          Salt (THERMODYNAMICS)  max=  3.51508127310780E+01
DEBUG_STATS_RL:          Salt (THERMODYNAMICS) mean=  3.49966305387687E+01
DEBUG_STATS_RL:          Salt (THERMODYNAMICS) S.D.=  1.37967190145083E-01
DEBUG_STATS_RL:         GtNm1 (THERMODYNAMICS)  min= -3.08327231654375E-06
DEBUG_STATS_RL:         GtNm1 (THERMODYNAMICS)  max=  5.01080049275913E-06
DEBUG_STATS_RL:         GtNm1 (THERMODYNAMICS) mean=  1.25220493907973E-09
DEBUG_STATS_RL:         GtNm1 (THERMODYNAMICS) S.D.=  6.75927475331418E-08
DEBUG_STATS_RL:         GsNm1 (THERMODYNAMICS)  min= -1.38836986231845E-05
DEBUG_STATS_RL:         GsNm1 (THERMODYNAMICS)  max=  2.54279029875213E-06
DEBUG_STATS_RL:         GsNm1 (THERMODYNAMICS) mean= -3.98657790536511E-09
DEBUG_STATS_RL:         GsNm1 (THERMODYNAMICS) S.D.=  1.54877838088793E-07
(PID.TID 0000.0001) DEBUG_MSG: LEAVING S/R THERMODYNAMICS
(PID.TID 0000.0001) // =======================================================
(PID.TID 0000.0001) // Begin MONITOR dynamic field statistics
(PID.TID 0000.0001) // =======================================================
(PID.TID 0000.0001) %MON time_tsnumber                =                    89
(PID.TID 0000.0001) %MON time_secondsf                =   8.0100000000000E+04
(PID.TID 0000.0001) %MON dynstat_eta_max              =   1.3216892436554E+00
(PID.TID 0000.0001) %MON dynstat_eta_min              =  -5.8111248372856E-01
(PID.TID 0000.0001) %MON dynstat_eta_mean             =   4.6406676201534E-02
(PID.TID 0000.0001) %MON dynstat_eta_sd               =   6.8669775613289E-02
(PID.TID 0000.0001) %MON dynstat_eta_del2             =   1.0099972704340E-03
(PID.TID 0000.0001) %MON dynstat_uvel_max             =   3.1143337076290E-01
(PID.TID 0000.0001) %MON dynstat_uvel_min             =  -5.6423989816625E-01
(PID.TID 0000.0001) %MON dynstat_uvel_mean            =  -1.5303041428103E-04
(PID.TID 0000.0001) %MON dynstat_uvel_sd              =   6.7137565597260E-03
(PID.TID 0000.0001) %MON dynstat_uvel_del2            =   9.2181244477031E-05
(PID.TID 0000.0001) %MON dynstat_vvel_max             =   3.7824907430072E-01
(PID.TID 0000.0001) %MON dynstat_vvel_min             =  -3.9107566320860E-01
(PID.TID 0000.0001) %MON dynstat_vvel_mean            =   4.1986316659601E-04
(PID.TID 0000.0001) %MON dynstat_vvel_sd              =   7.3927782729467E-03
(PID.TID 0000.0001) %MON dynstat_vvel_del2            =   9.6251772890933E-05
(PID.TID 0000.0001) %MON dynstat_wvel_max             =   1.3534475301976E-04
(PID.TID 0000.0001) %MON dynstat_wvel_min             =  -1.0023532274508E-04
(PID.TID 0000.0001) %MON dynstat_wvel_mean            =  -9.4014115021626E-08
(PID.TID 0000.0001) %MON dynstat_wvel_sd              =   6.0150344031067E-06
(PID.TID 0000.0001) %MON dynstat_wvel_del2            =   6.6433951060993E-08
(PID.TID 0000.0001) %MON dynstat_theta_max            =   2.4025121358377E+01
(PID.TID 0000.0001) %MON dynstat_theta_min            =   1.6054206431343E+01
(PID.TID 0000.0001) %MON dynstat_theta_mean           =   1.9997931043155E+01
(PID.TID 0000.0001) %MON dynstat_theta_sd             =   3.3891737350415E-02
(PID.TID 0000.0001) %MON dynstat_theta_del2           =   5.7663580130830E-04
(PID.TID 0000.0001) %MON dynstat_salt_max             =   3.5150812731078E+01
(PID.TID 0000.0001) %MON dynstat_salt_min             =   2.3030063049493E+01
(PID.TID 0000.0001) %MON dynstat_salt_mean            =   3.4999561806200E+01
(PID.TID 0000.0001) %MON dynstat_salt_sd              =   4.2574016303167E-02
(PID.TID 0000.0001) %MON dynstat_salt_del2            =   1.4550775750937E-03
(PID.TID 0000.0001) %MON dynstat_sst_max              =   2.4025121358377E+01
(PID.TID 0000.0001) %MON dynstat_sst_min              =   1.6054206431343E+01
(PID.TID 0000.0001) %MON dynstat_sst_mean             =   2.0170674069252E+01
(PID.TID 0000.0001) %MON dynstat_sst_sd               =   3.1779207434535E-01
(PID.TID 0000.0001) %MON dynstat_sst_del2             =   6.8614842848510E-03
(PID.TID 0000.0001) %MON dynstat_sss_max              =   3.5150812731078E+01
(PID.TID 0000.0001) %MON dynstat_sss_min              =   2.3030063049493E+01
(PID.TID 0000.0001) %MON dynstat_sss_mean             =   3.4959948103844E+01
(PID.TID 0000.0001) %MON dynstat_sss_sd               =   5.1329902116000E-01
(PID.TID 0000.0001) %MON dynstat_sss_del2             =   1.9690165656892E-02
(PID.TID 0000.0001) %MON forcing_qnet_max             =   3.2463171692864E+03
(PID.TID 0000.0001) %MON forcing_qnet_min             =  -2.3620075683594E+03
(PID.TID 0000.0001) %MON forcing_qnet_mean            =  -1.9267408921605E+01
(PID.TID 0000.0001) %MON forcing_qnet_sd              =   4.3311876843565E+02
(PID.TID 0000.0001) %MON forcing_qnet_del2            =   4.9158188566254E+00
(PID.TID 0000.0001) %MON forcing_qsw_max              =   0.0000000000000E+00
(PID.TID 0000.0001) %MON forcing_qsw_min              =  -1.0766325995979E+02
(PID.TID 0000.0001) %MON forcing_qsw_mean             =  -2.0802393620542E+01
(PID.TID 0000.0001) %MON forcing_qsw_sd               =   2.9591556917419E+01
(PID.TID 0000.0001) %MON forcing_qsw_del2             =   2.3580207305459E-01
(PID.TID 0000.0001) %MON forcing_empmr_max            =   4.4604446738958E-03
(PID.TID 0000.0001) %MON forcing_empmr_min            =  -6.4095295965672E-02
(PID.TID 0000.0001) %MON forcing_empmr_mean           =  -3.3767874105997E-04
(PID.TID 0000.0001) %MON forcing_empmr_sd             =   2.8677317236377E-03
(PID.TID 0000.0001) %MON forcing_empmr_del2           =   1.1148420974278E-04
(PID.TID 0000.0001) %MON forcing_fu_max               =   4.8685665892891E-01
(PID.TID 0000.0001) %MON forcing_fu_min               =  -5.8667394963129E-01
(PID.TID 0000.0001) %MON forcing_fu_mean              =  -1.7210773749376E-03
(PID.TID 0000.0001) %MON forcing_fu_sd                =   7.8566142678418E-02
(PID.TID 0000.0001) %MON forcing_fu_del2              =   6.7071473086046E-04
(PID.TID 0000.0001) %MON forcing_fv_max               =   3.2991436996972E-01
(PID.TID 0000.0001) %MON forcing_fv_min               =  -3.1402231362967E-01
(PID.TID 0000.0001) %MON forcing_fv_mean              =  -6.9284335129304E-03
(PID.TID 0000.0001) %MON forcing_fv_sd                =   7.1415899227693E-02
(PID.TID 0000.0001) %MON forcing_fv_del2              =   5.6437522228743E-04
(PID.TID 0000.0001) %MON trAdv_CFL_u_max              =   1.6396269108556E-03
(PID.TID 0000.0001) %MON trAdv_CFL_v_max              =   1.5092120280935E-03
(PID.TID 0000.0001) %MON trAdv_CFL_w_max              =   2.1286370331138E-03
(PID.TID 0000.0001) %MON advcfl_uvel_max              =   1.6277418503101E-03
(PID.TID 0000.0001) %MON advcfl_vvel_max              =   1.4497871390257E-03
(PID.TID 0000.0001) %MON advcfl_wvel_max              =   4.4588031976119E-03
(PID.TID 0000.0001) %MON advcfl_W_hf_max              =   2.1286370331138E-03
(PID.TID 0000.0001) %MON pe_b_mean                    =   9.1508195278325E-06
(PID.TID 0000.0001) %MON ke_max                       =   1.2273513865600E-01
(PID.TID 0000.0001) %MON ke_mean                      =   4.6158489012741E-05
(PID.TID 0000.0001) %MON ke_vol                       =   1.3398192252874E+18
(PID.TID 0000.0001) %MON vort_r_min                   =  -2.5954372451364E-06
(PID.TID 0000.0001) %MON vort_r_max                   =   2.6150128426464E-06
(PID.TID 0000.0001) %MON vort_a_mean                  =  -2.0549865324846E-05
(PID.TID 0000.0001) %MON vort_a_sd                    =   7.5259402494581E-05
(PID.TID 0000.0001) %MON vort_p_mean                  =  -2.4783209654477E-05
(PID.TID 0000.0001) %MON vort_p_sd                    =   1.2810504609966E-04
(PID.TID 0000.0001) %MON surfExpan_theta_mean         =  -4.7316786731884E-07
(PID.TID 0000.0001) %MON surfExpan_salt_mean          =   1.3797470436955E-06
(PID.TID 0000.0001) // =======================================================
(PID.TID 0000.0001) // End MONITOR dynamic field statistics
(PID.TID 0000.0001) // =======================================================
(PID.TID 0000.0001) DEBUG_MSG: LEAVING S/R FORWARD_STEP
(PID.TID 0000.0001) DEBUG_MSG: ENTERED S/R FORWARD_STEP
(PID.TID 0000.0001) DEBUG_MSG: CALLING S/R LOAD_FIELDS_DRIVER
(PID.TID 0000.0001) DEBUG_MSG: ENTERED S/R LOAD_FIELDS_DRIVER
(PID.TID 0000.0001) DEBUG_MSG: CALLING S/R EXTERNAL_FIELDS_LOAD
(PID.TID 0000.0001) DEBUG_MSG: LEAVING S/R LOAD_FIELDS_DRIVER
(PID.TID 0000.0001) DEBUG_MSG: CALLING S/R DO_ATMOSPHERIC_PHYS
(PID.TID 0000.0001) DEBUG_MSG: ENTERED S/R DO_ATMOSPHERIC_PHYS
(PID.TID 0000.0001) DEBUG_MSG: LEAVING S/R DO_ATMOSPHERIC_PHYS
(PID.TID 0000.0001) DEBUG_MSG: CALLING S/R DO_OCEANIC_PHYS
(PID.TID 0000.0001) DEBUG_MSG: ENTERED S/R DO_OCEANIC_PHYS
(PID.TID 0000.0001) DEBUG_MSG: CALLING S/R EXTERNAL_FORCING_SURF
(PID.TID 0000.0001) DEBUG_MSG: CALLING S/R FIND_RHO_2D (xNr)
(PID.TID 0000.0001) DEBUG_MSG:                  ENTERING UPWARD K LOOP (bi=   1, bj=   1)
(PID.TID 0000.0001) DEBUG_MSG: CALLING S/R GRAD_SIGMA
(PID.TID 0000.0001) DEBUG_MSG: CALLING S/R CALC_IVDC
(PID.TID 0000.0001) DEBUG_MSG: CALLING S/R GRAD_SIGMA
(PID.TID 0000.0001) DEBUG_MSG: CALLING S/R CALC_IVDC
(PID.TID 0000.0001) DEBUG_MSG: CALLING S/R GRAD_SIGMA
(PID.TID 0000.0001) DEBUG_MSG: CALLING S/R CALC_IVDC
(PID.TID 0000.0001) DEBUG_MSG: CALLING S/R GRAD_SIGMA
(PID.TID 0000.0001) DEBUG_MSG: CALLING S/R CALC_IVDC
(PID.TID 0000.0001) DEBUG_MSG: CALLING S/R GRAD_SIGMA
(PID.TID 0000.0001) DEBUG_MSG: CALLING S/R CALC_IVDC
(PID.TID 0000.0001) DEBUG_MSG: CALLING S/R GRAD_SIGMA
(PID.TID 0000.0001) DEBUG_MSG: CALLING S/R CALC_IVDC
(PID.TID 0000.0001) DEBUG_MSG: CALLING S/R GRAD_SIGMA
(PID.TID 0000.0001) DEBUG_MSG: CALLING S/R CALC_IVDC
(PID.TID 0000.0001) DEBUG_MSG: CALLING S/R GRAD_SIGMA
(PID.TID 0000.0001) DEBUG_MSG: CALLING S/R CALC_IVDC
(PID.TID 0000.0001) DEBUG_MSG: CALLING S/R GRAD_SIGMA
(PID.TID 0000.0001) DEBUG_MSG: CALLING S/R CALC_IVDC
(PID.TID 0000.0001) DEBUG_MSG: CALLING S/R GRAD_SIGMA
(PID.TID 0000.0001) DEBUG_MSG: CALLING S/R CALC_IVDC
(PID.TID 0000.0001) DEBUG_MSG: CALLING S/R GRAD_SIGMA
(PID.TID 0000.0001) DEBUG_MSG: CALLING S/R CALC_IVDC
(PID.TID 0000.0001) DEBUG_MSG: CALLING S/R GRAD_SIGMA
(PID.TID 0000.0001) DEBUG_MSG: CALLING S/R CALC_IVDC
(PID.TID 0000.0001) DEBUG_MSG: CALLING S/R GRAD_SIGMA
(PID.TID 0000.0001) DEBUG_MSG: CALLING S/R CALC_IVDC
(PID.TID 0000.0001) DEBUG_MSG: CALLING S/R GRAD_SIGMA
(PID.TID 0000.0001) DEBUG_MSG: CALLING S/R CALC_IVDC
(PID.TID 0000.0001) DEBUG_MSG: CALLING S/R GRAD_SIGMA
(PID.TID 0000.0001) DEBUG_MSG: CALLING S/R CALC_IVDC
(PID.TID 0000.0001) DEBUG_MSG: CALLING S/R GRAD_SIGMA
(PID.TID 0000.0001) DEBUG_MSG: CALLING S/R GMREDI_CALC_TENSOR
(PID.TID 0000.0001) DEBUG_MSG: LEAVING S/R DO_OCEANIC_PHYS
(PID.TID 0000.0001) DEBUG_MSG: CALLING S/R DYNAMICS
(PID.TID 0000.0001) DEBUG_MSG: ENTERED S/R DYNAMICS
DEBUG_STATS_RL:                EtaN (DYNAMICS)  min= -5.81112483728557E-01
DEBUG_STATS_RL:                EtaN (DYNAMICS)  max=  1.32168924365539E+00
DEBUG_STATS_RL:                EtaN (DYNAMICS) mean=  4.65951053685450E-02
DEBUG_STATS_RL:                EtaN (DYNAMICS) S.D.=  7.24732534891044E-02
DEBUG_STATS_RL:                Uvel (DYNAMICS)  min= -5.64239898166254E-01
DEBUG_STATS_RL:                Uvel (DYNAMICS)  max=  3.11433370762904E-01
DEBUG_STATS_RL:                Uvel (DYNAMICS) mean= -8.14438823533267E-04
DEBUG_STATS_RL:                Uvel (DYNAMICS) S.D.=  2.04744232626953E-02
DEBUG_STATS_RL:                Vvel (DYNAMICS)  min= -3.91075663208601E-01
DEBUG_STATS_RL:                Vvel (DYNAMICS)  max=  3.78249074300725E-01
DEBUG_STATS_RL:                Vvel (DYNAMICS) mean= -6.12114330558444E-04
DEBUG_STATS_RL:                Vvel (DYNAMICS) S.D.=  2.24413151703825E-02
DEBUG_STATS_RL:                Wvel (DYNAMICS)  min= -1.00235322745077E-04
DEBUG_STATS_RL:                Wvel (DYNAMICS)  max=  1.35344753019764E-04
DEBUG_STATS_RL:                Wvel (DYNAMICS) mean= -2.46965028182276E-07
DEBUG_STATS_RL:                Wvel (DYNAMICS) S.D.=  6.26808340537631E-06
DEBUG_STATS_RL:               Theta (DYNAMICS)  min=  1.60542064313425E+01
DEBUG_STATS_RL:               Theta (DYNAMICS)  max=  2.40251213583773E+01
DEBUG_STATS_RL:               Theta (DYNAMICS) mean=  2.00051263270386E+01
DEBUG_STATS_RL:               Theta (DYNAMICS) S.D.=  1.03083153050785E-01
DEBUG_STATS_RL:                Salt (DYNAMICS)  min=  2.30300630494932E+01
DEBUG_STATS_RL:                Salt (DYNAMICS)  max=  3.51508127310780E+01
DEBUG_STATS_RL:                Salt (DYNAMICS) mean=  3.49966305387687E+01
DEBUG_STATS_RL:                Salt (DYNAMICS) S.D.=  1.37967190145083E-01
DEBUG_STATS_RL:                  Gu (DYNAMICS)  min= -5.59285185809171E-01
DEBUG_STATS_RL:                  Gu (DYNAMICS)  max=  3.13865082574995E-01
DEBUG_STATS_RL:                  Gu (DYNAMICS) mean= -8.27341989748854E-04
DEBUG_STATS_RL:                  Gu (DYNAMICS) S.D.=  2.04299516027822E-02
DEBUG_STATS_RL:                  Gv (DYNAMICS)  min= -4.00042317498037E-01
DEBUG_STATS_RL:                  Gv (DYNAMICS)  max=  3.85397104350763E-01
DEBUG_STATS_RL:                  Gv (DYNAMICS) mean= -5.88101195019330E-04
DEBUG_STATS_RL:                  Gv (DYNAMICS) S.D.=  2.25233911330616E-02
DEBUG_STATS_RL:               GuNm1 (DYNAMICS)  min= -2.66816343566137E-05
DEBUG_STATS_RL:               GuNm1 (DYNAMICS)  max=  1.96917855869588E-05
DEBUG_STATS_RL:               GuNm1 (DYNAMICS) mean= -1.52217320554897E-08
DEBUG_STATS_RL:               GuNm1 (DYNAMICS) S.D.=  1.18186937822715E-06
DEBUG_STATS_RL:               GvNm1 (DYNAMICS)  min= -1.68002401901619E-05
DEBUG_STATS_RL:               GvNm1 (DYNAMICS)  max=  3.56517624632464E-05
DEBUG_STATS_RL:               GvNm1 (DYNAMICS) mean=  2.40580899369122E-08
DEBUG_STATS_RL:               GvNm1 (DYNAMICS) S.D.=  1.10496355763690E-06
DEBUG_STATS_RL:               GtNm1 (DYNAMICS)  min= -3.08327231654375E-06
DEBUG_STATS_RL:               GtNm1 (DYNAMICS)  max=  5.01080049275913E-06
DEBUG_STATS_RL:               GtNm1 (DYNAMICS) mean=  1.25220493907973E-09
DEBUG_STATS_RL:               GtNm1 (DYNAMICS) S.D.=  6.75927475331418E-08
DEBUG_STATS_RL:               GsNm1 (DYNAMICS)  min= -1.38836986231845E-05
DEBUG_STATS_RL:               GsNm1 (DYNAMICS)  max=  2.54279029875213E-06
DEBUG_STATS_RL:               GsNm1 (DYNAMICS) mean= -3.98657790536511E-09
DEBUG_STATS_RL:               GsNm1 (DYNAMICS) S.D.=  1.54877838088793E-07
(PID.TID 0000.0001) DEBUG_MSG: LEAVING S/R DYNAMICS
DEBUG_STATS_RL:    cg2d_b (SOLVE_FOR_PRESSURE)  min= -1.61349808805147E+05
DEBUG_STATS_RL:    cg2d_b (SOLVE_FOR_PRESSURE)  max=  5.57994030041787E+04
DEBUG_STATS_RL:    cg2d_b (SOLVE_FOR_PRESSURE) mean= -4.74641355773079E+03
DEBUG_STATS_RL:    cg2d_b (SOLVE_FOR_PRESSURE) S.D.=  7.16118017963676E+03
 cg2d: Sum(rhs),rhsMax =  -1.30022762843837E+02  3.09090796376464E+01
(PID.TID 0000.0001)  cg2d: iter=     1 ; resid.=  2.63603004992617E-02
(PID.TID 0000.0001)  cg2d: iter=     2 ; resid.=  3.68767906277024E-03
(PID.TID 0000.0001)  cg2d: iter=     3 ; resid.=  9.31824831749661E-04
(PID.TID 0000.0001)  cg2d: iter=     4 ; resid.=  2.88434689228891E-04
(PID.TID 0000.0001)  cg2d: iter=     5 ; resid.=  8.41178436510935E-05
(PID.TID 0000.0001)  cg2d: iter=     6 ; resid.=  1.64276555357617E-05
(PID.TID 0000.0001)  cg2d: iter=     7 ; resid.=  3.33108648475382E-06
(PID.TID 0000.0001)  cg2d: iter=     8 ; resid.=  9.04631428901160E-07
(PID.TID 0000.0001)  cg2d: iter=     9 ; resid.=  2.66755579324586E-07
(PID.TID 0000.0001)  cg2d: iter=    10 ; resid.=  7.71909507674921E-08
DEBUG_STATS_RL:    cg2d_x (SOLVE_FOR_PRESSURE)  min= -6.40637085188819E+00
DEBUG_STATS_RL:    cg2d_x (SOLVE_FOR_PRESSURE)  max=  1.30047958774133E+01
DEBUG_STATS_RL:    cg2d_x (SOLVE_FOR_PRESSURE) mean=  4.59775193240334E-01
DEBUG_STATS_RL:    cg2d_x (SOLVE_FOR_PRESSURE) S.D.=  7.07877361085337E-01
(PID.TID 0000.0001)      cg2d_init_res =   2.22913622033247E-01
(PID.TID 0000.0001)      cg2d_iters(min,last) =      -1      10
(PID.TID 0000.0001)      cg2d_last_res =   7.71909507674921E-08
(PID.TID 0000.0001) DEBUG_MSG: CALLING S/R UPDATE_ETAH
(PID.TID 0000.0001) DEBUG_MSG: ENTERED S/R CALC_R_STAR
(PID.TID 0000.0001) DEBUG_MSG: LEAVING S/R CALC_R_STAR
(PID.TID 0000.0001) DEBUG_MSG: CALLING S/R DO_STAGGER_FIELDS_EXCH.
(PID.TID 0000.0001) DEBUG_MSG: CALLING S/R THERMODYNAMICS
(PID.TID 0000.0001) DEBUG_MSG: ENTERED S/R THERMODYNAMICS
(PID.TID 0000.0001) DEBUG_MSG: CALLING S/R TEMP_INTEGRATE
(PID.TID 0000.0001) DEBUG_MSG: CALLING S/R SALT_INTEGRATE
DEBUG_STATS_RL:          Uvel (THERMODYNAMICS)  min= -5.54519888241100E-01
DEBUG_STATS_RL:          Uvel (THERMODYNAMICS)  max=  2.95117498267447E-01
DEBUG_STATS_RL:          Uvel (THERMODYNAMICS) mean= -8.38255352011110E-04
DEBUG_STATS_RL:          Uvel (THERMODYNAMICS) S.D.=  2.04283485487500E-02
DEBUG_STATS_RL:          Vvel (THERMODYNAMICS)  min= -3.99491072556995E-01
DEBUG_STATS_RL:          Vvel (THERMODYNAMICS)  max=  3.84750544010565E-01
DEBUG_STATS_RL:          Vvel (THERMODYNAMICS) mean= -5.87901377336444E-04
DEBUG_STATS_RL:          Vvel (THERMODYNAMICS) S.D.=  2.25434972104625E-02
DEBUG_STATS_RL:          Wvel (THERMODYNAMICS)  min= -9.64004604912242E-05
DEBUG_STATS_RL:          Wvel (THERMODYNAMICS)  max=  1.32837156562652E-04
DEBUG_STATS_RL:          Wvel (THERMODYNAMICS) mean= -2.46100923346399E-07
DEBUG_STATS_RL:          Wvel (THERMODYNAMICS) S.D.=  6.22882774365329E-06
DEBUG_STATS_RL:         Theta (THERMODYNAMICS)  min=  1.60563236115126E+01
DEBUG_STATS_RL:         Theta (THERMODYNAMICS)  max=  2.40488423095882E+01
DEBUG_STATS_RL:         Theta (THERMODYNAMICS) mean=  2.00052171562273E+01
DEBUG_STATS_RL:         Theta (THERMODYNAMICS) S.D.=  1.03592928973232E-01
DEBUG_STATS_RL:          Salt (THERMODYNAMICS)  min=  2.29917713684513E+01
DEBUG_STATS_RL:          Salt (THERMODYNAMICS)  max=  3.51508352870108E+01
DEBUG_STATS_RL:          Salt (THERMODYNAMICS) mean=  3.49966133711979E+01
DEBUG_STATS_RL:          Salt (THERMODYNAMICS) S.D.=  1.38445133654800E-01
DEBUG_STATS_RL:         GtNm1 (THERMODYNAMICS)  min= -3.08605109225037E-06
DEBUG_STATS_RL:         GtNm1 (THERMODYNAMICS)  max=  4.72559199465465E-06
DEBUG_STATS_RL:         GtNm1 (THERMODYNAMICS) mean=  1.21414427695450E-09
DEBUG_STATS_RL:         GtNm1 (THERMODYNAMICS) S.D.=  6.63511129629493E-08
DEBUG_STATS_RL:         GsNm1 (THERMODYNAMICS)  min= -1.37928833778208E-05
DEBUG_STATS_RL:         GsNm1 (THERMODYNAMICS)  max=  2.55179218570539E-06
DEBUG_STATS_RL:         GsNm1 (THERMODYNAMICS) mean= -3.95032242738593E-09
DEBUG_STATS_RL:         GsNm1 (THERMODYNAMICS) S.D.=  1.53505321618131E-07
(PID.TID 0000.0001) DEBUG_MSG: LEAVING S/R THERMODYNAMICS
(PID.TID 0000.0001) // =======================================================
(PID.TID 0000.0001) // Begin MONITOR dynamic field statistics
(PID.TID 0000.0001) // =======================================================
(PID.TID 0000.0001) %MON time_tsnumber                =                    90
(PID.TID 0000.0001) %MON time_secondsf                =   8.1000000000000E+04
(PID.TID 0000.0001) %MON dynstat_eta_max              =   1.3256672662601E+00
(PID.TID 0000.0001) %MON dynstat_eta_min              =  -6.5304493965661E-01
(PID.TID 0000.0001) %MON dynstat_eta_mean             =   4.6698898497247E-02
(PID.TID 0000.0001) %MON dynstat_eta_sd               =   6.8324056866268E-02
(PID.TID 0000.0001) %MON dynstat_eta_del2             =   1.0086060070981E-03
(PID.TID 0000.0001) %MON dynstat_uvel_max             =   2.9511749826745E-01
(PID.TID 0000.0001) %MON dynstat_uvel_min             =  -5.5451988824110E-01
(PID.TID 0000.0001) %MON dynstat_uvel_mean            =  -1.5810694313465E-04
(PID.TID 0000.0001) %MON dynstat_uvel_sd              =   6.6997102387854E-03
(PID.TID 0000.0001) %MON dynstat_uvel_del2            =   9.2296895150653E-05
(PID.TID 0000.0001) %MON dynstat_vvel_max             =   3.8475054401057E-01
(PID.TID 0000.0001) %MON dynstat_vvel_min             =  -3.9949107255700E-01
(PID.TID 0000.0001) %MON dynstat_vvel_mean            =   4.1056344020663E-04
(PID.TID 0000.0001) %MON dynstat_vvel_sd              =   7.4178243168976E-03
(PID.TID 0000.0001) %MON dynstat_vvel_del2            =   9.5287314641414E-05
(PID.TID 0000.0001) %MON dynstat_wvel_max             =   1.3283715656265E-04
(PID.TID 0000.0001) %MON dynstat_wvel_min             =  -9.6400460491224E-05
(PID.TID 0000.0001) %MON dynstat_wvel_mean            =  -9.3410942170854E-08
(PID.TID 0000.0001) %MON dynstat_wvel_sd              =   5.9793300990180E-06
(PID.TID 0000.0001) %MON dynstat_wvel_del2            =   6.5988142271063E-08
(PID.TID 0000.0001) %MON dynstat_theta_max            =   2.4048842309588E+01
(PID.TID 0000.0001) %MON dynstat_theta_min            =   1.6056323611513E+01
(PID.TID 0000.0001) %MON dynstat_theta_mean           =   1.9997932251597E+01
(PID.TID 0000.0001) %MON dynstat_theta_sd             =   3.4055522292508E-02
(PID.TID 0000.0001) %MON dynstat_theta_del2           =   5.7859520791827E-04
(PID.TID 0000.0001) %MON dynstat_salt_max             =   3.5150835287011E+01
(PID.TID 0000.0001) %MON dynstat_salt_min             =   2.2991771368451E+01
(PID.TID 0000.0001) %MON dynstat_salt_mean            =   3.4999559410253E+01
(PID.TID 0000.0001) %MON dynstat_salt_sd              =   4.2721542980105E-02
(PID.TID 0000.0001) %MON dynstat_salt_del2            =   1.4594392955507E-03
(PID.TID 0000.0001) %MON dynstat_sst_max              =   2.4048842309588E+01
(PID.TID 0000.0001) %MON dynstat_sst_min              =   1.6056323611513E+01
(PID.TID 0000.0001) %MON dynstat_sst_mean             =   2.0172048150721E+01
(PID.TID 0000.0001) %MON dynstat_sst_sd               =   3.1938307562899E-01
(PID.TID 0000.0001) %MON dynstat_sst_del2             =   6.8902896298750E-03
(PID.TID 0000.0001) %MON dynstat_sss_max              =   3.5150835287011E+01
(PID.TID 0000.0001) %MON dynstat_sss_min              =   2.2991771368451E+01
(PID.TID 0000.0001) %MON dynstat_sss_mean             =   3.4959743871602E+01
(PID.TID 0000.0001) %MON dynstat_sss_sd               =   5.1506822304589E-01
(PID.TID 0000.0001) %MON dynstat_sss_del2             =   1.9749062852044E-02
(PID.TID 0000.0001) %MON forcing_qnet_max             =   3.3441730025638E+03
(PID.TID 0000.0001) %MON forcing_qnet_min             =  -2.3296794433594E+03
(PID.TID 0000.0001) %MON forcing_qnet_mean            =  -1.9083685277868E+01
(PID.TID 0000.0001) %MON forcing_qnet_sd              =   4.3288933899779E+02
(PID.TID 0000.0001) %MON forcing_qnet_del2            =   4.9108116086698E+00
(PID.TID 0000.0001) %MON forcing_qsw_max              =   0.0000000000000E+00
(PID.TID 0000.0001) %MON forcing_qsw_min              =  -1.0791193404439E+02
(PID.TID 0000.0001) %MON forcing_qsw_mean             =  -2.1032930830142E+01
(PID.TID 0000.0001) %MON forcing_qsw_sd               =   2.9788321600374E+01
(PID.TID 0000.0001) %MON forcing_qsw_del2             =   2.3743308810158E-01
(PID.TID 0000.0001) %MON forcing_empmr_max            =   4.4145882129669E-03
(PID.TID 0000.0001) %MON forcing_empmr_min            =  -6.3434936106205E-02
(PID.TID 0000.0001) %MON forcing_empmr_mean           =  -3.3605564006894E-04
(PID.TID 0000.0001) %MON forcing_empmr_sd             =   2.8395807430218E-03
(PID.TID 0000.0001) %MON forcing_empmr_del2           =   1.1035883722421E-04
(PID.TID 0000.0001) %MON forcing_fu_max               =   4.8387422357152E-01
(PID.TID 0000.0001) %MON forcing_fu_min               =  -5.8475692388762E-01
(PID.TID 0000.0001) %MON forcing_fu_mean              =  -1.8427054456459E-03
(PID.TID 0000.0001) %MON forcing_fu_sd                =   7.8360071794080E-02
(PID.TID 0000.0001) %MON forcing_fu_del2              =   6.6878883792977E-04
(PID.TID 0000.0001) %MON forcing_fv_max               =   3.2497229623345E-01
(PID.TID 0000.0001) %MON forcing_fv_min               =  -3.1683004486871E-01
(PID.TID 0000.0001) %MON forcing_fv_mean              =  -6.9388100739229E-03
(PID.TID 0000.0001) %MON forcing_fv_sd                =   7.1397551364591E-02
(PID.TID 0000.0001) %MON forcing_fv_del2              =   5.6239812469027E-04
(PID.TID 0000.0001) %MON trAdv_CFL_u_max              =   1.6263449152685E-03
(PID.TID 0000.0001) %MON trAdv_CFL_v_max              =   1.5011721842788E-03
(PID.TID 0000.0001) %MON trAdv_CFL_w_max              =   2.1155017328424E-03
(PID.TID 0000.0001) %MON advcfl_uvel_max              =   1.5997011764903E-03
(PID.TID 0000.0001) %MON advcfl_vvel_max              =   1.4420349714944E-03
(PID.TID 0000.0001) %MON advcfl_wvel_max              =   4.4128651204317E-03
(PID.TID 0000.0001) %MON advcfl_W_hf_max              =   2.1155017328424E-03
(PID.TID 0000.0001) %MON pe_b_mean                    =   9.1239705354162E-06
(PID.TID 0000.0001) %MON ke_max                       =   1.2308351687000E-01
(PID.TID 0000.0001) %MON ke_mean                      =   4.6241159680767E-05
(PID.TID 0000.0001) %MON ke_vol                       =   1.3398193321368E+18
(PID.TID 0000.0001) %MON vort_r_min                   =  -2.5940959927432E-06
(PID.TID 0000.0001) %MON vort_r_max                   =   2.6156068841977E-06
(PID.TID 0000.0001) %MON vort_a_mean                  =  -2.0549865324846E-05
(PID.TID 0000.0001) %MON vort_a_sd                    =   7.5259402060762E-05
(PID.TID 0000.0001) %MON vort_p_mean                  =  -2.4783207737841E-05
(PID.TID 0000.0001) %MON vort_p_sd                    =   1.2810504405505E-04
(PID.TID 0000.0001) %MON surfExpan_theta_mean         =  -4.5634356759929E-07
(PID.TID 0000.0001) %MON surfExpan_salt_mean          =   1.3655436290438E-06
(PID.TID 0000.0001) // =======================================================
(PID.TID 0000.0001) // End MONITOR dynamic field statistics
(PID.TID 0000.0001) // =======================================================
(PID.TID 0000.0001) DEBUG_MSG: LEAVING S/R FORWARD_STEP
(PID.TID 0000.0001) DEBUG_MSG: ENTERED S/R FORWARD_STEP
(PID.TID 0000.0001) DEBUG_MSG: CALLING S/R LOAD_FIELDS_DRIVER
(PID.TID 0000.0001) DEBUG_MSG: ENTERED S/R LOAD_FIELDS_DRIVER
(PID.TID 0000.0001) DEBUG_MSG: CALLING S/R EXTERNAL_FIELDS_LOAD
(PID.TID 0000.0001) DEBUG_MSG: LEAVING S/R LOAD_FIELDS_DRIVER
(PID.TID 0000.0001) DEBUG_MSG: CALLING S/R DO_ATMOSPHERIC_PHYS
(PID.TID 0000.0001) DEBUG_MSG: ENTERED S/R DO_ATMOSPHERIC_PHYS
(PID.TID 0000.0001) DEBUG_MSG: LEAVING S/R DO_ATMOSPHERIC_PHYS
(PID.TID 0000.0001) DEBUG_MSG: CALLING S/R DO_OCEANIC_PHYS
(PID.TID 0000.0001) DEBUG_MSG: ENTERED S/R DO_OCEANIC_PHYS
(PID.TID 0000.0001) DEBUG_MSG: CALLING S/R EXTERNAL_FORCING_SURF
(PID.TID 0000.0001) DEBUG_MSG: CALLING S/R FIND_RHO_2D (xNr)
(PID.TID 0000.0001) DEBUG_MSG:                  ENTERING UPWARD K LOOP (bi=   1, bj=   1)
(PID.TID 0000.0001) DEBUG_MSG: CALLING S/R GRAD_SIGMA
(PID.TID 0000.0001) DEBUG_MSG: CALLING S/R CALC_IVDC
(PID.TID 0000.0001) DEBUG_MSG: CALLING S/R GRAD_SIGMA
(PID.TID 0000.0001) DEBUG_MSG: CALLING S/R CALC_IVDC
(PID.TID 0000.0001) DEBUG_MSG: CALLING S/R GRAD_SIGMA
(PID.TID 0000.0001) DEBUG_MSG: CALLING S/R CALC_IVDC
(PID.TID 0000.0001) DEBUG_MSG: CALLING S/R GRAD_SIGMA
(PID.TID 0000.0001) DEBUG_MSG: CALLING S/R CALC_IVDC
(PID.TID 0000.0001) DEBUG_MSG: CALLING S/R GRAD_SIGMA
(PID.TID 0000.0001) DEBUG_MSG: CALLING S/R CALC_IVDC
(PID.TID 0000.0001) DEBUG_MSG: CALLING S/R GRAD_SIGMA
(PID.TID 0000.0001) DEBUG_MSG: CALLING S/R CALC_IVDC
(PID.TID 0000.0001) DEBUG_MSG: CALLING S/R GRAD_SIGMA
(PID.TID 0000.0001) DEBUG_MSG: CALLING S/R CALC_IVDC
(PID.TID 0000.0001) DEBUG_MSG: CALLING S/R GRAD_SIGMA
(PID.TID 0000.0001) DEBUG_MSG: CALLING S/R CALC_IVDC
(PID.TID 0000.0001) DEBUG_MSG: CALLING S/R GRAD_SIGMA
(PID.TID 0000.0001) DEBUG_MSG: CALLING S/R CALC_IVDC
(PID.TID 0000.0001) DEBUG_MSG: CALLING S/R GRAD_SIGMA
(PID.TID 0000.0001) DEBUG_MSG: CALLING S/R CALC_IVDC
(PID.TID 0000.0001) DEBUG_MSG: CALLING S/R GRAD_SIGMA
(PID.TID 0000.0001) DEBUG_MSG: CALLING S/R CALC_IVDC
(PID.TID 0000.0001) DEBUG_MSG: CALLING S/R GRAD_SIGMA
(PID.TID 0000.0001) DEBUG_MSG: CALLING S/R CALC_IVDC
(PID.TID 0000.0001) DEBUG_MSG: CALLING S/R GRAD_SIGMA
(PID.TID 0000.0001) DEBUG_MSG: CALLING S/R CALC_IVDC
(PID.TID 0000.0001) DEBUG_MSG: CALLING S/R GRAD_SIGMA
(PID.TID 0000.0001) DEBUG_MSG: CALLING S/R CALC_IVDC
(PID.TID 0000.0001) DEBUG_MSG: CALLING S/R GRAD_SIGMA
(PID.TID 0000.0001) DEBUG_MSG: CALLING S/R CALC_IVDC
(PID.TID 0000.0001) DEBUG_MSG: CALLING S/R GRAD_SIGMA
(PID.TID 0000.0001) DEBUG_MSG: CALLING S/R GMREDI_CALC_TENSOR
(PID.TID 0000.0001) DEBUG_MSG: LEAVING S/R DO_OCEANIC_PHYS
(PID.TID 0000.0001) DEBUG_MSG: CALLING S/R DYNAMICS
(PID.TID 0000.0001) DEBUG_MSG: ENTERED S/R DYNAMICS
DEBUG_STATS_RL:                EtaN (DYNAMICS)  min= -6.53044939656614E-01
DEBUG_STATS_RL:                EtaN (DYNAMICS)  max=  1.32566726626009E+00
DEBUG_STATS_RL:                EtaN (DYNAMICS) mean=  4.68680111665192E-02
DEBUG_STATS_RL:                EtaN (DYNAMICS) S.D.=  7.21587525349027E-02
DEBUG_STATS_RL:                Uvel (DYNAMICS)  min= -5.54519888241100E-01
DEBUG_STATS_RL:                Uvel (DYNAMICS)  max=  2.95117498267447E-01
DEBUG_STATS_RL:                Uvel (DYNAMICS) mean= -8.38255352011110E-04
DEBUG_STATS_RL:                Uvel (DYNAMICS) S.D.=  2.04283485487500E-02
DEBUG_STATS_RL:                Vvel (DYNAMICS)  min= -3.99491072556995E-01
DEBUG_STATS_RL:                Vvel (DYNAMICS)  max=  3.84750544010565E-01
DEBUG_STATS_RL:                Vvel (DYNAMICS) mean= -5.87901377336444E-04
DEBUG_STATS_RL:                Vvel (DYNAMICS) S.D.=  2.25434972104625E-02
DEBUG_STATS_RL:                Wvel (DYNAMICS)  min= -9.64004604912242E-05
DEBUG_STATS_RL:                Wvel (DYNAMICS)  max=  1.32837156562652E-04
DEBUG_STATS_RL:                Wvel (DYNAMICS) mean= -2.46100923346399E-07
DEBUG_STATS_RL:                Wvel (DYNAMICS) S.D.=  6.22882774365329E-06
DEBUG_STATS_RL:               Theta (DYNAMICS)  min=  1.60563236115126E+01
DEBUG_STATS_RL:               Theta (DYNAMICS)  max=  2.40488423095882E+01
DEBUG_STATS_RL:               Theta (DYNAMICS) mean=  2.00052171562273E+01
DEBUG_STATS_RL:               Theta (DYNAMICS) S.D.=  1.03592928973232E-01
DEBUG_STATS_RL:                Salt (DYNAMICS)  min=  2.29917713684513E+01
DEBUG_STATS_RL:                Salt (DYNAMICS)  max=  3.51508352870108E+01
DEBUG_STATS_RL:                Salt (DYNAMICS) mean=  3.49966133711979E+01
DEBUG_STATS_RL:                Salt (DYNAMICS) S.D.=  1.38445133654800E-01
DEBUG_STATS_RL:                  Gu (DYNAMICS)  min= -5.49584210540439E-01
DEBUG_STATS_RL:                  Gu (DYNAMICS)  max=  2.97921020771234E-01
DEBUG_STATS_RL:                  Gu (DYNAMICS) mean= -8.50163536398635E-04
DEBUG_STATS_RL:                  Gu (DYNAMICS) S.D.=  2.03862085565895E-02
DEBUG_STATS_RL:                  Gv (DYNAMICS)  min= -4.06626614186564E-01
DEBUG_STATS_RL:                  Gv (DYNAMICS)  max=  3.89585581860239E-01
DEBUG_STATS_RL:                  Gv (DYNAMICS) mean= -5.62374151549615E-04
DEBUG_STATS_RL:                  Gv (DYNAMICS) S.D.=  2.25952694539141E-02
DEBUG_STATS_RL:               GuNm1 (DYNAMICS)  min= -2.69211582284144E-05
DEBUG_STATS_RL:               GuNm1 (DYNAMICS)  max=  1.99613001692027E-05
DEBUG_STATS_RL:               GuNm1 (DYNAMICS) mean= -1.41799207252560E-08
DEBUG_STATS_RL:               GuNm1 (DYNAMICS) S.D.=  1.18818303254113E-06
DEBUG_STATS_RL:               GvNm1 (DYNAMICS)  min= -1.57312480968574E-05
DEBUG_STATS_RL:               GvNm1 (DYNAMICS)  max=  3.61463342905716E-05
DEBUG_STATS_RL:               GvNm1 (DYNAMICS) mean=  2.57800735954702E-08
DEBUG_STATS_RL:               GvNm1 (DYNAMICS) S.D.=  1.09105312046254E-06
DEBUG_STATS_RL:               GtNm1 (DYNAMICS)  min= -3.08605109225037E-06
DEBUG_STATS_RL:               GtNm1 (DYNAMICS)  max=  4.72559199465465E-06
DEBUG_STATS_RL:               GtNm1 (DYNAMICS) mean=  1.21414427695450E-09
DEBUG_STATS_RL:               GtNm1 (DYNAMICS) S.D.=  6.63511129629493E-08
DEBUG_STATS_RL:               GsNm1 (DYNAMICS)  min= -1.37928833778208E-05
DEBUG_STATS_RL:               GsNm1 (DYNAMICS)  max=  2.55179218570539E-06
DEBUG_STATS_RL:               GsNm1 (DYNAMICS) mean= -3.95032242738593E-09
DEBUG_STATS_RL:               GsNm1 (DYNAMICS) S.D.=  1.53505321618131E-07
(PID.TID 0000.0001) DEBUG_MSG: LEAVING S/R DYNAMICS
DEBUG_STATS_RL:    cg2d_b (SOLVE_FOR_PRESSURE)  min= -1.61441779651287E+05
DEBUG_STATS_RL:    cg2d_b (SOLVE_FOR_PRESSURE)  max=  6.03254140382995E+04
DEBUG_STATS_RL:    cg2d_b (SOLVE_FOR_PRESSURE) mean= -4.77598418551835E+03
DEBUG_STATS_RL:    cg2d_b (SOLVE_FOR_PRESSURE) S.D.=  7.12730124674609E+03
 cg2d: Sum(rhs),rhsMax =  -1.30758284166516E+02  3.09266980917911E+01
(PID.TID 0000.0001)  cg2d: iter=     1 ; resid.=  2.64035860400598E-02
(PID.TID 0000.0001)  cg2d: iter=     2 ; resid.=  3.91542846803983E-03
(PID.TID 0000.0001)  cg2d: iter=     3 ; resid.=  1.08769323522957E-03
(PID.TID 0000.0001)  cg2d: iter=     4 ; resid.=  3.35292516531094E-04
(PID.TID 0000.0001)  cg2d: iter=     5 ; resid.=  8.84747072941559E-05
(PID.TID 0000.0001)  cg2d: iter=     6 ; resid.=  1.65581368529978E-05
(PID.TID 0000.0001)  cg2d: iter=     7 ; resid.=  3.42635666588774E-06
(PID.TID 0000.0001)  cg2d: iter=     8 ; resid.=  9.82709835206955E-07
(PID.TID 0000.0001)  cg2d: iter=     9 ; resid.=  3.04942162027849E-07
(PID.TID 0000.0001)  cg2d: iter=    10 ; resid.=  8.64207800043261E-08
DEBUG_STATS_RL:    cg2d_x (SOLVE_FOR_PRESSURE)  min= -6.92884149764920E+00
DEBUG_STATS_RL:    cg2d_x (SOLVE_FOR_PRESSURE)  max=  1.30112078213612E+01
DEBUG_STATS_RL:    cg2d_x (SOLVE_FOR_PRESSURE) mean=  4.62528944479744E-01
DEBUG_STATS_RL:    cg2d_x (SOLVE_FOR_PRESSURE) S.D.=  7.05078649788392E-01
(PID.TID 0000.0001)      cg2d_init_res =   2.18038708131354E-01
(PID.TID 0000.0001)      cg2d_iters(min,last) =      -1      10
(PID.TID 0000.0001)      cg2d_last_res =   8.64207800043261E-08
(PID.TID 0000.0001) DEBUG_MSG: CALLING S/R UPDATE_ETAH
(PID.TID 0000.0001) DEBUG_MSG: ENTERED S/R CALC_R_STAR
(PID.TID 0000.0001) DEBUG_MSG: LEAVING S/R CALC_R_STAR
(PID.TID 0000.0001) DEBUG_MSG: CALLING S/R DO_STAGGER_FIELDS_EXCH.
(PID.TID 0000.0001) DEBUG_MSG: CALLING S/R THERMODYNAMICS
(PID.TID 0000.0001) DEBUG_MSG: ENTERED S/R THERMODYNAMICS
(PID.TID 0000.0001) DEBUG_MSG: CALLING S/R TEMP_INTEGRATE
(PID.TID 0000.0001) DEBUG_MSG: CALLING S/R SALT_INTEGRATE
DEBUG_STATS_RL:          Uvel (THERMODYNAMICS)  min= -5.42495774208566E-01
DEBUG_STATS_RL:          Uvel (THERMODYNAMICS)  max=  2.80205652571946E-01
DEBUG_STATS_RL:          Uvel (THERMODYNAMICS) mean= -8.60679016773466E-04
DEBUG_STATS_RL:          Uvel (THERMODYNAMICS) S.D.=  2.03799038205804E-02
DEBUG_STATS_RL:          Vvel (THERMODYNAMICS)  min= -4.06062085961134E-01
DEBUG_STATS_RL:          Vvel (THERMODYNAMICS)  max=  3.88941279205102E-01
DEBUG_STATS_RL:          Vvel (THERMODYNAMICS) mean= -5.61645410529183E-04
DEBUG_STATS_RL:          Vvel (THERMODYNAMICS) S.D.=  2.26120442505680E-02
DEBUG_STATS_RL:          Wvel (THERMODYNAMICS)  min= -9.28066641193686E-05
DEBUG_STATS_RL:          Wvel (THERMODYNAMICS)  max=  1.30167610436751E-04
DEBUG_STATS_RL:          Wvel (THERMODYNAMICS) mean= -2.45328502015091E-07
DEBUG_STATS_RL:          Wvel (THERMODYNAMICS) S.D.=  6.19384661738521E-06
DEBUG_STATS_RL:         Theta (THERMODYNAMICS)  min=  1.60585957101047E+01
DEBUG_STATS_RL:         Theta (THERMODYNAMICS)  max=  2.40722286166446E+01
DEBUG_STATS_RL:         Theta (THERMODYNAMICS) mean=  2.00053067379944E+01
DEBUG_STATS_RL:         Theta (THERMODYNAMICS) S.D.=  1.04101190006657E-01
DEBUG_STATS_RL:          Salt (THERMODYNAMICS)  min=  2.29542604339308E+01
DEBUG_STATS_RL:          Salt (THERMODYNAMICS)  max=  3.51508583283608E+01
DEBUG_STATS_RL:          Salt (THERMODYNAMICS) mean=  3.49965963597102E+01
DEBUG_STATS_RL:          Salt (THERMODYNAMICS) S.D.=  1.38913458544485E-01
DEBUG_STATS_RL:         GtNm1 (THERMODYNAMICS)  min= -3.09080450549166E-06
DEBUG_STATS_RL:         GtNm1 (THERMODYNAMICS)  max=  4.40148067657573E-06
DEBUG_STATS_RL:         GtNm1 (THERMODYNAMICS) mean=  1.17142790333681E-09
DEBUG_STATS_RL:         GtNm1 (THERMODYNAMICS) S.D.=  6.49367448112882E-08
DEBUG_STATS_RL:         GsNm1 (THERMODYNAMICS)  min= -1.37021627411773E-05
DEBUG_STATS_RL:         GsNm1 (THERMODYNAMICS)  max=  2.56152920563419E-06
DEBUG_STATS_RL:         GsNm1 (THERMODYNAMICS) mean= -3.91418725144092E-09
DEBUG_STATS_RL:         GsNm1 (THERMODYNAMICS) S.D.=  1.52181508568382E-07
(PID.TID 0000.0001) DEBUG_MSG: LEAVING S/R THERMODYNAMICS
(PID.TID 0000.0001) // =======================================================
(PID.TID 0000.0001) // Begin MONITOR dynamic field statistics
(PID.TID 0000.0001) // =======================================================
(PID.TID 0000.0001) %MON time_tsnumber                =                    91
(PID.TID 0000.0001) %MON time_secondsf                =   8.1900000000000E+04
(PID.TID 0000.0001) %MON dynstat_eta_max              =   1.3263208794247E+00
(PID.TID 0000.0001) %MON dynstat_eta_min              =  -7.0630392543742E-01
(PID.TID 0000.0001) %MON dynstat_eta_mean             =   4.6989837272125E-02
(PID.TID 0000.0001) %MON dynstat_eta_sd               =   6.8033346691601E-02
(PID.TID 0000.0001) %MON dynstat_eta_del2             =   1.0127170393287E-03
(PID.TID 0000.0001) %MON dynstat_uvel_max             =   2.8020565257195E-01
(PID.TID 0000.0001) %MON dynstat_uvel_min             =  -5.4249577420857E-01
(PID.TID 0000.0001) %MON dynstat_uvel_mean            =  -1.6233182649030E-04
(PID.TID 0000.0001) %MON dynstat_uvel_sd              =   6.6864849725985E-03
(PID.TID 0000.0001) %MON dynstat_uvel_del2            =   9.2346520945258E-05
(PID.TID 0000.0001) %MON dynstat_vvel_max             =   3.8894127920510E-01
(PID.TID 0000.0001) %MON dynstat_vvel_min             =  -4.0606208596113E-01
(PID.TID 0000.0001) %MON dynstat_vvel_mean            =   4.0383671511374E-04
(PID.TID 0000.0001) %MON dynstat_vvel_sd              =   7.4327835754600E-03
(PID.TID 0000.0001) %MON dynstat_vvel_del2            =   9.4335566282391E-05
(PID.TID 0000.0001) %MON dynstat_wvel_max             =   1.3016761043675E-04
(PID.TID 0000.0001) %MON dynstat_wvel_min             =  -9.2806664119369E-05
(PID.TID 0000.0001) %MON dynstat_wvel_mean            =  -9.3478944750404E-08
(PID.TID 0000.0001) %MON dynstat_wvel_sd              =   5.9478506172560E-06
(PID.TID 0000.0001) %MON dynstat_wvel_del2            =   6.5559121224522E-08
(PID.TID 0000.0001) %MON dynstat_theta_max            =   2.4072228616645E+01
(PID.TID 0000.0001) %MON dynstat_theta_min            =   1.6058595710105E+01
(PID.TID 0000.0001) %MON dynstat_theta_mean           =   1.9997933417442E+01
(PID.TID 0000.0001) %MON dynstat_theta_sd             =   3.4219035652073E-02
(PID.TID 0000.0001) %MON dynstat_theta_del2           =   5.8053983720648E-04
(PID.TID 0000.0001) %MON dynstat_salt_max             =   3.5150858328361E+01
(PID.TID 0000.0001) %MON dynstat_salt_min             =   2.2954260433931E+01
(PID.TID 0000.0001) %MON dynstat_salt_mean            =   3.4999557030446E+01
(PID.TID 0000.0001) %MON dynstat_salt_sd              =   4.2866226225622E-02
(PID.TID 0000.0001) %MON dynstat_salt_del2            =   1.4636960189587E-03
(PID.TID 0000.0001) %MON dynstat_sst_max              =   2.4072228616645E+01
(PID.TID 0000.0001) %MON dynstat_sst_min              =   1.6058595710105E+01
(PID.TID 0000.0001) %MON dynstat_sst_mean             =   2.0173411758825E+01
(PID.TID 0000.0001) %MON dynstat_sst_sd               =   3.2097224907560E-01
(PID.TID 0000.0001) %MON dynstat_sst_del2             =   6.9187368687125E-03
(PID.TID 0000.0001) %MON dynstat_sss_max              =   3.5150858328361E+01
(PID.TID 0000.0001) %MON dynstat_sss_min              =   2.2954260433931E+01
(PID.TID 0000.0001) %MON dynstat_sss_mean             =   3.4959542068681E+01
(PID.TID 0000.0001) %MON dynstat_sss_sd               =   5.1680162381210E-01
(PID.TID 0000.0001) %MON dynstat_sss_del2             =   1.9806552105096E-02
(PID.TID 0000.0001) %MON forcing_qnet_max             =   3.4479975304716E+03
(PID.TID 0000.0001) %MON forcing_qnet_min             =  -2.2968764648438E+03
(PID.TID 0000.0001) %MON forcing_qnet_mean            =  -1.8378288208585E+01
(PID.TID 0000.0001) %MON forcing_qnet_sd              =   4.3282531552970E+02
(PID.TID 0000.0001) %MON forcing_qnet_del2            =   4.8885497070512E+00
(PID.TID 0000.0001) %MON forcing_qsw_max              =   0.0000000000000E+00
(PID.TID 0000.0001) %MON forcing_qsw_min              =  -1.0772611451878E+02
(PID.TID 0000.0001) %MON forcing_qsw_mean             =  -2.1217613655679E+01
(PID.TID 0000.0001) %MON forcing_qsw_sd               =   2.9934296186303E+01
(PID.TID 0000.0001) %MON forcing_qsw_del2             =   2.3867517928497E-01
(PID.TID 0000.0001) %MON forcing_empmr_max            =   4.3692239560187E-03
(PID.TID 0000.0001) %MON forcing_empmr_min            =  -6.2781289219856E-02
(PID.TID 0000.0001) %MON forcing_empmr_mean           =  -3.3457959110986E-04
(PID.TID 0000.0001) %MON forcing_empmr_sd             =   2.8117794540608E-03
(PID.TID 0000.0001) %MON forcing_empmr_del2           =   1.0923394270011E-04
(PID.TID 0000.0001) %MON forcing_fu_max               =   4.8365671125429E-01
(PID.TID 0000.0001) %MON forcing_fu_min               =  -5.8216673868523E-01
(PID.TID 0000.0001) %MON forcing_fu_mean              =  -1.9614600526789E-03
(PID.TID 0000.0001) %MON forcing_fu_sd                =   7.8150922799085E-02
(PID.TID 0000.0001) %MON forcing_fu_del2              =   6.6650930876640E-04
(PID.TID 0000.0001) %MON forcing_fv_max               =   3.1847833287111E-01
(PID.TID 0000.0001) %MON forcing_fv_min               =  -3.1942376217007E-01
(PID.TID 0000.0001) %MON forcing_fv_mean              =  -6.9278290911979E-03
(PID.TID 0000.0001) %MON forcing_fv_sd                =   7.1360368353788E-02
(PID.TID 0000.0001) %MON forcing_fv_del2              =   5.6012419816235E-04
(PID.TID 0000.0001) %MON trAdv_CFL_u_max              =   1.6869955433722E-03
(PID.TID 0000.0001) %MON trAdv_CFL_v_max              =   1.4909404833552E-03
(PID.TID 0000.0001) %MON trAdv_CFL_w_max              =   2.1016425464373E-03
(PID.TID 0000.0001) %MON advcfl_uvel_max              =   1.5650135308855E-03
(PID.TID 0000.0001) %MON advcfl_vvel_max              =   1.4321855891014E-03
(PID.TID 0000.0001) %MON advcfl_wvel_max              =   4.3673940326857E-03
(PID.TID 0000.0001) %MON advcfl_W_hf_max              =   2.1016425464373E-03
(PID.TID 0000.0001) %MON pe_b_mean                    =   9.1074738444792E-06
(PID.TID 0000.0001) %MON ke_max                       =   1.2257485904913E-01
(PID.TID 0000.0001) %MON ke_mean                      =   4.6260952493048E-05
(PID.TID 0000.0001) %MON ke_vol                       =   1.3398194384726E+18
(PID.TID 0000.0001) %MON vort_r_min                   =  -2.5902720634352E-06
(PID.TID 0000.0001) %MON vort_r_max                   =   2.6125439762849E-06
(PID.TID 0000.0001) %MON vort_a_mean                  =  -2.0549865324846E-05
(PID.TID 0000.0001) %MON vort_a_sd                    =   7.5259402003052E-05
(PID.TID 0000.0001) %MON vort_p_mean                  =  -2.4783205831294E-05
(PID.TID 0000.0001) %MON vort_p_sd                    =   1.2810504076343E-04
(PID.TID 0000.0001) %MON surfExpan_theta_mean         =  -4.3843697207464E-07
(PID.TID 0000.0001) %MON surfExpan_salt_mean          =   1.3513135289287E-06
(PID.TID 0000.0001) // =======================================================
(PID.TID 0000.0001) // End MONITOR dynamic field statistics
(PID.TID 0000.0001) // =======================================================
 Computing Diagnostic #     81  oceTAUX      Counter:       1   Parms: UU      U1      
           Vector  Mate for  oceTAUX      Diagnostic #     82  oceTAUY  exists 
(PID.TID 0000.0001)  MDS_WRITE_FIELD: it,rec,kS,kL,kH=      90    -1  32   1   1 file=oceTAUX.0000000090
 Computing Diagnostic #     82  oceTAUY      Counter:       1   Parms: VV      U1      
           Vector  Mate for  oceTAUY      Diagnostic #     81  oceTAUX  exists 
(PID.TID 0000.0001)  MDS_WRITE_FIELD: it,rec,kS,kL,kH=      90    -1  32   1   1 file=oceTAUY.0000000090
 Computing Diagnostic #     85  oceFWflx     Counter:       1   Parms: SM      U1      
(PID.TID 0000.0001)  MDS_WRITE_FIELD: it,rec,kS,kL,kH=      90    -1  32   1   1 file=oceFWflx.0000000090
 Computing Diagnostic #     86  oceSflux     Counter:       1   Parms: SM      U1      
(PID.TID 0000.0001)  MDS_WRITE_FIELD: it,rec,kS,kL,kH=      90    -1  32   1   1 file=oceSflux.0000000090
 Computing Diagnostic #     87  oceQnet      Counter:       1   Parms: SM      U1      
(PID.TID 0000.0001)  MDS_WRITE_FIELD: it,rec,kS,kL,kH=      90    -1  32   1   1 file=oceQnet.0000000090
 Computing Diagnostic #     88  oceQsw       Counter:       1   Parms: SM      U1      
(PID.TID 0000.0001)  MDS_WRITE_FIELD: it,rec,kS,kL,kH=      90    -1  32   1   1 file=oceQsw.0000000090
 Computing Diagnostic #     27  SALT         Counter:       1   Parms: SMR     MR      
(PID.TID 0000.0001)  MDS_WRITE_FIELD: it,rec,kS,kL,kH=      90    -1  32   1   1 file=SSS.0000000090
 Computing Diagnostic #     26  THETA        Counter:       1   Parms: SMR     MR      
(PID.TID 0000.0001)  MDS_WRITE_FIELD: it,rec,kS,kL,kH=      90    -1  32   1   1 file=SST.0000000090
 Computing Diagnostic #     45  UVELMASS     Counter:       1   Parms: UUr     MR      
           Vector  Mate for  UVELMASS     Diagnostic #     46  VVELMASS exists 
(PID.TID 0000.0001)  MDS_WRITE_FIELD: it,rec,kS,kL,kH=      90    -1  32   1   1 file=UVEL1.0000000090
 Computing Diagnostic #     46  VVELMASS     Counter:       1   Parms: VVr     MR      
           Vector  Mate for  VVELMASS     Diagnostic #     45  UVELMASS exists 
(PID.TID 0000.0001)  MDS_WRITE_FIELD: it,rec,kS,kL,kH=      90    -1  32   1   1 file=VVEL1.0000000090
 Computing Diagnostic #     83  atmPload     Counter:       1   Parms: SM      U1      
(PID.TID 0000.0001)  MDS_WRITE_FIELD: it,rec,kS,kL,kH=      90    -1  32   1   1 file=atmPload.0000000090
(PID.TID 0000.0001)  write diagnostics summary to file: diagnostics_status.0000000091.txt
(PID.TID 0000.0001) DEBUG_MSG: LEAVING S/R FORWARD_STEP
(PID.TID 0000.0001) DEBUG_MSG: ENTERED S/R FORWARD_STEP
(PID.TID 0000.0001) DEBUG_MSG: CALLING S/R LOAD_FIELDS_DRIVER
(PID.TID 0000.0001) DEBUG_MSG: ENTERED S/R LOAD_FIELDS_DRIVER
(PID.TID 0000.0001) DEBUG_MSG: CALLING S/R EXTERNAL_FIELDS_LOAD
(PID.TID 0000.0001) DEBUG_MSG: LEAVING S/R LOAD_FIELDS_DRIVER
(PID.TID 0000.0001) DEBUG_MSG: CALLING S/R DO_ATMOSPHERIC_PHYS
(PID.TID 0000.0001) DEBUG_MSG: ENTERED S/R DO_ATMOSPHERIC_PHYS
(PID.TID 0000.0001) DEBUG_MSG: LEAVING S/R DO_ATMOSPHERIC_PHYS
(PID.TID 0000.0001) DEBUG_MSG: CALLING S/R DO_OCEANIC_PHYS
(PID.TID 0000.0001) DEBUG_MSG: ENTERED S/R DO_OCEANIC_PHYS
(PID.TID 0000.0001) DEBUG_MSG: CALLING S/R EXTERNAL_FORCING_SURF
(PID.TID 0000.0001) DEBUG_MSG: CALLING S/R FIND_RHO_2D (xNr)
(PID.TID 0000.0001) DEBUG_MSG:                  ENTERING UPWARD K LOOP (bi=   1, bj=   1)
(PID.TID 0000.0001) DEBUG_MSG: CALLING S/R GRAD_SIGMA
(PID.TID 0000.0001) DEBUG_MSG: CALLING S/R CALC_IVDC
(PID.TID 0000.0001) DEBUG_MSG: CALLING S/R GRAD_SIGMA
(PID.TID 0000.0001) DEBUG_MSG: CALLING S/R CALC_IVDC
(PID.TID 0000.0001) DEBUG_MSG: CALLING S/R GRAD_SIGMA
(PID.TID 0000.0001) DEBUG_MSG: CALLING S/R CALC_IVDC
(PID.TID 0000.0001) DEBUG_MSG: CALLING S/R GRAD_SIGMA
(PID.TID 0000.0001) DEBUG_MSG: CALLING S/R CALC_IVDC
(PID.TID 0000.0001) DEBUG_MSG: CALLING S/R GRAD_SIGMA
(PID.TID 0000.0001) DEBUG_MSG: CALLING S/R CALC_IVDC
(PID.TID 0000.0001) DEBUG_MSG: CALLING S/R GRAD_SIGMA
(PID.TID 0000.0001) DEBUG_MSG: CALLING S/R CALC_IVDC
(PID.TID 0000.0001) DEBUG_MSG: CALLING S/R GRAD_SIGMA
(PID.TID 0000.0001) DEBUG_MSG: CALLING S/R CALC_IVDC
(PID.TID 0000.0001) DEBUG_MSG: CALLING S/R GRAD_SIGMA
(PID.TID 0000.0001) DEBUG_MSG: CALLING S/R CALC_IVDC
(PID.TID 0000.0001) DEBUG_MSG: CALLING S/R GRAD_SIGMA
(PID.TID 0000.0001) DEBUG_MSG: CALLING S/R CALC_IVDC
(PID.TID 0000.0001) DEBUG_MSG: CALLING S/R GRAD_SIGMA
(PID.TID 0000.0001) DEBUG_MSG: CALLING S/R CALC_IVDC
(PID.TID 0000.0001) DEBUG_MSG: CALLING S/R GRAD_SIGMA
(PID.TID 0000.0001) DEBUG_MSG: CALLING S/R CALC_IVDC
(PID.TID 0000.0001) DEBUG_MSG: CALLING S/R GRAD_SIGMA
(PID.TID 0000.0001) DEBUG_MSG: CALLING S/R CALC_IVDC
(PID.TID 0000.0001) DEBUG_MSG: CALLING S/R GRAD_SIGMA
(PID.TID 0000.0001) DEBUG_MSG: CALLING S/R CALC_IVDC
(PID.TID 0000.0001) DEBUG_MSG: CALLING S/R GRAD_SIGMA
(PID.TID 0000.0001) DEBUG_MSG: CALLING S/R CALC_IVDC
(PID.TID 0000.0001) DEBUG_MSG: CALLING S/R GRAD_SIGMA
(PID.TID 0000.0001) DEBUG_MSG: CALLING S/R CALC_IVDC
(PID.TID 0000.0001) DEBUG_MSG: CALLING S/R GRAD_SIGMA
(PID.TID 0000.0001) DEBUG_MSG: CALLING S/R GMREDI_CALC_TENSOR
(PID.TID 0000.0001) DEBUG_MSG: LEAVING S/R DO_OCEANIC_PHYS
(PID.TID 0000.0001) DEBUG_MSG: CALLING S/R DYNAMICS
(PID.TID 0000.0001) DEBUG_MSG: ENTERED S/R DYNAMICS
DEBUG_STATS_RL:                EtaN (DYNAMICS)  min= -7.06303925437416E-01
DEBUG_STATS_RL:                EtaN (DYNAMICS)  max=  1.32632087942470E+00
DEBUG_STATS_RL:                EtaN (DYNAMICS) mean=  4.71487198003371E-02
DEBUG_STATS_RL:                EtaN (DYNAMICS) S.D.=  7.18734609049497E-02
DEBUG_STATS_RL:                Uvel (DYNAMICS)  min= -5.42495774208566E-01
DEBUG_STATS_RL:                Uvel (DYNAMICS)  max=  2.80205652571946E-01
DEBUG_STATS_RL:                Uvel (DYNAMICS) mean= -8.60679016773466E-04
DEBUG_STATS_RL:                Uvel (DYNAMICS) S.D.=  2.03799038205804E-02
DEBUG_STATS_RL:                Vvel (DYNAMICS)  min= -4.06062085961134E-01
DEBUG_STATS_RL:                Vvel (DYNAMICS)  max=  3.88941279205102E-01
DEBUG_STATS_RL:                Vvel (DYNAMICS) mean= -5.61645410529183E-04
DEBUG_STATS_RL:                Vvel (DYNAMICS) S.D.=  2.26120442505680E-02
DEBUG_STATS_RL:                Wvel (DYNAMICS)  min= -9.28066641193686E-05
DEBUG_STATS_RL:                Wvel (DYNAMICS)  max=  1.30167610436751E-04
DEBUG_STATS_RL:                Wvel (DYNAMICS) mean= -2.45328502015091E-07
DEBUG_STATS_RL:                Wvel (DYNAMICS) S.D.=  6.19384661738521E-06
DEBUG_STATS_RL:               Theta (DYNAMICS)  min=  1.60585957101047E+01
DEBUG_STATS_RL:               Theta (DYNAMICS)  max=  2.40722286166446E+01
DEBUG_STATS_RL:               Theta (DYNAMICS) mean=  2.00053067379944E+01
DEBUG_STATS_RL:               Theta (DYNAMICS) S.D.=  1.04101190006657E-01
DEBUG_STATS_RL:                Salt (DYNAMICS)  min=  2.29542604339308E+01
DEBUG_STATS_RL:                Salt (DYNAMICS)  max=  3.51508583283608E+01
DEBUG_STATS_RL:                Salt (DYNAMICS) mean=  3.49965963597102E+01
DEBUG_STATS_RL:                Salt (DYNAMICS) S.D.=  1.38913458544485E-01
DEBUG_STATS_RL:                  Gu (DYNAMICS)  min= -5.37613436883531E-01
DEBUG_STATS_RL:                  Gu (DYNAMICS)  max=  2.80944679083509E-01
DEBUG_STATS_RL:                  Gu (DYNAMICS) mean= -8.71663675590157E-04
DEBUG_STATS_RL:                  Gu (DYNAMICS) S.D.=  2.03417028003776E-02
DEBUG_STATS_RL:                  Gv (DYNAMICS)  min= -4.11290678472699E-01
DEBUG_STATS_RL:                  Gv (DYNAMICS)  max=  3.91438909145914E-01
DEBUG_STATS_RL:                  Gv (DYNAMICS) mean= -5.34697650710067E-04
DEBUG_STATS_RL:                  Gv (DYNAMICS) S.D.=  2.26321469675347E-02
DEBUG_STATS_RL:               GuNm1 (DYNAMICS)  min= -2.68684227492995E-05
DEBUG_STATS_RL:               GuNm1 (DYNAMICS)  max=  2.03524792380397E-05
DEBUG_STATS_RL:               GuNm1 (DYNAMICS) mean= -1.31427311462114E-08
DEBUG_STATS_RL:               GuNm1 (DYNAMICS) S.D.=  1.19084274360422E-06
DEBUG_STATS_RL:               GvNm1 (DYNAMICS)  min= -1.51133849844409E-05
DEBUG_STATS_RL:               GvNm1 (DYNAMICS)  max=  3.64779096682911E-05
DEBUG_STATS_RL:               GvNm1 (DYNAMICS) mean=  2.74076377662560E-08
DEBUG_STATS_RL:               GvNm1 (DYNAMICS) S.D.=  1.08055170923900E-06
DEBUG_STATS_RL:               GtNm1 (DYNAMICS)  min= -3.09080450549166E-06
DEBUG_STATS_RL:               GtNm1 (DYNAMICS)  max=  4.40148067657573E-06
DEBUG_STATS_RL:               GtNm1 (DYNAMICS) mean=  1.17142790333681E-09
DEBUG_STATS_RL:               GtNm1 (DYNAMICS) S.D.=  6.49367448112882E-08
DEBUG_STATS_RL:               GsNm1 (DYNAMICS)  min= -1.37021627411773E-05
DEBUG_STATS_RL:               GsNm1 (DYNAMICS)  max=  2.56152920563419E-06
DEBUG_STATS_RL:               GsNm1 (DYNAMICS) mean= -3.91418725144092E-09
DEBUG_STATS_RL:               GsNm1 (DYNAMICS) S.D.=  1.52181508568382E-07
(PID.TID 0000.0001) DEBUG_MSG: LEAVING S/R DYNAMICS
DEBUG_STATS_RL:    cg2d_b (SOLVE_FOR_PRESSURE)  min= -1.61128201006176E+05
DEBUG_STATS_RL:    cg2d_b (SOLVE_FOR_PRESSURE)  max=  6.32124216654512E+04
DEBUG_STATS_RL:    cg2d_b (SOLVE_FOR_PRESSURE) mean= -4.80531729844196E+03
DEBUG_STATS_RL:    cg2d_b (SOLVE_FOR_PRESSURE) S.D.=  7.09825314760374E+03
 cg2d: Sum(rhs),rhsMax =  -1.31817412014048E+02  3.08666271974642E+01
(PID.TID 0000.0001)  cg2d: iter=     1 ; resid.=  2.67919051561898E-02
(PID.TID 0000.0001)  cg2d: iter=     2 ; resid.=  4.18656660255144E-03
(PID.TID 0000.0001)  cg2d: iter=     3 ; resid.=  1.23983360253008E-03
(PID.TID 0000.0001)  cg2d: iter=     4 ; resid.=  3.69675663286291E-04
(PID.TID 0000.0001)  cg2d: iter=     5 ; resid.=  9.09212611425891E-05
(PID.TID 0000.0001)  cg2d: iter=     6 ; resid.=  1.66830293778196E-05
(PID.TID 0000.0001)  cg2d: iter=     7 ; resid.=  3.51825043421354E-06
(PID.TID 0000.0001)  cg2d: iter=     8 ; resid.=  1.04503957360281E-06
(PID.TID 0000.0001)  cg2d: iter=     9 ; resid.=  3.32788828936176E-07
(PID.TID 0000.0001)  cg2d: iter=    10 ; resid.=  9.08284170470211E-08
DEBUG_STATS_RL:    cg2d_x (SOLVE_FOR_PRESSURE)  min= -7.26180278959186E+00
DEBUG_STATS_RL:    cg2d_x (SOLVE_FOR_PRESSURE)  max=  1.29849757200691E+01
DEBUG_STATS_RL:    cg2d_x (SOLVE_FOR_PRESSURE) mean=  4.65345406110588E-01
DEBUG_STATS_RL:    cg2d_x (SOLVE_FOR_PRESSURE) S.D.=  7.02322748177602E-01
(PID.TID 0000.0001)      cg2d_init_res =   2.13402894806449E-01
(PID.TID 0000.0001)      cg2d_iters(min,last) =      -1      10
(PID.TID 0000.0001)      cg2d_last_res =   9.08284170470211E-08
(PID.TID 0000.0001) DEBUG_MSG: CALLING S/R UPDATE_ETAH
(PID.TID 0000.0001) DEBUG_MSG: ENTERED S/R CALC_R_STAR
(PID.TID 0000.0001) DEBUG_MSG: LEAVING S/R CALC_R_STAR
(PID.TID 0000.0001) DEBUG_MSG: CALLING S/R DO_STAGGER_FIELDS_EXCH.
(PID.TID 0000.0001) DEBUG_MSG: CALLING S/R THERMODYNAMICS
(PID.TID 0000.0001) DEBUG_MSG: ENTERED S/R THERMODYNAMICS
(PID.TID 0000.0001) DEBUG_MSG: CALLING S/R TEMP_INTEGRATE
(PID.TID 0000.0001) DEBUG_MSG: CALLING S/R SALT_INTEGRATE
DEBUG_STATS_RL:          Uvel (THERMODYNAMICS)  min= -5.28225493700286E-01
DEBUG_STATS_RL:          Uvel (THERMODYNAMICS)  max=  2.72193670408420E-01
DEBUG_STATS_RL:          Uvel (THERMODYNAMICS) mean= -8.81711880242086E-04
DEBUG_STATS_RL:          Uvel (THERMODYNAMICS) S.D.=  2.03314811672009E-02
DEBUG_STATS_RL:          Vvel (THERMODYNAMICS)  min= -4.10713397183946E-01
DEBUG_STATS_RL:          Vvel (THERMODYNAMICS)  max=  3.90797251447533E-01
DEBUG_STATS_RL:          Vvel (THERMODYNAMICS) mean= -5.33487368081102E-04
DEBUG_STATS_RL:          Vvel (THERMODYNAMICS) S.D.=  2.26475980040130E-02
DEBUG_STATS_RL:          Wvel (THERMODYNAMICS)  min= -9.03326191770504E-05
DEBUG_STATS_RL:          Wvel (THERMODYNAMICS)  max=  1.27504159239059E-04
DEBUG_STATS_RL:          Wvel (THERMODYNAMICS) mean= -2.43366004207437E-07
DEBUG_STATS_RL:          Wvel (THERMODYNAMICS) S.D.=  6.16181661402247E-06
DEBUG_STATS_RL:         Theta (THERMODYNAMICS)  min=  1.60608751102708E+01
DEBUG_STATS_RL:         Theta (THERMODYNAMICS)  max=  2.40952926668180E+01
DEBUG_STATS_RL:         Theta (THERMODYNAMICS) mean=  2.00053949657167E+01
DEBUG_STATS_RL:         Theta (THERMODYNAMICS) S.D.=  1.04607904622561E-01
DEBUG_STATS_RL:          Salt (THERMODYNAMICS)  min=  2.29175110491363E+01
DEBUG_STATS_RL:          Salt (THERMODYNAMICS)  max=  3.51508819668609E+01
DEBUG_STATS_RL:          Salt (THERMODYNAMICS) mean=  3.49965795234506E+01
DEBUG_STATS_RL:          Salt (THERMODYNAMICS) S.D.=  1.39372376245647E-01
DEBUG_STATS_RL:         GtNm1 (THERMODYNAMICS)  min= -3.09678323827102E-06
DEBUG_STATS_RL:         GtNm1 (THERMODYNAMICS)  max=  4.04508128839708E-06
DEBUG_STATS_RL:         GtNm1 (THERMODYNAMICS) mean=  1.12699592837503E-09
DEBUG_STATS_RL:         GtNm1 (THERMODYNAMICS) S.D.=  6.35840389553164E-08
DEBUG_STATS_RL:         GsNm1 (THERMODYNAMICS)  min= -1.36115486227770E-05
DEBUG_STATS_RL:         GsNm1 (THERMODYNAMICS)  max=  2.57019472357718E-06
DEBUG_STATS_RL:         GsNm1 (THERMODYNAMICS) mean= -3.87686811705109E-09
DEBUG_STATS_RL:         GsNm1 (THERMODYNAMICS) S.D.=  1.50883700447952E-07
(PID.TID 0000.0001) DEBUG_MSG: LEAVING S/R THERMODYNAMICS
(PID.TID 0000.0001) // =======================================================
(PID.TID 0000.0001) // Begin MONITOR dynamic field statistics
(PID.TID 0000.0001) // =======================================================
(PID.TID 0000.0001) %MON time_tsnumber                =                    92
(PID.TID 0000.0001) %MON time_secondsf                =   8.2800000000000E+04
(PID.TID 0000.0001) %MON dynstat_eta_max              =   1.3236468630617E+00
(PID.TID 0000.0001) %MON dynstat_eta_min              =  -7.4024493420607E-01
(PID.TID 0000.0001) %MON dynstat_eta_mean             =   4.7278439191525E-02
(PID.TID 0000.0001) %MON dynstat_eta_sd               =   6.7778156671290E-02
(PID.TID 0000.0001) %MON dynstat_eta_del2             =   1.0201196540335E-03
(PID.TID 0000.0001) %MON dynstat_uvel_max             =   2.7219367040842E-01
(PID.TID 0000.0001) %MON dynstat_uvel_min             =  -5.2822549370029E-01
(PID.TID 0000.0001) %MON dynstat_uvel_mean            =  -1.6573675547746E-04
(PID.TID 0000.0001) %MON dynstat_uvel_sd              =   6.6744372073453E-03
(PID.TID 0000.0001) %MON dynstat_uvel_del2            =   9.2326180921445E-05
(PID.TID 0000.0001) %MON dynstat_vvel_max             =   3.9079725144753E-01
(PID.TID 0000.0001) %MON dynstat_vvel_min             =  -4.1071339718395E-01
(PID.TID 0000.0001) %MON dynstat_vvel_mean            =   3.9969667877680E-04
(PID.TID 0000.0001) %MON dynstat_vvel_sd              =   7.4378661661154E-03
(PID.TID 0000.0001) %MON dynstat_vvel_del2            =   9.3455405899248E-05
(PID.TID 0000.0001) %MON dynstat_wvel_max             =   1.2750415923906E-04
(PID.TID 0000.0001) %MON dynstat_wvel_min             =  -9.0332619177050E-05
(PID.TID 0000.0001) %MON dynstat_wvel_mean            =  -9.3215244525062E-08
(PID.TID 0000.0001) %MON dynstat_wvel_sd              =   5.9192707388134E-06
(PID.TID 0000.0001) %MON dynstat_wvel_del2            =   6.5148659675813E-08
(PID.TID 0000.0001) %MON dynstat_theta_max            =   2.4095292666818E+01
(PID.TID 0000.0001) %MON dynstat_theta_min            =   1.6060875110271E+01
(PID.TID 0000.0001) %MON dynstat_theta_mean           =   1.9997934539957E+01
(PID.TID 0000.0001) %MON dynstat_theta_sd             =   3.4382267244035E-02
(PID.TID 0000.0001) %MON dynstat_theta_del2           =   5.8254071807016E-04
(PID.TID 0000.0001) %MON dynstat_salt_max             =   3.5150881966861E+01
(PID.TID 0000.0001) %MON dynstat_salt_min             =   2.2917511049136E+01
(PID.TID 0000.0001) %MON dynstat_salt_mean            =   3.4999554677038E+01
(PID.TID 0000.0001) %MON dynstat_salt_sd              =   4.3008135927463E-02
(PID.TID 0000.0001) %MON dynstat_salt_del2            =   1.4678557923476E-03
(PID.TID 0000.0001) %MON dynstat_sst_max              =   2.4095292666818E+01
(PID.TID 0000.0001) %MON dynstat_sst_min              =   1.6060875110271E+01
(PID.TID 0000.0001) %MON dynstat_sst_mean             =   2.0174772696074E+01
(PID.TID 0000.0001) %MON dynstat_sst_sd               =   3.2255586638886E-01
(PID.TID 0000.0001) %MON dynstat_sst_del2             =   6.9476837598850E-03
(PID.TID 0000.0001) %MON dynstat_sss_max              =   3.5150881966861E+01
(PID.TID 0000.0001) %MON dynstat_sss_min              =   2.2917511049136E+01
(PID.TID 0000.0001) %MON dynstat_sss_mean             =   3.4959344905919E+01
(PID.TID 0000.0001) %MON dynstat_sss_sd               =   5.1850026914479E-01
(PID.TID 0000.0001) %MON dynstat_sss_del2             =   1.9862731614198E-02
(PID.TID 0000.0001) %MON forcing_qnet_max             =   3.5738832952355E+03
(PID.TID 0000.0001) %MON forcing_qnet_min             =  -2.2653708496094E+03
(PID.TID 0000.0001) %MON forcing_qnet_mean            =  -1.7659573049896E+01
(PID.TID 0000.0001) %MON forcing_qnet_sd              =   4.3318255922699E+02
(PID.TID 0000.0001) %MON forcing_qnet_del2            =   4.8917001961918E+00
(PID.TID 0000.0001) %MON forcing_qsw_max              =   0.0000000000000E+00
(PID.TID 0000.0001) %MON forcing_qsw_min              =  -1.0720858673138E+02
(PID.TID 0000.0001) %MON forcing_qsw_mean             =  -2.1357060350886E+01
(PID.TID 0000.0001) %MON forcing_qsw_sd               =   3.0025404981792E+01
(PID.TID 0000.0001) %MON forcing_qsw_del2             =   2.3951684149321E-01
(PID.TID 0000.0001) %MON forcing_empmr_max            =   4.3243519030511E-03
(PID.TID 0000.0001) %MON forcing_empmr_min            =  -6.2134355306625E-02
(PID.TID 0000.0001) %MON forcing_empmr_mean           =  -3.3189220731018E-04
(PID.TID 0000.0001) %MON forcing_empmr_sd             =   2.7843554487224E-03
(PID.TID 0000.0001) %MON forcing_empmr_del2           =   1.0812708048987E-04
(PID.TID 0000.0001) %MON forcing_fu_max               =   4.8183661236609E-01
(PID.TID 0000.0001) %MON forcing_fu_min               =  -5.8048016658645E-01
(PID.TID 0000.0001) %MON forcing_fu_mean              =  -2.1080576693464E-03
(PID.TID 0000.0001) %MON forcing_fu_sd                =   7.7974287490442E-02
(PID.TID 0000.0001) %MON forcing_fu_del2              =   6.6454073347639E-04
(PID.TID 0000.0001) %MON forcing_fv_max               =   3.1937385556043E-01
(PID.TID 0000.0001) %MON forcing_fv_min               =  -3.2212627800755E-01
(PID.TID 0000.0001) %MON forcing_fv_mean              =  -6.9025443492204E-03
(PID.TID 0000.0001) %MON forcing_fv_sd                =   7.1283910236455E-02
(PID.TID 0000.0001) %MON forcing_fv_del2              =   5.5783361967213E-04
(PID.TID 0000.0001) %MON trAdv_CFL_u_max              =   1.7352958172916E-03
(PID.TID 0000.0001) %MON trAdv_CFL_v_max              =   1.4784033543933E-03
(PID.TID 0000.0001) %MON trAdv_CFL_w_max              =   2.0873951580620E-03
(PID.TID 0000.0001) %MON advcfl_uvel_max              =   1.5238460542953E-03
(PID.TID 0000.0001) %MON advcfl_vvel_max              =   1.4201319043833E-03
(PID.TID 0000.0001) %MON advcfl_wvel_max              =   4.3223899343739E-03
(PID.TID 0000.0001) %MON advcfl_W_hf_max              =   2.0873951580620E-03
(PID.TID 0000.0001) %MON pe_b_mean                    =   9.0975461637507E-06
(PID.TID 0000.0001) %MON ke_max                       =   1.2121773847659E-01
(PID.TID 0000.0001) %MON ke_mean                      =   4.6221005184874E-05
(PID.TID 0000.0001) %MON ke_vol                       =   1.3398195443413E+18
(PID.TID 0000.0001) %MON vort_r_min                   =  -2.5836161718491E-06
(PID.TID 0000.0001) %MON vort_r_max                   =   2.6055839778398E-06
(PID.TID 0000.0001) %MON vort_a_mean                  =  -2.0549865324846E-05
(PID.TID 0000.0001) %MON vort_a_sd                    =   7.5259402298356E-05
(PID.TID 0000.0001) %MON vort_p_mean                  =  -2.4783203932607E-05
(PID.TID 0000.0001) %MON vort_p_sd                    =   1.2810503598313E-04
(PID.TID 0000.0001) %MON surfExpan_theta_mean         =  -4.1962075585196E-07
(PID.TID 0000.0001) %MON surfExpan_salt_mean          =   1.3371413225109E-06
(PID.TID 0000.0001) // =======================================================
(PID.TID 0000.0001) // End MONITOR dynamic field statistics
(PID.TID 0000.0001) // =======================================================
(PID.TID 0000.0001) DEBUG_MSG: LEAVING S/R FORWARD_STEP
(PID.TID 0000.0001) DEBUG_MSG: ENTERED S/R FORWARD_STEP
(PID.TID 0000.0001) DEBUG_MSG: CALLING S/R LOAD_FIELDS_DRIVER
(PID.TID 0000.0001) DEBUG_MSG: ENTERED S/R LOAD_FIELDS_DRIVER
(PID.TID 0000.0001) DEBUG_MSG: CALLING S/R EXTERNAL_FIELDS_LOAD
(PID.TID 0000.0001) DEBUG_MSG: LEAVING S/R LOAD_FIELDS_DRIVER
(PID.TID 0000.0001) DEBUG_MSG: CALLING S/R DO_ATMOSPHERIC_PHYS
(PID.TID 0000.0001) DEBUG_MSG: ENTERED S/R DO_ATMOSPHERIC_PHYS
(PID.TID 0000.0001) DEBUG_MSG: LEAVING S/R DO_ATMOSPHERIC_PHYS
(PID.TID 0000.0001) DEBUG_MSG: CALLING S/R DO_OCEANIC_PHYS
(PID.TID 0000.0001) DEBUG_MSG: ENTERED S/R DO_OCEANIC_PHYS
(PID.TID 0000.0001) DEBUG_MSG: CALLING S/R EXTERNAL_FORCING_SURF
(PID.TID 0000.0001) DEBUG_MSG: CALLING S/R FIND_RHO_2D (xNr)
(PID.TID 0000.0001) DEBUG_MSG:                  ENTERING UPWARD K LOOP (bi=   1, bj=   1)
(PID.TID 0000.0001) DEBUG_MSG: CALLING S/R GRAD_SIGMA
(PID.TID 0000.0001) DEBUG_MSG: CALLING S/R CALC_IVDC
(PID.TID 0000.0001) DEBUG_MSG: CALLING S/R GRAD_SIGMA
(PID.TID 0000.0001) DEBUG_MSG: CALLING S/R CALC_IVDC
(PID.TID 0000.0001) DEBUG_MSG: CALLING S/R GRAD_SIGMA
(PID.TID 0000.0001) DEBUG_MSG: CALLING S/R CALC_IVDC
(PID.TID 0000.0001) DEBUG_MSG: CALLING S/R GRAD_SIGMA
(PID.TID 0000.0001) DEBUG_MSG: CALLING S/R CALC_IVDC
(PID.TID 0000.0001) DEBUG_MSG: CALLING S/R GRAD_SIGMA
(PID.TID 0000.0001) DEBUG_MSG: CALLING S/R CALC_IVDC
(PID.TID 0000.0001) DEBUG_MSG: CALLING S/R GRAD_SIGMA
(PID.TID 0000.0001) DEBUG_MSG: CALLING S/R CALC_IVDC
(PID.TID 0000.0001) DEBUG_MSG: CALLING S/R GRAD_SIGMA
(PID.TID 0000.0001) DEBUG_MSG: CALLING S/R CALC_IVDC
(PID.TID 0000.0001) DEBUG_MSG: CALLING S/R GRAD_SIGMA
(PID.TID 0000.0001) DEBUG_MSG: CALLING S/R CALC_IVDC
(PID.TID 0000.0001) DEBUG_MSG: CALLING S/R GRAD_SIGMA
(PID.TID 0000.0001) DEBUG_MSG: CALLING S/R CALC_IVDC
(PID.TID 0000.0001) DEBUG_MSG: CALLING S/R GRAD_SIGMA
(PID.TID 0000.0001) DEBUG_MSG: CALLING S/R CALC_IVDC
(PID.TID 0000.0001) DEBUG_MSG: CALLING S/R GRAD_SIGMA
(PID.TID 0000.0001) DEBUG_MSG: CALLING S/R CALC_IVDC
(PID.TID 0000.0001) DEBUG_MSG: CALLING S/R GRAD_SIGMA
(PID.TID 0000.0001) DEBUG_MSG: CALLING S/R CALC_IVDC
(PID.TID 0000.0001) DEBUG_MSG: CALLING S/R GRAD_SIGMA
(PID.TID 0000.0001) DEBUG_MSG: CALLING S/R CALC_IVDC
(PID.TID 0000.0001) DEBUG_MSG: CALLING S/R GRAD_SIGMA
(PID.TID 0000.0001) DEBUG_MSG: CALLING S/R CALC_IVDC
(PID.TID 0000.0001) DEBUG_MSG: CALLING S/R GRAD_SIGMA
(PID.TID 0000.0001) DEBUG_MSG: CALLING S/R CALC_IVDC
(PID.TID 0000.0001) DEBUG_MSG: CALLING S/R GRAD_SIGMA
(PID.TID 0000.0001) DEBUG_MSG: CALLING S/R GMREDI_CALC_TENSOR
(PID.TID 0000.0001) DEBUG_MSG: LEAVING S/R DO_OCEANIC_PHYS
(PID.TID 0000.0001) DEBUG_MSG: CALLING S/R DYNAMICS
(PID.TID 0000.0001) DEBUG_MSG: ENTERED S/R DYNAMICS
DEBUG_STATS_RL:                EtaN (DYNAMICS)  min= -7.40244934206069E-01
DEBUG_STATS_RL:                EtaN (DYNAMICS)  max=  1.32364686306174E+00
DEBUG_STATS_RL:                EtaN (DYNAMICS) mean=  4.74358209539793E-02
DEBUG_STATS_RL:                EtaN (DYNAMICS) S.D.=  7.15925331416758E-02
DEBUG_STATS_RL:                Uvel (DYNAMICS)  min= -5.28225493700286E-01
DEBUG_STATS_RL:                Uvel (DYNAMICS)  max=  2.72193670408420E-01
DEBUG_STATS_RL:                Uvel (DYNAMICS) mean= -8.81711880242086E-04
DEBUG_STATS_RL:                Uvel (DYNAMICS) S.D.=  2.03314811672009E-02
DEBUG_STATS_RL:                Vvel (DYNAMICS)  min= -4.10713397183946E-01
DEBUG_STATS_RL:                Vvel (DYNAMICS)  max=  3.90797251447533E-01
DEBUG_STATS_RL:                Vvel (DYNAMICS) mean= -5.33487368081102E-04
DEBUG_STATS_RL:                Vvel (DYNAMICS) S.D.=  2.26475980040130E-02
DEBUG_STATS_RL:                Wvel (DYNAMICS)  min= -9.03326191770504E-05
DEBUG_STATS_RL:                Wvel (DYNAMICS)  max=  1.27504159239059E-04
DEBUG_STATS_RL:                Wvel (DYNAMICS) mean= -2.43366004207437E-07
DEBUG_STATS_RL:                Wvel (DYNAMICS) S.D.=  6.16181661402247E-06
DEBUG_STATS_RL:               Theta (DYNAMICS)  min=  1.60608751102708E+01
DEBUG_STATS_RL:               Theta (DYNAMICS)  max=  2.40952926668180E+01
DEBUG_STATS_RL:               Theta (DYNAMICS) mean=  2.00053949657167E+01
DEBUG_STATS_RL:               Theta (DYNAMICS) S.D.=  1.04607904622561E-01
DEBUG_STATS_RL:                Salt (DYNAMICS)  min=  2.29175110491363E+01
DEBUG_STATS_RL:                Salt (DYNAMICS)  max=  3.51508819668609E+01
DEBUG_STATS_RL:                Salt (DYNAMICS) mean=  3.49965795234506E+01
DEBUG_STATS_RL:                Salt (DYNAMICS) S.D.=  1.39372376245647E-01
DEBUG_STATS_RL:                  Gu (DYNAMICS)  min= -5.23432786416358E-01
DEBUG_STATS_RL:                  Gu (DYNAMICS)  max=  2.63430454712583E-01
DEBUG_STATS_RL:                  Gu (DYNAMICS) mean= -8.91776334741884E-04
DEBUG_STATS_RL:                  Gu (DYNAMICS) S.D.=  2.02981997751782E-02
DEBUG_STATS_RL:                  Gv (DYNAMICS)  min= -4.13988086315311E-01
DEBUG_STATS_RL:                  Gv (DYNAMICS)  max=  3.90933034510679E-01
DEBUG_STATS_RL:                  Gv (DYNAMICS) mean= -5.05344238755050E-04
DEBUG_STATS_RL:                  Gv (DYNAMICS) S.D.=  2.26362171162361E-02
DEBUG_STATS_RL:               GuNm1 (DYNAMICS)  min= -2.68734208470998E-05
DEBUG_STATS_RL:               GuNm1 (DYNAMICS)  max=  2.05694352801137E-05
DEBUG_STATS_RL:               GuNm1 (DYNAMICS) mean= -1.21095519358403E-08
DEBUG_STATS_RL:               GuNm1 (DYNAMICS) S.D.=  1.18918674393703E-06
DEBUG_STATS_RL:               GvNm1 (DYNAMICS)  min= -1.55050570962191E-05
DEBUG_STATS_RL:               GvNm1 (DYNAMICS)  max=  3.66437426792621E-05
DEBUG_STATS_RL:               GvNm1 (DYNAMICS) mean=  2.88435077281873E-08
DEBUG_STATS_RL:               GvNm1 (DYNAMICS) S.D.=  1.07389914818450E-06
DEBUG_STATS_RL:               GtNm1 (DYNAMICS)  min= -3.09678323827102E-06
DEBUG_STATS_RL:               GtNm1 (DYNAMICS)  max=  4.04508128839708E-06
DEBUG_STATS_RL:               GtNm1 (DYNAMICS) mean=  1.12699592837503E-09
DEBUG_STATS_RL:               GtNm1 (DYNAMICS) S.D.=  6.35840389553164E-08
DEBUG_STATS_RL:               GsNm1 (DYNAMICS)  min= -1.36115486227770E-05
DEBUG_STATS_RL:               GsNm1 (DYNAMICS)  max=  2.57019472357718E-06
DEBUG_STATS_RL:               GsNm1 (DYNAMICS) mean= -3.87686811705109E-09
DEBUG_STATS_RL:               GsNm1 (DYNAMICS) S.D.=  1.50883700447952E-07
(PID.TID 0000.0001) DEBUG_MSG: LEAVING S/R DYNAMICS
DEBUG_STATS_RL:    cg2d_b (SOLVE_FOR_PRESSURE)  min= -1.60409552794034E+05
DEBUG_STATS_RL:    cg2d_b (SOLVE_FOR_PRESSURE)  max=  6.44482762479025E+04
DEBUG_STATS_RL:    cg2d_b (SOLVE_FOR_PRESSURE) mean= -4.83448302522267E+03
DEBUG_STATS_RL:    cg2d_b (SOLVE_FOR_PRESSURE) S.D.=  7.07255282737704E+03
 cg2d: Sum(rhs),rhsMax =  -1.33211611149626E+02  3.07289588916568E+01
(PID.TID 0000.0001)  cg2d: iter=     1 ; resid.=  2.74757013884216E-02
(PID.TID 0000.0001)  cg2d: iter=     2 ; resid.=  4.46861656938526E-03
(PID.TID 0000.0001)  cg2d: iter=     3 ; resid.=  1.37676556021331E-03
(PID.TID 0000.0001)  cg2d: iter=     4 ; resid.=  3.96605912994166E-04
(PID.TID 0000.0001)  cg2d: iter=     5 ; resid.=  9.28279438288712E-05
(PID.TID 0000.0001)  cg2d: iter=     6 ; resid.=  1.68654609043324E-05
(PID.TID 0000.0001)  cg2d: iter=     7 ; resid.=  3.59405312461200E-06
(PID.TID 0000.0001)  cg2d: iter=     8 ; resid.=  1.08220171094835E-06
(PID.TID 0000.0001)  cg2d: iter=     9 ; resid.=  3.50523039709566E-07
(PID.TID 0000.0001)  cg2d: iter=    10 ; resid.=  9.32531006230902E-08
DEBUG_STATS_RL:    cg2d_x (SOLVE_FOR_PRESSURE)  min= -7.40386319017937E+00
DEBUG_STATS_RL:    cg2d_x (SOLVE_FOR_PRESSURE)  max=  1.29261544763024E+01
DEBUG_STATS_RL:    cg2d_x (SOLVE_FOR_PRESSURE) mean=  4.68226796016931E-01
DEBUG_STATS_RL:    cg2d_x (SOLVE_FOR_PRESSURE) S.D.=  6.99385599762557E-01
(PID.TID 0000.0001)      cg2d_init_res =   2.09183192924809E-01
(PID.TID 0000.0001)      cg2d_iters(min,last) =      -1      10
(PID.TID 0000.0001)      cg2d_last_res =   9.32531006230902E-08
(PID.TID 0000.0001) DEBUG_MSG: CALLING S/R UPDATE_ETAH
(PID.TID 0000.0001) DEBUG_MSG: ENTERED S/R CALC_R_STAR
(PID.TID 0000.0001) DEBUG_MSG: LEAVING S/R CALC_R_STAR
(PID.TID 0000.0001) DEBUG_MSG: CALLING S/R DO_STAGGER_FIELDS_EXCH.
(PID.TID 0000.0001) DEBUG_MSG: CALLING S/R THERMODYNAMICS
(PID.TID 0000.0001) DEBUG_MSG: ENTERED S/R THERMODYNAMICS
(PID.TID 0000.0001) DEBUG_MSG: CALLING S/R TEMP_INTEGRATE
(PID.TID 0000.0001) DEBUG_MSG: CALLING S/R SALT_INTEGRATE
DEBUG_STATS_RL:          Uvel (THERMODYNAMICS)  min= -5.11787782133177E-01
DEBUG_STATS_RL:          Uvel (THERMODYNAMICS)  max=  2.62404388826819E-01
DEBUG_STATS_RL:          Uvel (THERMODYNAMICS) mean= -9.01279672192856E-04
DEBUG_STATS_RL:          Uvel (THERMODYNAMICS) S.D.=  2.02849754515978E-02
DEBUG_STATS_RL:          Vvel (THERMODYNAMICS)  min= -4.13399098511671E-01
DEBUG_STATS_RL:          Vvel (THERMODYNAMICS)  max=  3.90294036072090E-01
DEBUG_STATS_RL:          Vvel (THERMODYNAMICS) mean= -5.03716510116364E-04
DEBUG_STATS_RL:          Vvel (THERMODYNAMICS) S.D.=  2.26521958929053E-02
DEBUG_STATS_RL:          Wvel (THERMODYNAMICS)  min= -8.82909125021265E-05
DEBUG_STATS_RL:          Wvel (THERMODYNAMICS)  max=  1.24672947871345E-04
DEBUG_STATS_RL:          Wvel (THERMODYNAMICS) mean= -2.41920365727825E-07
DEBUG_STATS_RL:          Wvel (THERMODYNAMICS) S.D.=  6.13299908234465E-06
DEBUG_STATS_RL:         Theta (THERMODYNAMICS)  min=  1.60630953517933E+01
DEBUG_STATS_RL:         Theta (THERMODYNAMICS)  max=  2.41180317788084E+01
DEBUG_STATS_RL:         Theta (THERMODYNAMICS) mean=  2.00054823593175E+01
DEBUG_STATS_RL:         Theta (THERMODYNAMICS) S.D.=  1.05117876650129E-01
DEBUG_STATS_RL:          Salt (THERMODYNAMICS)  min=  2.28815041799720E+01
DEBUG_STATS_RL:          Salt (THERMODYNAMICS)  max=  3.51509059009347E+01
DEBUG_STATS_RL:          Salt (THERMODYNAMICS) mean=  3.49965627929646E+01
DEBUG_STATS_RL:          Salt (THERMODYNAMICS) S.D.=  1.39822328489700E-01
DEBUG_STATS_RL:         GtNm1 (THERMODYNAMICS)  min= -3.10326904669717E-06
DEBUG_STATS_RL:         GtNm1 (THERMODYNAMICS)  max=  3.88417041283319E-06
DEBUG_STATS_RL:         GtNm1 (THERMODYNAMICS) mean=  1.07955498901426E-09
DEBUG_STATS_RL:         GtNm1 (THERMODYNAMICS) S.D.=  6.22830051376070E-08
DEBUG_STATS_RL:         GsNm1 (THERMODYNAMICS)  min= -1.35212023838059E-05
DEBUG_STATS_RL:         GsNm1 (THERMODYNAMICS)  max=  2.57791878549298E-06
DEBUG_STATS_RL:         GsNm1 (THERMODYNAMICS) mean= -3.84011972706212E-09
DEBUG_STATS_RL:         GsNm1 (THERMODYNAMICS) S.D.=  1.49647574373145E-07
(PID.TID 0000.0001) DEBUG_MSG: LEAVING S/R THERMODYNAMICS
(PID.TID 0000.0001) // =======================================================
(PID.TID 0000.0001) // Begin MONITOR dynamic field statistics
(PID.TID 0000.0001) // =======================================================
(PID.TID 0000.0001) %MON time_tsnumber                =                    93
(PID.TID 0000.0001) %MON time_secondsf                =   8.3700000000000E+04
(PID.TID 0000.0001) %MON dynstat_eta_max              =   1.3176508137881E+00
(PID.TID 0000.0001) %MON dynstat_eta_min              =  -7.5472611702953E-01
(PID.TID 0000.0001) %MON dynstat_eta_mean             =   4.7565394236205E-02
(PID.TID 0000.0001) %MON dynstat_eta_sd               =   6.7538708183904E-02
(PID.TID 0000.0001) %MON dynstat_eta_del2             =   1.0286725592906E-03
(PID.TID 0000.0001) %MON dynstat_uvel_max             =   2.6240438882682E-01
(PID.TID 0000.0001) %MON dynstat_uvel_min             =  -5.1178778213318E-01
(PID.TID 0000.0001) %MON dynstat_uvel_mean            =  -1.6835125100386E-04
(PID.TID 0000.0001) %MON dynstat_uvel_sd              =   6.6637247110665E-03
(PID.TID 0000.0001) %MON dynstat_uvel_del2            =   9.2235450504189E-05
(PID.TID 0000.0001) %MON dynstat_vvel_max             =   3.9029403607209E-01
(PID.TID 0000.0001) %MON dynstat_vvel_min             =  -4.1339909851167E-01
(PID.TID 0000.0001) %MON dynstat_vvel_mean            =   3.9809626103606E-04
(PID.TID 0000.0001) %MON dynstat_vvel_sd              =   7.4337833459490E-03
(PID.TID 0000.0001) %MON dynstat_vvel_del2            =   9.2695860056555E-05
(PID.TID 0000.0001) %MON dynstat_wvel_max             =   1.2467294787135E-04
(PID.TID 0000.0001) %MON dynstat_wvel_min             =  -8.8290912502126E-05
(PID.TID 0000.0001) %MON dynstat_wvel_mean            =  -9.3905206385983E-08
(PID.TID 0000.0001) %MON dynstat_wvel_sd              =   5.8936091507865E-06
(PID.TID 0000.0001) %MON dynstat_wvel_del2            =   6.4760234840130E-08
(PID.TID 0000.0001) %MON dynstat_theta_max            =   2.4118031778808E+01
(PID.TID 0000.0001) %MON dynstat_theta_min            =   1.6063095351793E+01
(PID.TID 0000.0001) %MON dynstat_theta_mean           =   1.9997935720232E+01
(PID.TID 0000.0001) %MON dynstat_theta_sd             =   3.4546549431853E-02
(PID.TID 0000.0001) %MON dynstat_theta_del2           =   5.8445492143621E-04
(PID.TID 0000.0001) %MON dynstat_salt_max             =   3.5150905900935E+01
(PID.TID 0000.0001) %MON dynstat_salt_min             =   2.2881504179972E+01
(PID.TID 0000.0001) %MON dynstat_salt_mean            =   3.4999552336789E+01
(PID.TID 0000.0001) %MON dynstat_salt_sd              =   4.3147380469022E-02
(PID.TID 0000.0001) %MON dynstat_salt_del2            =   1.4719088201070E-03
(PID.TID 0000.0001) %MON dynstat_sst_max              =   2.4118031778808E+01
(PID.TID 0000.0001) %MON dynstat_sst_min              =   1.6063095351793E+01
(PID.TID 0000.0001) %MON dynstat_sst_mean             =   2.0176118603023E+01
(PID.TID 0000.0001) %MON dynstat_sst_sd               =   3.2416498735666E-01
(PID.TID 0000.0001) %MON dynstat_sst_del2             =   6.9756811263401E-03
(PID.TID 0000.0001) %MON dynstat_sss_max              =   3.5150905900935E+01
(PID.TID 0000.0001) %MON dynstat_sss_min              =   2.2881504179972E+01
(PID.TID 0000.0001) %MON dynstat_sss_mean             =   3.4959145785299E+01
(PID.TID 0000.0001) %MON dynstat_sss_sd               =   5.2016524291022E-01
(PID.TID 0000.0001) %MON dynstat_sss_del2             =   1.9917497027029E-02
(PID.TID 0000.0001) %MON forcing_qnet_max             =   3.6856359407257E+03
(PID.TID 0000.0001) %MON forcing_qnet_min             =  -2.2333935546875E+03
(PID.TID 0000.0001) %MON forcing_qnet_mean            =  -1.8648831473806E+01
(PID.TID 0000.0001) %MON forcing_qnet_sd              =   4.3531331019920E+02
(PID.TID 0000.0001) %MON forcing_qnet_del2            =   4.9053337827796E+00
(PID.TID 0000.0001) %MON forcing_qsw_max              =   0.0000000000000E+00
(PID.TID 0000.0001) %MON forcing_qsw_min              =  -1.0526987959925E+02
(PID.TID 0000.0001) %MON forcing_qsw_mean             =  -2.1958698558650E+01
(PID.TID 0000.0001) %MON forcing_qsw_sd               =   3.0406264238600E+01
(PID.TID 0000.0001) %MON forcing_qsw_del2             =   2.4323916584766E-01
(PID.TID 0000.0001) %MON forcing_empmr_max            =   4.2798733338714E-03
(PID.TID 0000.0001) %MON forcing_empmr_min            =  -6.1494968831539E-02
(PID.TID 0000.0001) %MON forcing_empmr_mean           =  -3.2999830138255E-04
(PID.TID 0000.0001) %MON forcing_empmr_sd             =   2.7573448103439E-03
(PID.TID 0000.0001) %MON forcing_empmr_del2           =   1.0703185196917E-04
(PID.TID 0000.0001) %MON forcing_fu_max               =   4.8042691137180E-01
(PID.TID 0000.0001) %MON forcing_fu_min               =  -5.8063346301659E-01
(PID.TID 0000.0001) %MON forcing_fu_mean              =  -2.2696494636395E-03
(PID.TID 0000.0001) %MON forcing_fu_sd                =   7.7901929174402E-02
(PID.TID 0000.0001) %MON forcing_fu_del2              =   6.6344738939392E-04
(PID.TID 0000.0001) %MON forcing_fv_max               =   3.2093194829927E-01
(PID.TID 0000.0001) %MON forcing_fv_min               =  -3.2558429802304E-01
(PID.TID 0000.0001) %MON forcing_fv_mean              =  -6.8918849656001E-03
(PID.TID 0000.0001) %MON forcing_fv_sd                =   7.1233348916104E-02
(PID.TID 0000.0001) %MON forcing_fv_del2              =   5.5579241416686E-04
(PID.TID 0000.0001) %MON trAdv_CFL_u_max              =   1.7708754417505E-03
(PID.TID 0000.0001) %MON trAdv_CFL_v_max              =   1.4635221483149E-03
(PID.TID 0000.0001) %MON trAdv_CFL_w_max              =   2.0728843926162E-03
(PID.TID 0000.0001) %MON advcfl_uvel_max              =   1.4764258858031E-03
(PID.TID 0000.0001) %MON advcfl_vvel_max              =   1.4058385450855E-03
(PID.TID 0000.0001) %MON advcfl_wvel_max              =   4.2779108752375E-03
(PID.TID 0000.0001) %MON advcfl_W_hf_max              =   2.0728843926162E-03
(PID.TID 0000.0001) %MON pe_b_mean                    =   9.0906374922430E-06
(PID.TID 0000.0001) %MON ke_max                       =   1.1903798243818E-01
(PID.TID 0000.0001) %MON ke_mean                      =   4.6126960895350E-05
(PID.TID 0000.0001) %MON ke_vol                       =   1.3398196493597E+18
(PID.TID 0000.0001) %MON vort_r_min                   =  -2.5738132915603E-06
(PID.TID 0000.0001) %MON vort_r_max                   =   2.5946085606775E-06
(PID.TID 0000.0001) %MON vort_a_mean                  =  -2.0549865324846E-05
(PID.TID 0000.0001) %MON vort_a_sd                    =   7.5259402913731E-05
(PID.TID 0000.0001) %MON vort_p_mean                  =  -2.4783202048145E-05
(PID.TID 0000.0001) %MON vort_p_sd                    =   1.2810502965053E-04
(PID.TID 0000.0001) %MON surfExpan_theta_mean         =  -4.0020751184674E-07
(PID.TID 0000.0001) %MON surfExpan_salt_mean          =   1.3230937318866E-06
(PID.TID 0000.0001) // =======================================================
(PID.TID 0000.0001) // End MONITOR dynamic field statistics
(PID.TID 0000.0001) // =======================================================
(PID.TID 0000.0001) DEBUG_MSG: LEAVING S/R FORWARD_STEP
(PID.TID 0000.0001) DEBUG_MSG: ENTERED S/R FORWARD_STEP
(PID.TID 0000.0001) DEBUG_MSG: CALLING S/R LOAD_FIELDS_DRIVER
(PID.TID 0000.0001) DEBUG_MSG: ENTERED S/R LOAD_FIELDS_DRIVER
(PID.TID 0000.0001) DEBUG_MSG: CALLING S/R EXTERNAL_FIELDS_LOAD
(PID.TID 0000.0001) DEBUG_MSG: LEAVING S/R LOAD_FIELDS_DRIVER
(PID.TID 0000.0001) DEBUG_MSG: CALLING S/R DO_ATMOSPHERIC_PHYS
(PID.TID 0000.0001) DEBUG_MSG: ENTERED S/R DO_ATMOSPHERIC_PHYS
(PID.TID 0000.0001) DEBUG_MSG: LEAVING S/R DO_ATMOSPHERIC_PHYS
(PID.TID 0000.0001) DEBUG_MSG: CALLING S/R DO_OCEANIC_PHYS
(PID.TID 0000.0001) DEBUG_MSG: ENTERED S/R DO_OCEANIC_PHYS
(PID.TID 0000.0001) DEBUG_MSG: CALLING S/R EXTERNAL_FORCING_SURF
(PID.TID 0000.0001) DEBUG_MSG: CALLING S/R FIND_RHO_2D (xNr)
(PID.TID 0000.0001) DEBUG_MSG:                  ENTERING UPWARD K LOOP (bi=   1, bj=   1)
(PID.TID 0000.0001) DEBUG_MSG: CALLING S/R GRAD_SIGMA
(PID.TID 0000.0001) DEBUG_MSG: CALLING S/R CALC_IVDC
(PID.TID 0000.0001) DEBUG_MSG: CALLING S/R GRAD_SIGMA
(PID.TID 0000.0001) DEBUG_MSG: CALLING S/R CALC_IVDC
(PID.TID 0000.0001) DEBUG_MSG: CALLING S/R GRAD_SIGMA
(PID.TID 0000.0001) DEBUG_MSG: CALLING S/R CALC_IVDC
(PID.TID 0000.0001) DEBUG_MSG: CALLING S/R GRAD_SIGMA
(PID.TID 0000.0001) DEBUG_MSG: CALLING S/R CALC_IVDC
(PID.TID 0000.0001) DEBUG_MSG: CALLING S/R GRAD_SIGMA
(PID.TID 0000.0001) DEBUG_MSG: CALLING S/R CALC_IVDC
(PID.TID 0000.0001) DEBUG_MSG: CALLING S/R GRAD_SIGMA
(PID.TID 0000.0001) DEBUG_MSG: CALLING S/R CALC_IVDC
(PID.TID 0000.0001) DEBUG_MSG: CALLING S/R GRAD_SIGMA
(PID.TID 0000.0001) DEBUG_MSG: CALLING S/R CALC_IVDC
(PID.TID 0000.0001) DEBUG_MSG: CALLING S/R GRAD_SIGMA
(PID.TID 0000.0001) DEBUG_MSG: CALLING S/R CALC_IVDC
(PID.TID 0000.0001) DEBUG_MSG: CALLING S/R GRAD_SIGMA
(PID.TID 0000.0001) DEBUG_MSG: CALLING S/R CALC_IVDC
(PID.TID 0000.0001) DEBUG_MSG: CALLING S/R GRAD_SIGMA
(PID.TID 0000.0001) DEBUG_MSG: CALLING S/R CALC_IVDC
(PID.TID 0000.0001) DEBUG_MSG: CALLING S/R GRAD_SIGMA
(PID.TID 0000.0001) DEBUG_MSG: CALLING S/R CALC_IVDC
(PID.TID 0000.0001) DEBUG_MSG: CALLING S/R GRAD_SIGMA
(PID.TID 0000.0001) DEBUG_MSG: CALLING S/R CALC_IVDC
(PID.TID 0000.0001) DEBUG_MSG: CALLING S/R GRAD_SIGMA
(PID.TID 0000.0001) DEBUG_MSG: CALLING S/R CALC_IVDC
(PID.TID 0000.0001) DEBUG_MSG: CALLING S/R GRAD_SIGMA
(PID.TID 0000.0001) DEBUG_MSG: CALLING S/R CALC_IVDC
(PID.TID 0000.0001) DEBUG_MSG: CALLING S/R GRAD_SIGMA
(PID.TID 0000.0001) DEBUG_MSG: CALLING S/R CALC_IVDC
(PID.TID 0000.0001) DEBUG_MSG: CALLING S/R GRAD_SIGMA
(PID.TID 0000.0001) DEBUG_MSG: CALLING S/R GMREDI_CALC_TENSOR
(PID.TID 0000.0001) DEBUG_MSG: LEAVING S/R DO_OCEANIC_PHYS
(PID.TID 0000.0001) DEBUG_MSG: CALLING S/R DYNAMICS
(PID.TID 0000.0001) DEBUG_MSG: ENTERED S/R DYNAMICS
DEBUG_STATS_RL:                EtaN (DYNAMICS)  min= -7.54726117029530E-01
DEBUG_STATS_RL:                EtaN (DYNAMICS)  max=  1.31765081378808E+00
DEBUG_STATS_RL:                EtaN (DYNAMICS) mean=  4.77295406912142E-02
DEBUG_STATS_RL:                EtaN (DYNAMICS) S.D.=  7.12931296451395E-02
DEBUG_STATS_RL:                Uvel (DYNAMICS)  min= -5.11787782133177E-01
DEBUG_STATS_RL:                Uvel (DYNAMICS)  max=  2.62404388826819E-01
DEBUG_STATS_RL:                Uvel (DYNAMICS) mean= -9.01279672192856E-04
DEBUG_STATS_RL:                Uvel (DYNAMICS) S.D.=  2.02849754515978E-02
DEBUG_STATS_RL:                Vvel (DYNAMICS)  min= -4.13399098511671E-01
DEBUG_STATS_RL:                Vvel (DYNAMICS)  max=  3.90294036072090E-01
DEBUG_STATS_RL:                Vvel (DYNAMICS) mean= -5.03716510116364E-04
DEBUG_STATS_RL:                Vvel (DYNAMICS) S.D.=  2.26521958929053E-02
DEBUG_STATS_RL:                Wvel (DYNAMICS)  min= -8.82909125021265E-05
DEBUG_STATS_RL:                Wvel (DYNAMICS)  max=  1.24672947871345E-04
DEBUG_STATS_RL:                Wvel (DYNAMICS) mean= -2.41920365727825E-07
DEBUG_STATS_RL:                Wvel (DYNAMICS) S.D.=  6.13299908234465E-06
DEBUG_STATS_RL:               Theta (DYNAMICS)  min=  1.60630953517933E+01
DEBUG_STATS_RL:               Theta (DYNAMICS)  max=  2.41180317788084E+01
DEBUG_STATS_RL:               Theta (DYNAMICS) mean=  2.00054823593175E+01
DEBUG_STATS_RL:               Theta (DYNAMICS) S.D.=  1.05117876650129E-01
DEBUG_STATS_RL:                Salt (DYNAMICS)  min=  2.28815041799720E+01
DEBUG_STATS_RL:                Salt (DYNAMICS)  max=  3.51509059009347E+01
DEBUG_STATS_RL:                Salt (DYNAMICS) mean=  3.49965627929646E+01
DEBUG_STATS_RL:                Salt (DYNAMICS) S.D.=  1.39822328489700E-01
DEBUG_STATS_RL:                  Gu (DYNAMICS)  min= -5.07122415537858E-01
DEBUG_STATS_RL:                  Gu (DYNAMICS)  max=  2.51215982083218E-01
DEBUG_STATS_RL:                  Gu (DYNAMICS) mean= -9.10367009017792E-04
DEBUG_STATS_RL:                  Gu (DYNAMICS) S.D.=  2.02565140931668E-02
DEBUG_STATS_RL:                  Gv (DYNAMICS)  min= -4.14714690056351E-01
DEBUG_STATS_RL:                  Gv (DYNAMICS)  max=  3.88061699490271E-01
DEBUG_STATS_RL:                  Gv (DYNAMICS) mean= -4.74689383157522E-04
DEBUG_STATS_RL:                  Gv (DYNAMICS) S.D.=  2.26095528431213E-02
DEBUG_STATS_RL:               GuNm1 (DYNAMICS)  min= -2.66178566083462E-05
DEBUG_STATS_RL:               GuNm1 (DYNAMICS)  max=  2.10456822807801E-05
DEBUG_STATS_RL:               GuNm1 (DYNAMICS) mean= -1.10386736436871E-08
DEBUG_STATS_RL:               GuNm1 (DYNAMICS) S.D.=  1.18381001502396E-06
DEBUG_STATS_RL:               GvNm1 (DYNAMICS)  min= -1.69425533730280E-05
DEBUG_STATS_RL:               GvNm1 (DYNAMICS)  max=  3.66430415474321E-05
DEBUG_STATS_RL:               GvNm1 (DYNAMICS) mean=  2.99917547760797E-08
DEBUG_STATS_RL:               GvNm1 (DYNAMICS) S.D.=  1.07126949661906E-06
DEBUG_STATS_RL:               GtNm1 (DYNAMICS)  min= -3.10326904669717E-06
DEBUG_STATS_RL:               GtNm1 (DYNAMICS)  max=  3.88417041283319E-06
DEBUG_STATS_RL:               GtNm1 (DYNAMICS) mean=  1.07955498901426E-09
DEBUG_STATS_RL:               GtNm1 (DYNAMICS) S.D.=  6.22830051376070E-08
DEBUG_STATS_RL:               GsNm1 (DYNAMICS)  min= -1.35212023838059E-05
DEBUG_STATS_RL:               GsNm1 (DYNAMICS)  max=  2.57791878549298E-06
DEBUG_STATS_RL:               GsNm1 (DYNAMICS) mean= -3.84011972706212E-09
DEBUG_STATS_RL:               GsNm1 (DYNAMICS) S.D.=  1.49647574373145E-07
(PID.TID 0000.0001) DEBUG_MSG: LEAVING S/R DYNAMICS
DEBUG_STATS_RL:    cg2d_b (SOLVE_FOR_PRESSURE)  min= -1.59287540434753E+05
DEBUG_STATS_RL:    cg2d_b (SOLVE_FOR_PRESSURE)  max=  6.40551312308949E+04
DEBUG_STATS_RL:    cg2d_b (SOLVE_FOR_PRESSURE) mean= -4.86351862381726E+03
DEBUG_STATS_RL:    cg2d_b (SOLVE_FOR_PRESSURE) S.D.=  7.04879323053878E+03
 cg2d: Sum(rhs),rhsMax =  -1.34955642221607E+02  3.05140198742246E+01
(PID.TID 0000.0001)  cg2d: iter=     1 ; resid.=  2.83338396684304E-02
(PID.TID 0000.0001)  cg2d: iter=     2 ; resid.=  4.73133270099117E-03
(PID.TID 0000.0001)  cg2d: iter=     3 ; resid.=  1.49339971657157E-03
(PID.TID 0000.0001)  cg2d: iter=     4 ; resid.=  4.18940970258920E-04
(PID.TID 0000.0001)  cg2d: iter=     5 ; resid.=  9.46479624859186E-05
(PID.TID 0000.0001)  cg2d: iter=     6 ; resid.=  1.70971077850419E-05
(PID.TID 0000.0001)  cg2d: iter=     7 ; resid.=  3.63976688579181E-06
(PID.TID 0000.0001)  cg2d: iter=     8 ; resid.=  1.08519926377292E-06
(PID.TID 0000.0001)  cg2d: iter=     9 ; resid.=  3.56171560750314E-07
(PID.TID 0000.0001)  cg2d: iter=    10 ; resid.=  9.49767757332108E-08
DEBUG_STATS_RL:    cg2d_x (SOLVE_FOR_PRESSURE)  min= -7.35758909897014E+00
DEBUG_STATS_RL:    cg2d_x (SOLVE_FOR_PRESSURE)  max=  1.28348981790557E+01
DEBUG_STATS_RL:    cg2d_x (SOLVE_FOR_PRESSURE) mean=  4.71169020077352E-01
DEBUG_STATS_RL:    cg2d_x (SOLVE_FOR_PRESSURE) S.D.=  6.96085460407987E-01
(PID.TID 0000.0001)      cg2d_init_res =   2.05470072646696E-01
(PID.TID 0000.0001)      cg2d_iters(min,last) =      -1      10
(PID.TID 0000.0001)      cg2d_last_res =   9.49767757332108E-08
(PID.TID 0000.0001) DEBUG_MSG: CALLING S/R UPDATE_ETAH
(PID.TID 0000.0001) DEBUG_MSG: ENTERED S/R CALC_R_STAR
(PID.TID 0000.0001) DEBUG_MSG: LEAVING S/R CALC_R_STAR
(PID.TID 0000.0001) DEBUG_MSG: CALLING S/R DO_STAGGER_FIELDS_EXCH.
(PID.TID 0000.0001) DEBUG_MSG: CALLING S/R THERMODYNAMICS
(PID.TID 0000.0001) DEBUG_MSG: ENTERED S/R THERMODYNAMICS
(PID.TID 0000.0001) DEBUG_MSG: CALLING S/R TEMP_INTEGRATE
(PID.TID 0000.0001) DEBUG_MSG: CALLING S/R SALT_INTEGRATE
DEBUG_STATS_RL:          Uvel (THERMODYNAMICS)  min= -4.93281571102653E-01
DEBUG_STATS_RL:          Uvel (THERMODYNAMICS)  max=  2.50962602050198E-01
DEBUG_STATS_RL:          Uvel (THERMODYNAMICS) mean= -9.19238185026031E-04
DEBUG_STATS_RL:          Uvel (THERMODYNAMICS) S.D.=  2.02412732089015E-02
DEBUG_STATS_RL:          Vvel (THERMODYNAMICS)  min= -4.14115033356933E-01
DEBUG_STATS_RL:          Vvel (THERMODYNAMICS)  max=  3.87425243823131E-01
DEBUG_STATS_RL:          Vvel (THERMODYNAMICS) mean= -4.72730219065468E-04
DEBUG_STATS_RL:          Vvel (THERMODYNAMICS) S.D.=  2.26276377525390E-02
DEBUG_STATS_RL:          Wvel (THERMODYNAMICS)  min= -8.97990116461553E-05
DEBUG_STATS_RL:          Wvel (THERMODYNAMICS)  max=  1.21900037936297E-04
DEBUG_STATS_RL:          Wvel (THERMODYNAMICS) mean= -2.40282240775217E-07
DEBUG_STATS_RL:          Wvel (THERMODYNAMICS) S.D.=  6.10677177217790E-06
DEBUG_STATS_RL:         Theta (THERMODYNAMICS)  min=  1.60651778847638E+01
DEBUG_STATS_RL:         Theta (THERMODYNAMICS)  max=  2.41404661938270E+01
DEBUG_STATS_RL:         Theta (THERMODYNAMICS) mean=  2.00055676022102E+01
DEBUG_STATS_RL:         Theta (THERMODYNAMICS) S.D.=  1.05637439470600E-01
DEBUG_STATS_RL:          Salt (THERMODYNAMICS)  min=  2.28462214938928E+01
DEBUG_STATS_RL:          Salt (THERMODYNAMICS)  max=  3.51509302653650E+01
DEBUG_STATS_RL:          Salt (THERMODYNAMICS) mean=  3.49965456643729E+01
DEBUG_STATS_RL:          Salt (THERMODYNAMICS) S.D.=  1.40264043787956E-01
DEBUG_STATS_RL:         GtNm1 (THERMODYNAMICS)  min= -3.10958148706315E-06
DEBUG_STATS_RL:         GtNm1 (THERMODYNAMICS)  max=  3.83451473794986E-06
DEBUG_STATS_RL:         GtNm1 (THERMODYNAMICS) mean=  1.03029333305057E-09
DEBUG_STATS_RL:         GtNm1 (THERMODYNAMICS) S.D.=  6.07348048246029E-08
DEBUG_STATS_RL:         GsNm1 (THERMODYNAMICS)  min= -1.34307342660012E-05
DEBUG_STATS_RL:         GsNm1 (THERMODYNAMICS)  max=  2.58481146277868E-06
DEBUG_STATS_RL:         GsNm1 (THERMODYNAMICS) mean= -3.80333018786950E-09
DEBUG_STATS_RL:         GsNm1 (THERMODYNAMICS) S.D.=  1.48454899975018E-07
(PID.TID 0000.0001) DEBUG_MSG: LEAVING S/R THERMODYNAMICS
(PID.TID 0000.0001) // =======================================================
(PID.TID 0000.0001) // Begin MONITOR dynamic field statistics
(PID.TID 0000.0001) // =======================================================
(PID.TID 0000.0001) %MON time_tsnumber                =                    94
(PID.TID 0000.0001) %MON time_secondsf                =   8.4600000000000E+04
(PID.TID 0000.0001) %MON dynstat_eta_max              =   1.3083484389413E+00
(PID.TID 0000.0001) %MON dynstat_eta_min              =  -7.5000908444205E-01
(PID.TID 0000.0001) %MON dynstat_eta_mean             =   4.7851068978847E-02
(PID.TID 0000.0001) %MON dynstat_eta_sd               =   6.7297549755248E-02
(PID.TID 0000.0001) %MON dynstat_eta_del2             =   1.0365739413320E-03
(PID.TID 0000.0001) %MON dynstat_uvel_max             =   2.5096260205020E-01
(PID.TID 0000.0001) %MON dynstat_uvel_min             =  -4.9328157110265E-01
(PID.TID 0000.0001) %MON dynstat_uvel_mean            =  -1.7020927941596E-04
(PID.TID 0000.0001) %MON dynstat_uvel_sd              =   6.6542131054567E-03
(PID.TID 0000.0001) %MON dynstat_uvel_del2            =   9.2075555240420E-05
(PID.TID 0000.0001) %MON dynstat_vvel_max             =   3.8742524382313E-01
(PID.TID 0000.0001) %MON dynstat_vvel_min             =  -4.1411503335693E-01
(PID.TID 0000.0001) %MON dynstat_vvel_mean            =   3.9893150534189E-04
(PID.TID 0000.0001) %MON dynstat_vvel_sd              =   7.4211552092989E-03
(PID.TID 0000.0001) %MON dynstat_vvel_del2            =   9.2089863191396E-05
(PID.TID 0000.0001) %MON dynstat_wvel_max             =   1.2190003793630E-04
(PID.TID 0000.0001) %MON dynstat_wvel_min             =  -8.9799011646155E-05
(PID.TID 0000.0001) %MON dynstat_wvel_mean            =  -9.4799787733889E-08
(PID.TID 0000.0001) %MON dynstat_wvel_sd              =   5.8703484949164E-06
(PID.TID 0000.0001) %MON dynstat_wvel_del2            =   6.4391027687542E-08
(PID.TID 0000.0001) %MON dynstat_theta_max            =   2.4140466193827E+01
(PID.TID 0000.0001) %MON dynstat_theta_min            =   1.6065177884764E+01
(PID.TID 0000.0001) %MON dynstat_theta_mean           =   1.9997936721770E+01
(PID.TID 0000.0001) %MON dynstat_theta_sd             =   3.4713842924339E-02
(PID.TID 0000.0001) %MON dynstat_theta_del2           =   5.8634145029314E-04
(PID.TID 0000.0001) %MON dynstat_salt_max             =   3.5150930265365E+01
(PID.TID 0000.0001) %MON dynstat_salt_min             =   2.2846221493893E+01
(PID.TID 0000.0001) %MON dynstat_salt_mean            =   3.4999549945450E+01
(PID.TID 0000.0001) %MON dynstat_salt_sd              =   4.3284216260449E-02
(PID.TID 0000.0001) %MON dynstat_salt_del2            =   1.4758637018381E-03
(PID.TID 0000.0001) %MON dynstat_sst_max              =   2.4140466193827E+01
(PID.TID 0000.0001) %MON dynstat_sst_min              =   1.6065177884764E+01
(PID.TID 0000.0001) %MON dynstat_sst_mean             =   2.0177436925243E+01
(PID.TID 0000.0001) %MON dynstat_sst_sd               =   3.2583447568009E-01
(PID.TID 0000.0001) %MON dynstat_sst_del2             =   7.0032983941505E-03
(PID.TID 0000.0001) %MON dynstat_sss_max              =   3.5150930265365E+01
(PID.TID 0000.0001) %MON dynstat_sss_min              =   2.2846221493893E+01
(PID.TID 0000.0001) %MON dynstat_sss_mean             =   3.4958939435650E+01
(PID.TID 0000.0001) %MON dynstat_sss_sd               =   5.2179914226895E-01
(PID.TID 0000.0001) %MON dynstat_sss_del2             =   1.9970952619415E-02
(PID.TID 0000.0001) %MON forcing_qnet_max             =   1.5538063476562E+04
(PID.TID 0000.0001) %MON forcing_qnet_min             =  -2.2035512695312E+03
(PID.TID 0000.0001) %MON forcing_qnet_mean            =  -1.5636517825057E+01
(PID.TID 0000.0001) %MON forcing_qnet_sd              =   5.0052330729885E+02
(PID.TID 0000.0001) %MON forcing_qnet_del2            =   4.8944710207648E+00
(PID.TID 0000.0001) %MON forcing_qsw_max              =   0.0000000000000E+00
(PID.TID 0000.0001) %MON forcing_qsw_min              =  -1.0397408841451E+02
(PID.TID 0000.0001) %MON forcing_qsw_mean             =  -2.2207956119417E+01
(PID.TID 0000.0001) %MON forcing_qsw_sd               =   3.0534200767738E+01
(PID.TID 0000.0001) %MON forcing_qsw_del2             =   2.4452632111217E-01
(PID.TID 0000.0001) %MON forcing_empmr_max            =   4.2358869686723E-03
(PID.TID 0000.0001) %MON forcing_empmr_min            =  -6.0861457139254E-02
(PID.TID 0000.0001) %MON forcing_empmr_mean           =  -3.2852595403796E-04
(PID.TID 0000.0001) %MON forcing_empmr_sd             =   2.7304639030117E-03
(PID.TID 0000.0001) %MON forcing_empmr_del2           =   1.0595058365298E-04
(PID.TID 0000.0001) %MON forcing_fu_max               =   4.7848254866667E-01
(PID.TID 0000.0001) %MON forcing_fu_min               =  -5.8027341194080E-01
(PID.TID 0000.0001) %MON forcing_fu_mean              =  -2.4256804766051E-03
(PID.TID 0000.0001) %MON forcing_fu_sd                =   7.7819969483870E-02
(PID.TID 0000.0001) %MON forcing_fu_del2              =   6.6177231455363E-04
(PID.TID 0000.0001) %MON forcing_fv_max               =   3.2147763055191E-01
(PID.TID 0000.0001) %MON forcing_fv_min               =  -3.2775531076852E-01
(PID.TID 0000.0001) %MON forcing_fv_mean              =  -6.9195037537561E-03
(PID.TID 0000.0001) %MON forcing_fv_sd                =   7.1174402540924E-02
(PID.TID 0000.0001) %MON forcing_fv_del2              =   5.5359427548011E-04
(PID.TID 0000.0001) %MON trAdv_CFL_u_max              =   1.7935028151169E-03
(PID.TID 0000.0001) %MON trAdv_CFL_v_max              =   1.4463082055335E-03
(PID.TID 0000.0001) %MON trAdv_CFL_w_max              =   2.0581927151194E-03
(PID.TID 0000.0001) %MON advcfl_uvel_max              =   1.4230384272363E-03
(PID.TID 0000.0001) %MON advcfl_vvel_max              =   1.3893177125482E-03
(PID.TID 0000.0001) %MON advcfl_wvel_max              =   4.2338404966437E-03
(PID.TID 0000.0001) %MON advcfl_W_hf_max              =   2.0606432834851E-03
(PID.TID 0000.0001) %MON pe_b_mean                    =   9.0836311455333E-06
(PID.TID 0000.0001) %MON ke_max                       =   1.1607773875825E-01
(PID.TID 0000.0001) %MON ke_mean                      =   4.5982283006276E-05
(PID.TID 0000.0001) %MON ke_vol                       =   1.3398197537789E+18
(PID.TID 0000.0001) %MON vort_r_min                   =  -2.5605939607087E-06
(PID.TID 0000.0001) %MON vort_r_max                   =   2.5796115185241E-06
(PID.TID 0000.0001) %MON vort_a_mean                  =  -2.0549865324846E-05
(PID.TID 0000.0001) %MON vort_a_sd                    =   7.5259403811341E-05
(PID.TID 0000.0001) %MON vort_p_mean                  =  -2.4783200171844E-05
(PID.TID 0000.0001) %MON vort_p_sd                    =   1.2810502161148E-04
(PID.TID 0000.0001) %MON surfExpan_theta_mean         =  -3.8049404497592E-07
(PID.TID 0000.0001) %MON surfExpan_salt_mean          =   1.3092654700700E-06
(PID.TID 0000.0001) // =======================================================
(PID.TID 0000.0001) // End MONITOR dynamic field statistics
(PID.TID 0000.0001) // =======================================================
(PID.TID 0000.0001) DEBUG_MSG: LEAVING S/R FORWARD_STEP
(PID.TID 0000.0001) DEBUG_MSG: ENTERED S/R FORWARD_STEP
(PID.TID 0000.0001) DEBUG_MSG: CALLING S/R LOAD_FIELDS_DRIVER
(PID.TID 0000.0001) DEBUG_MSG: ENTERED S/R LOAD_FIELDS_DRIVER
(PID.TID 0000.0001) DEBUG_MSG: CALLING S/R EXTERNAL_FIELDS_LOAD
(PID.TID 0000.0001) DEBUG_MSG: LEAVING S/R LOAD_FIELDS_DRIVER
(PID.TID 0000.0001) DEBUG_MSG: CALLING S/R DO_ATMOSPHERIC_PHYS
(PID.TID 0000.0001) DEBUG_MSG: ENTERED S/R DO_ATMOSPHERIC_PHYS
(PID.TID 0000.0001) DEBUG_MSG: LEAVING S/R DO_ATMOSPHERIC_PHYS
(PID.TID 0000.0001) DEBUG_MSG: CALLING S/R DO_OCEANIC_PHYS
(PID.TID 0000.0001) DEBUG_MSG: ENTERED S/R DO_OCEANIC_PHYS
(PID.TID 0000.0001) DEBUG_MSG: CALLING S/R EXTERNAL_FORCING_SURF
(PID.TID 0000.0001) DEBUG_MSG: CALLING S/R FIND_RHO_2D (xNr)
(PID.TID 0000.0001) DEBUG_MSG:                  ENTERING UPWARD K LOOP (bi=   1, bj=   1)
(PID.TID 0000.0001) DEBUG_MSG: CALLING S/R GRAD_SIGMA
(PID.TID 0000.0001) DEBUG_MSG: CALLING S/R CALC_IVDC
(PID.TID 0000.0001) DEBUG_MSG: CALLING S/R GRAD_SIGMA
(PID.TID 0000.0001) DEBUG_MSG: CALLING S/R CALC_IVDC
(PID.TID 0000.0001) DEBUG_MSG: CALLING S/R GRAD_SIGMA
(PID.TID 0000.0001) DEBUG_MSG: CALLING S/R CALC_IVDC
(PID.TID 0000.0001) DEBUG_MSG: CALLING S/R GRAD_SIGMA
(PID.TID 0000.0001) DEBUG_MSG: CALLING S/R CALC_IVDC
(PID.TID 0000.0001) DEBUG_MSG: CALLING S/R GRAD_SIGMA
(PID.TID 0000.0001) DEBUG_MSG: CALLING S/R CALC_IVDC
(PID.TID 0000.0001) DEBUG_MSG: CALLING S/R GRAD_SIGMA
(PID.TID 0000.0001) DEBUG_MSG: CALLING S/R CALC_IVDC
(PID.TID 0000.0001) DEBUG_MSG: CALLING S/R GRAD_SIGMA
(PID.TID 0000.0001) DEBUG_MSG: CALLING S/R CALC_IVDC
(PID.TID 0000.0001) DEBUG_MSG: CALLING S/R GRAD_SIGMA
(PID.TID 0000.0001) DEBUG_MSG: CALLING S/R CALC_IVDC
(PID.TID 0000.0001) DEBUG_MSG: CALLING S/R GRAD_SIGMA
(PID.TID 0000.0001) DEBUG_MSG: CALLING S/R CALC_IVDC
(PID.TID 0000.0001) DEBUG_MSG: CALLING S/R GRAD_SIGMA
(PID.TID 0000.0001) DEBUG_MSG: CALLING S/R CALC_IVDC
(PID.TID 0000.0001) DEBUG_MSG: CALLING S/R GRAD_SIGMA
(PID.TID 0000.0001) DEBUG_MSG: CALLING S/R CALC_IVDC
(PID.TID 0000.0001) DEBUG_MSG: CALLING S/R GRAD_SIGMA
(PID.TID 0000.0001) DEBUG_MSG: CALLING S/R CALC_IVDC
(PID.TID 0000.0001) DEBUG_MSG: CALLING S/R GRAD_SIGMA
(PID.TID 0000.0001) DEBUG_MSG: CALLING S/R CALC_IVDC
(PID.TID 0000.0001) DEBUG_MSG: CALLING S/R GRAD_SIGMA
(PID.TID 0000.0001) DEBUG_MSG: CALLING S/R CALC_IVDC
(PID.TID 0000.0001) DEBUG_MSG: CALLING S/R GRAD_SIGMA
(PID.TID 0000.0001) DEBUG_MSG: CALLING S/R CALC_IVDC
(PID.TID 0000.0001) DEBUG_MSG: CALLING S/R GRAD_SIGMA
(PID.TID 0000.0001) DEBUG_MSG: CALLING S/R GMREDI_CALC_TENSOR
(PID.TID 0000.0001) DEBUG_MSG: LEAVING S/R DO_OCEANIC_PHYS
(PID.TID 0000.0001) DEBUG_MSG: CALLING S/R DYNAMICS
(PID.TID 0000.0001) DEBUG_MSG: ENTERED S/R DYNAMICS
DEBUG_STATS_RL:                EtaN (DYNAMICS)  min= -7.50009084442047E-01
DEBUG_STATS_RL:                EtaN (DYNAMICS)  max=  1.30834843894134E+00
DEBUG_STATS_RL:                EtaN (DYNAMICS) mean=  4.80294616530929E-02
DEBUG_STATS_RL:                EtaN (DYNAMICS) S.D.=  7.09567240031625E-02
DEBUG_STATS_RL:                Uvel (DYNAMICS)  min= -4.93281571102653E-01
DEBUG_STATS_RL:                Uvel (DYNAMICS)  max=  2.50962602050198E-01
DEBUG_STATS_RL:                Uvel (DYNAMICS) mean= -9.19238185026031E-04
DEBUG_STATS_RL:                Uvel (DYNAMICS) S.D.=  2.02412732089015E-02
DEBUG_STATS_RL:                Vvel (DYNAMICS)  min= -4.14115033356933E-01
DEBUG_STATS_RL:                Vvel (DYNAMICS)  max=  3.87425243823131E-01
DEBUG_STATS_RL:                Vvel (DYNAMICS) mean= -4.72730219065468E-04
DEBUG_STATS_RL:                Vvel (DYNAMICS) S.D.=  2.26276377525390E-02
DEBUG_STATS_RL:                Wvel (DYNAMICS)  min= -8.97990116461553E-05
DEBUG_STATS_RL:                Wvel (DYNAMICS)  max=  1.21900037936297E-04
DEBUG_STATS_RL:                Wvel (DYNAMICS) mean= -2.40282240775217E-07
DEBUG_STATS_RL:                Wvel (DYNAMICS) S.D.=  6.10677177217790E-06
DEBUG_STATS_RL:               Theta (DYNAMICS)  min=  1.60651778847638E+01
DEBUG_STATS_RL:               Theta (DYNAMICS)  max=  2.41404661938270E+01
DEBUG_STATS_RL:               Theta (DYNAMICS) mean=  2.00055676022102E+01
DEBUG_STATS_RL:               Theta (DYNAMICS) S.D.=  1.05637439470600E-01
DEBUG_STATS_RL:                Salt (DYNAMICS)  min=  2.28462214938928E+01
DEBUG_STATS_RL:                Salt (DYNAMICS)  max=  3.51509302653650E+01
DEBUG_STATS_RL:                Salt (DYNAMICS) mean=  3.49965456643729E+01
DEBUG_STATS_RL:                Salt (DYNAMICS) S.D.=  1.40264043787956E-01
DEBUG_STATS_RL:                  Gu (DYNAMICS)  min= -4.88782107917494E-01
DEBUG_STATS_RL:                  Gu (DYNAMICS)  max=  2.49657823277991E-01
DEBUG_STATS_RL:                  Gu (DYNAMICS) mean= -9.27367105652042E-04
DEBUG_STATS_RL:                  Gu (DYNAMICS) S.D.=  2.02170719128126E-02
DEBUG_STATS_RL:                  Gv (DYNAMICS)  min= -4.13461255625802E-01
DEBUG_STATS_RL:                  Gv (DYNAMICS)  max=  3.82875578333817E-01
DEBUG_STATS_RL:                  Gv (DYNAMICS) mean= -4.42890717989331E-04
DEBUG_STATS_RL:                  Gv (DYNAMICS) S.D.=  2.25533511365612E-02
DEBUG_STATS_RL:               GuNm1 (DYNAMICS)  min= -2.60930008020482E-05
DEBUG_STATS_RL:               GuNm1 (DYNAMICS)  max=  2.13844902843350E-05
DEBUG_STATS_RL:               GuNm1 (DYNAMICS) mean= -9.96654392388839E-09
DEBUG_STATS_RL:               GuNm1 (DYNAMICS) S.D.=  1.17515895144956E-06
DEBUG_STATS_RL:               GvNm1 (DYNAMICS)  min= -1.84870513705950E-05
DEBUG_STATS_RL:               GvNm1 (DYNAMICS)  max=  3.64767557037877E-05
DEBUG_STATS_RL:               GvNm1 (DYNAMICS) mean=  3.09824005653383E-08
DEBUG_STATS_RL:               GvNm1 (DYNAMICS) S.D.=  1.07242910865686E-06
DEBUG_STATS_RL:               GtNm1 (DYNAMICS)  min= -3.10958148706315E-06
DEBUG_STATS_RL:               GtNm1 (DYNAMICS)  max=  3.83451473794986E-06
DEBUG_STATS_RL:               GtNm1 (DYNAMICS) mean=  1.03029333305057E-09
DEBUG_STATS_RL:               GtNm1 (DYNAMICS) S.D.=  6.07348048246029E-08
DEBUG_STATS_RL:               GsNm1 (DYNAMICS)  min= -1.34307342660012E-05
DEBUG_STATS_RL:               GsNm1 (DYNAMICS)  max=  2.58481146277868E-06
DEBUG_STATS_RL:               GsNm1 (DYNAMICS) mean= -3.80333018786950E-09
DEBUG_STATS_RL:               GsNm1 (DYNAMICS) S.D.=  1.48454899975018E-07
(PID.TID 0000.0001) DEBUG_MSG: LEAVING S/R DYNAMICS
DEBUG_STATS_RL:    cg2d_b (SOLVE_FOR_PRESSURE)  min= -1.57765199101632E+05
DEBUG_STATS_RL:    cg2d_b (SOLVE_FOR_PRESSURE)  max=  6.20952504349098E+04
DEBUG_STATS_RL:    cg2d_b (SOLVE_FOR_PRESSURE) mean= -4.89235882068576E+03
DEBUG_STATS_RL:    cg2d_b (SOLVE_FOR_PRESSURE) S.D.=  7.02576431406113E+03
 cg2d: Sum(rhs),rhsMax =  -1.37065880882265E+02  3.02223915800880E+01
(PID.TID 0000.0001)  cg2d: iter=     1 ; resid.=  2.92934561650717E-02
(PID.TID 0000.0001)  cg2d: iter=     2 ; resid.=  4.95935218484056E-03
(PID.TID 0000.0001)  cg2d: iter=     3 ; resid.=  1.58737491394183E-03
(PID.TID 0000.0001)  cg2d: iter=     4 ; resid.=  4.37686636854577E-04
(PID.TID 0000.0001)  cg2d: iter=     5 ; resid.=  9.65375095093538E-05
(PID.TID 0000.0001)  cg2d: iter=     6 ; resid.=  1.74020068705090E-05
(PID.TID 0000.0001)  cg2d: iter=     7 ; resid.=  3.67236198286590E-06
(PID.TID 0000.0001)  cg2d: iter=     8 ; resid.=  1.05857713233629E-06
(PID.TID 0000.0001)  cg2d: iter=     9 ; resid.=  3.49274939517055E-07
(PID.TID 0000.0001)  cg2d: iter=    10 ; resid.=  9.64894484754379E-08
DEBUG_STATS_RL:    cg2d_x (SOLVE_FOR_PRESSURE)  min= -7.13019801716531E+00
DEBUG_STATS_RL:    cg2d_x (SOLVE_FOR_PRESSURE)  max=  1.27114681528352E+01
DEBUG_STATS_RL:    cg2d_x (SOLVE_FOR_PRESSURE) mean=  4.74155249556087E-01
DEBUG_STATS_RL:    cg2d_x (SOLVE_FOR_PRESSURE) S.D.=  6.92299390084270E-01
(PID.TID 0000.0001)      cg2d_init_res =   2.02331462413148E-01
(PID.TID 0000.0001)      cg2d_iters(min,last) =      -1      10
(PID.TID 0000.0001)      cg2d_last_res =   9.64894484754379E-08
(PID.TID 0000.0001) DEBUG_MSG: CALLING S/R UPDATE_ETAH
(PID.TID 0000.0001) DEBUG_MSG: ENTERED S/R CALC_R_STAR
(PID.TID 0000.0001) DEBUG_MSG: LEAVING S/R CALC_R_STAR
(PID.TID 0000.0001) DEBUG_MSG: CALLING S/R DO_STAGGER_FIELDS_EXCH.
(PID.TID 0000.0001) DEBUG_MSG: CALLING S/R THERMODYNAMICS
(PID.TID 0000.0001) DEBUG_MSG: ENTERED S/R THERMODYNAMICS
(PID.TID 0000.0001) DEBUG_MSG: CALLING S/R TEMP_INTEGRATE
(PID.TID 0000.0001) DEBUG_MSG: CALLING S/R SALT_INTEGRATE
DEBUG_STATS_RL:          Uvel (THERMODYNAMICS)  min= -4.74069379958784E-01
DEBUG_STATS_RL:          Uvel (THERMODYNAMICS)  max=  2.49181919083034E-01
DEBUG_STATS_RL:          Uvel (THERMODYNAMICS) mean= -9.35525230381796E-04
DEBUG_STATS_RL:          Uvel (THERMODYNAMICS) S.D.=  2.02008172181476E-02
DEBUG_STATS_RL:          Vvel (THERMODYNAMICS)  min= -4.12852584098871E-01
DEBUG_STATS_RL:          Vvel (THERMODYNAMICS)  max=  3.82242560014686E-01
DEBUG_STATS_RL:          Vvel (THERMODYNAMICS) mean= -4.40692936946763E-04
DEBUG_STATS_RL:          Vvel (THERMODYNAMICS) S.D.=  2.25747613393493E-02
DEBUG_STATS_RL:          Wvel (THERMODYNAMICS)  min= -9.12385828938770E-05
DEBUG_STATS_RL:          Wvel (THERMODYNAMICS)  max=  1.18992005623876E-04
DEBUG_STATS_RL:          Wvel (THERMODYNAMICS) mean= -2.37943408562227E-07
DEBUG_STATS_RL:          Wvel (THERMODYNAMICS) S.D.=  6.08295563386658E-06
DEBUG_STATS_RL:         Theta (THERMODYNAMICS)  min=  1.60670652837547E+01
DEBUG_STATS_RL:         Theta (THERMODYNAMICS)  max=  2.41625861625564E+01
DEBUG_STATS_RL:         Theta (THERMODYNAMICS) mean=  2.00056543702953E+01
DEBUG_STATS_RL:         Theta (THERMODYNAMICS) S.D.=  1.06147478073011E-01
DEBUG_STATS_RL:          Salt (THERMODYNAMICS)  min=  2.28116455737476E+01
DEBUG_STATS_RL:          Salt (THERMODYNAMICS)  max=  3.51509540947738E+01
DEBUG_STATS_RL:          Salt (THERMODYNAMICS) mean=  3.49965294236770E+01
DEBUG_STATS_RL:          Salt (THERMODYNAMICS) S.D.=  1.40696307457988E-01
DEBUG_STATS_RL:         GtNm1 (THERMODYNAMICS)  min= -3.11507972270090E-06
DEBUG_STATS_RL:         GtNm1 (THERMODYNAMICS)  max=  3.78677730363089E-06
DEBUG_STATS_RL:         GtNm1 (THERMODYNAMICS) mean=  9.74684444357002E-10
DEBUG_STATS_RL:         GtNm1 (THERMODYNAMICS) S.D.=  5.88124609632434E-08
DEBUG_STATS_RL:         GsNm1 (THERMODYNAMICS)  min= -1.33402693245600E-05
DEBUG_STATS_RL:         GsNm1 (THERMODYNAMICS)  max=  2.59082680701664E-06
DEBUG_STATS_RL:         GsNm1 (THERMODYNAMICS) mean= -3.76773152807805E-09
DEBUG_STATS_RL:         GsNm1 (THERMODYNAMICS) S.D.=  1.47323085550480E-07
(PID.TID 0000.0001) DEBUG_MSG: LEAVING S/R THERMODYNAMICS
(PID.TID 0000.0001) // =======================================================
(PID.TID 0000.0001) // Begin MONITOR dynamic field statistics
(PID.TID 0000.0001) // =======================================================
(PID.TID 0000.0001) %MON time_tsnumber                =                    95
(PID.TID 0000.0001) %MON time_secondsf                =   8.5500000000000E+04
(PID.TID 0000.0001) %MON dynstat_eta_max              =   1.2957663771039E+00
(PID.TID 0000.0001) %MON dynstat_eta_min              =  -7.2682956538967E-01
(PID.TID 0000.0001) %MON dynstat_eta_mean             =   4.8134821207729E-02
(PID.TID 0000.0001) %MON dynstat_eta_sd               =   6.7041088880000E-02
(PID.TID 0000.0001) %MON dynstat_eta_del2             =   1.0424323550031E-03
(PID.TID 0000.0001) %MON dynstat_uvel_max             =   2.4918191908303E-01
(PID.TID 0000.0001) %MON dynstat_uvel_min             =  -4.7406937995878E-01
(PID.TID 0000.0001) %MON dynstat_uvel_mean            =  -1.7137411514844E-04
(PID.TID 0000.0001) %MON dynstat_uvel_sd              =   6.6456826432547E-03
(PID.TID 0000.0001) %MON dynstat_uvel_del2            =   9.1851940674817E-05
(PID.TID 0000.0001) %MON dynstat_vvel_max             =   3.8224256001469E-01
(PID.TID 0000.0001) %MON dynstat_vvel_min             =  -4.1285258409887E-01
(PID.TID 0000.0001) %MON dynstat_vvel_mean            =   4.0208562794473E-04
(PID.TID 0000.0001) %MON dynstat_vvel_sd              =   7.4002709642066E-03
(PID.TID 0000.0001) %MON dynstat_vvel_del2            =   9.1652993127007E-05
(PID.TID 0000.0001) %MON dynstat_wvel_max             =   1.1899200562388E-04
(PID.TID 0000.0001) %MON dynstat_wvel_min             =  -9.1238582893877E-05
(PID.TID 0000.0001) %MON dynstat_wvel_mean            =  -9.5842210096870E-08
(PID.TID 0000.0001) %MON dynstat_wvel_sd              =   5.8489145137995E-06
(PID.TID 0000.0001) %MON dynstat_wvel_del2            =   6.4043263026174E-08
(PID.TID 0000.0001) %MON dynstat_theta_max            =   2.4162586162556E+01
(PID.TID 0000.0001) %MON dynstat_theta_min            =   1.6067065283755E+01
(PID.TID 0000.0001) %MON dynstat_theta_mean           =   1.9997937950290E+01
(PID.TID 0000.0001) %MON dynstat_theta_sd             =   3.4878238889730E-02
(PID.TID 0000.0001) %MON dynstat_theta_del2           =   5.8821101621817E-04
(PID.TID 0000.0001) %MON dynstat_salt_max             =   3.5150954094774E+01
(PID.TID 0000.0001) %MON dynstat_salt_min             =   2.2811645573748E+01
(PID.TID 0000.0001) %MON dynstat_salt_mean            =   3.4999547650548E+01
(PID.TID 0000.0001) %MON dynstat_salt_sd              =   4.3418220095109E-02
(PID.TID 0000.0001) %MON dynstat_salt_del2            =   1.4797241787563E-03
(PID.TID 0000.0001) %MON dynstat_sst_max              =   2.4162586162556E+01
(PID.TID 0000.0001) %MON dynstat_sst_min              =   1.6067065283755E+01
(PID.TID 0000.0001) %MON dynstat_sst_mean             =   2.0178805981170E+01
(PID.TID 0000.0001) %MON dynstat_sst_sd               =   3.2740443792101E-01
(PID.TID 0000.0001) %MON dynstat_sst_del2             =   7.0306363158959E-03
(PID.TID 0000.0001) %MON dynstat_sss_max              =   3.5150954094774E+01
(PID.TID 0000.0001) %MON dynstat_sss_min              =   2.2811645573748E+01
(PID.TID 0000.0001) %MON dynstat_sss_mean             =   3.4958752131861E+01
(PID.TID 0000.0001) %MON dynstat_sss_sd               =   5.2339730475595E-01
(PID.TID 0000.0001) %MON dynstat_sss_del2             =   2.0023145605075E-02
(PID.TID 0000.0001) %MON forcing_qnet_max             =   3.9476369264516E+03
(PID.TID 0000.0001) %MON forcing_qnet_min             =  -2.1723686523438E+03
(PID.TID 0000.0001) %MON forcing_qnet_mean            =  -1.9484816877671E+01
(PID.TID 0000.0001) %MON forcing_qnet_sd              =   4.3626393597581E+02
(PID.TID 0000.0001) %MON forcing_qnet_del2            =   4.9069275846034E+00
(PID.TID 0000.0001) %MON forcing_qsw_max              =   0.0000000000000E+00
(PID.TID 0000.0001) %MON forcing_qsw_min              =  -1.0318513437603E+02
(PID.TID 0000.0001) %MON forcing_qsw_mean             =  -2.2397082132276E+01
(PID.TID 0000.0001) %MON forcing_qsw_sd               =   3.0607751247077E+01
(PID.TID 0000.0001) %MON forcing_qsw_del2             =   2.4524636907615E-01
(PID.TID 0000.0001) %MON forcing_empmr_max            =   4.1923928074539E-03
(PID.TID 0000.0001) %MON forcing_empmr_min            =  -6.0234662145376E-02
(PID.TID 0000.0001) %MON forcing_empmr_mean           =  -3.2631506321444E-04
(PID.TID 0000.0001) %MON forcing_empmr_sd             =   2.7043082386046E-03
(PID.TID 0000.0001) %MON forcing_empmr_del2           =   1.0488434135662E-04
(PID.TID 0000.0001) %MON forcing_fu_max               =   4.7097901486074E-01
(PID.TID 0000.0001) %MON forcing_fu_min               =  -5.8309916873504E-01
(PID.TID 0000.0001) %MON forcing_fu_mean              =  -2.5798846604869E-03
(PID.TID 0000.0001) %MON forcing_fu_sd                =   7.7709876795136E-02
(PID.TID 0000.0001) %MON forcing_fu_del2              =   6.6044379065661E-04
(PID.TID 0000.0001) %MON forcing_fv_max               =   3.2287698048279E-01
(PID.TID 0000.0001) %MON forcing_fv_min               =  -3.3092090602668E-01
(PID.TID 0000.0001) %MON forcing_fv_mean              =  -6.9239085188528E-03
(PID.TID 0000.0001) %MON forcing_fv_sd                =   7.1060697836418E-02
(PID.TID 0000.0001) %MON forcing_fv_del2              =   5.5085289066034E-04
(PID.TID 0000.0001) %MON trAdv_CFL_u_max              =   1.8030864214038E-03
(PID.TID 0000.0001) %MON trAdv_CFL_v_max              =   1.4268032145482E-03
(PID.TID 0000.0001) %MON trAdv_CFL_w_max              =   2.0432295725336E-03
(PID.TID 0000.0001) %MON advcfl_uvel_max              =   1.3640249842208E-03
(PID.TID 0000.0001) %MON advcfl_vvel_max              =   1.3716160438109E-03
(PID.TID 0000.0001) %MON advcfl_wvel_max              =   4.1902373666349E-03
(PID.TID 0000.0001) %MON advcfl_W_hf_max              =   2.2224055755002E-03
(PID.TID 0000.0001) %MON pe_b_mean                    =   9.0740169945772E-06
(PID.TID 0000.0001) %MON ke_max                       =   1.1239409938615E-01
(PID.TID 0000.0001) %MON ke_mean                      =   4.5787853218371E-05
(PID.TID 0000.0001) %MON ke_vol                       =   1.3398198577321E+18
(PID.TID 0000.0001) %MON vort_r_min                   =  -2.5436509620966E-06
(PID.TID 0000.0001) %MON vort_r_max                   =   2.5606176532423E-06
(PID.TID 0000.0001) %MON vort_a_mean                  =  -2.0549865324846E-05
(PID.TID 0000.0001) %MON vort_a_sd                    =   7.5259404959886E-05
(PID.TID 0000.0001) %MON vort_p_mean                  =  -2.4783198300144E-05
(PID.TID 0000.0001) %MON vort_p_sd                    =   1.2810501179581E-04
(PID.TID 0000.0001) %MON surfExpan_theta_mean         =  -3.6065679930308E-07
(PID.TID 0000.0001) %MON surfExpan_salt_mean          =   1.2957487912205E-06
(PID.TID 0000.0001) // =======================================================
(PID.TID 0000.0001) // End MONITOR dynamic field statistics
(PID.TID 0000.0001) // =======================================================
 Computing Diagnostic #     81  oceTAUX      Counter:       1   Parms: UU      U1      
           Vector  Mate for  oceTAUX      Diagnostic #     82  oceTAUY  exists 
(PID.TID 0000.0001)  MDS_WRITE_FIELD: it,rec,kS,kL,kH=      94    -1  32   1   1 file=oceTAUX.0000000094
 Computing Diagnostic #     82  oceTAUY      Counter:       1   Parms: VV      U1      
           Vector  Mate for  oceTAUY      Diagnostic #     81  oceTAUX  exists 
(PID.TID 0000.0001)  MDS_WRITE_FIELD: it,rec,kS,kL,kH=      94    -1  32   1   1 file=oceTAUY.0000000094
 Computing Diagnostic #     85  oceFWflx     Counter:       1   Parms: SM      U1      
(PID.TID 0000.0001)  MDS_WRITE_FIELD: it,rec,kS,kL,kH=      94    -1  32   1   1 file=oceFWflx.0000000094
 Computing Diagnostic #     86  oceSflux     Counter:       1   Parms: SM      U1      
(PID.TID 0000.0001)  MDS_WRITE_FIELD: it,rec,kS,kL,kH=      94    -1  32   1   1 file=oceSflux.0000000094
 Computing Diagnostic #     87  oceQnet      Counter:       1   Parms: SM      U1      
(PID.TID 0000.0001)  MDS_WRITE_FIELD: it,rec,kS,kL,kH=      94    -1  32   1   1 file=oceQnet.0000000094
 Computing Diagnostic #     88  oceQsw       Counter:       1   Parms: SM      U1      
(PID.TID 0000.0001)  MDS_WRITE_FIELD: it,rec,kS,kL,kH=      94    -1  32   1   1 file=oceQsw.0000000094
 Computing Diagnostic #     27  SALT         Counter:       1   Parms: SMR     MR      
(PID.TID 0000.0001)  MDS_WRITE_FIELD: it,rec,kS,kL,kH=      94    -1  32   1   1 file=SSS.0000000094
 Computing Diagnostic #     26  THETA        Counter:       1   Parms: SMR     MR      
(PID.TID 0000.0001)  MDS_WRITE_FIELD: it,rec,kS,kL,kH=      94    -1  32   1   1 file=SST.0000000094
 Computing Diagnostic #     45  UVELMASS     Counter:       1   Parms: UUr     MR      
           Vector  Mate for  UVELMASS     Diagnostic #     46  VVELMASS exists 
(PID.TID 0000.0001)  MDS_WRITE_FIELD: it,rec,kS,kL,kH=      94    -1  32   1   1 file=UVEL1.0000000094
 Computing Diagnostic #     46  VVELMASS     Counter:       1   Parms: VVr     MR      
           Vector  Mate for  VVELMASS     Diagnostic #     45  UVELMASS exists 
(PID.TID 0000.0001)  MDS_WRITE_FIELD: it,rec,kS,kL,kH=      94    -1  32   1   1 file=VVEL1.0000000094
 Computing Diagnostic #     83  atmPload     Counter:       1   Parms: SM      U1      
(PID.TID 0000.0001)  MDS_WRITE_FIELD: it,rec,kS,kL,kH=      94    -1  32   1   1 file=atmPload.0000000094
(PID.TID 0000.0001)  write diagnostics summary to file: diagnostics_status.0000000095.txt
(PID.TID 0000.0001) DEBUG_MSG: LEAVING S/R FORWARD_STEP
(PID.TID 0000.0001) DEBUG_MSG: ENTERED S/R FORWARD_STEP
(PID.TID 0000.0001) DEBUG_MSG: CALLING S/R LOAD_FIELDS_DRIVER
(PID.TID 0000.0001) DEBUG_MSG: ENTERED S/R LOAD_FIELDS_DRIVER
(PID.TID 0000.0001) DEBUG_MSG: CALLING S/R EXTERNAL_FIELDS_LOAD
(PID.TID 0000.0001) DEBUG_MSG: LEAVING S/R LOAD_FIELDS_DRIVER
(PID.TID 0000.0001) DEBUG_MSG: CALLING S/R DO_ATMOSPHERIC_PHYS
(PID.TID 0000.0001) DEBUG_MSG: ENTERED S/R DO_ATMOSPHERIC_PHYS
(PID.TID 0000.0001) DEBUG_MSG: LEAVING S/R DO_ATMOSPHERIC_PHYS
(PID.TID 0000.0001) DEBUG_MSG: CALLING S/R DO_OCEANIC_PHYS
(PID.TID 0000.0001) DEBUG_MSG: ENTERED S/R DO_OCEANIC_PHYS
(PID.TID 0000.0001) DEBUG_MSG: CALLING S/R EXTERNAL_FORCING_SURF
(PID.TID 0000.0001) DEBUG_MSG: CALLING S/R FIND_RHO_2D (xNr)
(PID.TID 0000.0001) DEBUG_MSG:                  ENTERING UPWARD K LOOP (bi=   1, bj=   1)
(PID.TID 0000.0001) DEBUG_MSG: CALLING S/R GRAD_SIGMA
(PID.TID 0000.0001) DEBUG_MSG: CALLING S/R CALC_IVDC
(PID.TID 0000.0001) DEBUG_MSG: CALLING S/R GRAD_SIGMA
(PID.TID 0000.0001) DEBUG_MSG: CALLING S/R CALC_IVDC
(PID.TID 0000.0001) DEBUG_MSG: CALLING S/R GRAD_SIGMA
(PID.TID 0000.0001) DEBUG_MSG: CALLING S/R CALC_IVDC
(PID.TID 0000.0001) DEBUG_MSG: CALLING S/R GRAD_SIGMA
(PID.TID 0000.0001) DEBUG_MSG: CALLING S/R CALC_IVDC
(PID.TID 0000.0001) DEBUG_MSG: CALLING S/R GRAD_SIGMA
(PID.TID 0000.0001) DEBUG_MSG: CALLING S/R CALC_IVDC
(PID.TID 0000.0001) DEBUG_MSG: CALLING S/R GRAD_SIGMA
(PID.TID 0000.0001) DEBUG_MSG: CALLING S/R CALC_IVDC
(PID.TID 0000.0001) DEBUG_MSG: CALLING S/R GRAD_SIGMA
(PID.TID 0000.0001) DEBUG_MSG: CALLING S/R CALC_IVDC
(PID.TID 0000.0001) DEBUG_MSG: CALLING S/R GRAD_SIGMA
(PID.TID 0000.0001) DEBUG_MSG: CALLING S/R CALC_IVDC
(PID.TID 0000.0001) DEBUG_MSG: CALLING S/R GRAD_SIGMA
(PID.TID 0000.0001) DEBUG_MSG: CALLING S/R CALC_IVDC
(PID.TID 0000.0001) DEBUG_MSG: CALLING S/R GRAD_SIGMA
(PID.TID 0000.0001) DEBUG_MSG: CALLING S/R CALC_IVDC
(PID.TID 0000.0001) DEBUG_MSG: CALLING S/R GRAD_SIGMA
(PID.TID 0000.0001) DEBUG_MSG: CALLING S/R CALC_IVDC
(PID.TID 0000.0001) DEBUG_MSG: CALLING S/R GRAD_SIGMA
(PID.TID 0000.0001) DEBUG_MSG: CALLING S/R CALC_IVDC
(PID.TID 0000.0001) DEBUG_MSG: CALLING S/R GRAD_SIGMA
(PID.TID 0000.0001) DEBUG_MSG: CALLING S/R CALC_IVDC
(PID.TID 0000.0001) DEBUG_MSG: CALLING S/R GRAD_SIGMA
(PID.TID 0000.0001) DEBUG_MSG: CALLING S/R CALC_IVDC
(PID.TID 0000.0001) DEBUG_MSG: CALLING S/R GRAD_SIGMA
(PID.TID 0000.0001) DEBUG_MSG: CALLING S/R CALC_IVDC
(PID.TID 0000.0001) DEBUG_MSG: CALLING S/R GRAD_SIGMA
(PID.TID 0000.0001) DEBUG_MSG: CALLING S/R GMREDI_CALC_TENSOR
(PID.TID 0000.0001) DEBUG_MSG: LEAVING S/R DO_OCEANIC_PHYS
(PID.TID 0000.0001) DEBUG_MSG: CALLING S/R DYNAMICS
(PID.TID 0000.0001) DEBUG_MSG: ENTERED S/R DYNAMICS
DEBUG_STATS_RL:                EtaN (DYNAMICS)  min= -7.26829565389665E-01
DEBUG_STATS_RL:                EtaN (DYNAMICS)  max=  1.29576637710393E+00
DEBUG_STATS_RL:                EtaN (DYNAMICS) mean=  4.83338683568999E-02
DEBUG_STATS_RL:                EtaN (DYNAMICS) S.D.=  7.05707841061610E-02
DEBUG_STATS_RL:                Uvel (DYNAMICS)  min= -4.74069379958784E-01
DEBUG_STATS_RL:                Uvel (DYNAMICS)  max=  2.49181919083034E-01
DEBUG_STATS_RL:                Uvel (DYNAMICS) mean= -9.35525230381796E-04
DEBUG_STATS_RL:                Uvel (DYNAMICS) S.D.=  2.02008172181476E-02
DEBUG_STATS_RL:                Vvel (DYNAMICS)  min= -4.12852584098871E-01
DEBUG_STATS_RL:                Vvel (DYNAMICS)  max=  3.82242560014686E-01
DEBUG_STATS_RL:                Vvel (DYNAMICS) mean= -4.40692936946763E-04
DEBUG_STATS_RL:                Vvel (DYNAMICS) S.D.=  2.25747613393493E-02
DEBUG_STATS_RL:                Wvel (DYNAMICS)  min= -9.12385828938770E-05
DEBUG_STATS_RL:                Wvel (DYNAMICS)  max=  1.18992005623876E-04
DEBUG_STATS_RL:                Wvel (DYNAMICS) mean= -2.37943408562227E-07
DEBUG_STATS_RL:                Wvel (DYNAMICS) S.D.=  6.08295563386658E-06
DEBUG_STATS_RL:               Theta (DYNAMICS)  min=  1.60670652837547E+01
DEBUG_STATS_RL:               Theta (DYNAMICS)  max=  2.41625861625564E+01
DEBUG_STATS_RL:               Theta (DYNAMICS) mean=  2.00056543702953E+01
DEBUG_STATS_RL:               Theta (DYNAMICS) S.D.=  1.06147478073011E-01
DEBUG_STATS_RL:                Salt (DYNAMICS)  min=  2.28116455737476E+01
DEBUG_STATS_RL:                Salt (DYNAMICS)  max=  3.51509540947738E+01
DEBUG_STATS_RL:                Salt (DYNAMICS) mean=  3.49965294236770E+01
DEBUG_STATS_RL:                Salt (DYNAMICS) S.D.=  1.40696307457988E-01
DEBUG_STATS_RL:                  Gu (DYNAMICS)  min= -4.71599272270988E-01
DEBUG_STATS_RL:                  Gu (DYNAMICS)  max=  2.46567828741169E-01
DEBUG_STATS_RL:                  Gu (DYNAMICS) mean= -9.42578624284509E-04
DEBUG_STATS_RL:                  Gu (DYNAMICS) S.D.=  2.01801961117393E-02
DEBUG_STATS_RL:                  Gv (DYNAMICS)  min= -4.10275744248205E-01
DEBUG_STATS_RL:                  Gv (DYNAMICS)  max=  3.75800546409761E-01
DEBUG_STATS_RL:                  Gv (DYNAMICS) mean= -4.10262129550780E-04
DEBUG_STATS_RL:                  Gv (DYNAMICS) S.D.=  2.24701977303399E-02
DEBUG_STATS_RL:               GuNm1 (DYNAMICS)  min= -2.54017720024060E-05
DEBUG_STATS_RL:               GuNm1 (DYNAMICS)  max=  2.14767538702210E-05
DEBUG_STATS_RL:               GuNm1 (DYNAMICS) mean= -8.81257679032590E-09
DEBUG_STATS_RL:               GuNm1 (DYNAMICS) S.D.=  1.16275555120475E-06
DEBUG_STATS_RL:               GvNm1 (DYNAMICS)  min= -1.98200918819563E-05
DEBUG_STATS_RL:               GvNm1 (DYNAMICS)  max=  3.61477224947112E-05
DEBUG_STATS_RL:               GvNm1 (DYNAMICS) mean=  3.17605279631493E-08
DEBUG_STATS_RL:               GvNm1 (DYNAMICS) S.D.=  1.07690978157480E-06
DEBUG_STATS_RL:               GtNm1 (DYNAMICS)  min= -3.11507972270090E-06
DEBUG_STATS_RL:               GtNm1 (DYNAMICS)  max=  3.78677730363089E-06
DEBUG_STATS_RL:               GtNm1 (DYNAMICS) mean=  9.74684444357002E-10
DEBUG_STATS_RL:               GtNm1 (DYNAMICS) S.D.=  5.88124609632434E-08
DEBUG_STATS_RL:               GsNm1 (DYNAMICS)  min= -1.33402693245600E-05
DEBUG_STATS_RL:               GsNm1 (DYNAMICS)  max=  2.59082680701664E-06
DEBUG_STATS_RL:               GsNm1 (DYNAMICS) mean= -3.76773152807805E-09
DEBUG_STATS_RL:               GsNm1 (DYNAMICS) S.D.=  1.47323085550480E-07
(PID.TID 0000.0001) DEBUG_MSG: LEAVING S/R DYNAMICS
DEBUG_STATS_RL:    cg2d_b (SOLVE_FOR_PRESSURE)  min= -1.55847150328093E+05
DEBUG_STATS_RL:    cg2d_b (SOLVE_FOR_PRESSURE)  max=  5.86611109387899E+04
DEBUG_STATS_RL:    cg2d_b (SOLVE_FOR_PRESSURE) mean= -4.92107025881942E+03
DEBUG_STATS_RL:    cg2d_b (SOLVE_FOR_PRESSURE) S.D.=  7.00215452080127E+03
 cg2d: Sum(rhs),rhsMax =  -1.39567072597676E+02  2.98549593362618E+01
(PID.TID 0000.0001)  cg2d: iter=     1 ; resid.=  3.02594355626864E-02
(PID.TID 0000.0001)  cg2d: iter=     2 ; resid.=  5.13961797671329E-03
(PID.TID 0000.0001)  cg2d: iter=     3 ; resid.=  1.65833548177564E-03
(PID.TID 0000.0001)  cg2d: iter=     4 ; resid.=  4.53493300450690E-04
(PID.TID 0000.0001)  cg2d: iter=     5 ; resid.=  9.84243340386024E-05
(PID.TID 0000.0001)  cg2d: iter=     6 ; resid.=  1.77692168949837E-05
(PID.TID 0000.0001)  cg2d: iter=     7 ; resid.=  3.69599406495333E-06
(PID.TID 0000.0001)  cg2d: iter=     8 ; resid.=  1.00429554633167E-06
(PID.TID 0000.0001)  cg2d: iter=     9 ; resid.=  3.24629736100926E-07
(PID.TID 0000.0001)  cg2d: iter=    10 ; resid.=  9.62199097268806E-08
DEBUG_STATS_RL:    cg2d_x (SOLVE_FOR_PRESSURE)  min= -6.73239230366749E+00
DEBUG_STATS_RL:    cg2d_x (SOLVE_FOR_PRESSURE)  max=  1.25562531518184E+01
DEBUG_STATS_RL:    cg2d_x (SOLVE_FOR_PRESSURE) mean=  4.77180771240355E-01
DEBUG_STATS_RL:    cg2d_x (SOLVE_FOR_PRESSURE) S.D.=  6.87928059676721E-01
(PID.TID 0000.0001)      cg2d_init_res =   1.99950118717721E-01
(PID.TID 0000.0001)      cg2d_iters(min,last) =      -1      10
(PID.TID 0000.0001)      cg2d_last_res =   9.62199097268806E-08
(PID.TID 0000.0001) DEBUG_MSG: CALLING S/R UPDATE_ETAH
(PID.TID 0000.0001) DEBUG_MSG: ENTERED S/R CALC_R_STAR
(PID.TID 0000.0001) DEBUG_MSG: LEAVING S/R CALC_R_STAR
(PID.TID 0000.0001) DEBUG_MSG: CALLING S/R DO_STAGGER_FIELDS_EXCH.
(PID.TID 0000.0001) DEBUG_MSG: CALLING S/R THERMODYNAMICS
(PID.TID 0000.0001) DEBUG_MSG: ENTERED S/R THERMODYNAMICS
(PID.TID 0000.0001) DEBUG_MSG: CALLING S/R TEMP_INTEGRATE
(PID.TID 0000.0001) DEBUG_MSG: CALLING S/R SALT_INTEGRATE
DEBUG_STATS_RL:          Uvel (THERMODYNAMICS)  min= -4.78646711572204E-01
DEBUG_STATS_RL:          Uvel (THERMODYNAMICS)  max=  2.46087951988992E-01
DEBUG_STATS_RL:          Uvel (THERMODYNAMICS) mean= -9.49928275949069E-04
DEBUG_STATS_RL:          Uvel (THERMODYNAMICS) S.D.=  2.01638916406106E-02
DEBUG_STATS_RL:          Vvel (THERMODYNAMICS)  min= -4.09661191589264E-01
DEBUG_STATS_RL:          Vvel (THERMODYNAMICS)  max=  3.75108052074607E-01
DEBUG_STATS_RL:          Vvel (THERMODYNAMICS) mean= -4.07946107004926E-04
DEBUG_STATS_RL:          Vvel (THERMODYNAMICS) S.D.=  2.24957311538681E-02
DEBUG_STATS_RL:          Wvel (THERMODYNAMICS)  min= -9.24004267525401E-05
DEBUG_STATS_RL:          Wvel (THERMODYNAMICS)  max=  1.16131951150284E-04
DEBUG_STATS_RL:          Wvel (THERMODYNAMICS) mean= -2.35749978020673E-07
DEBUG_STATS_RL:          Wvel (THERMODYNAMICS) S.D.=  6.06056266292848E-06
DEBUG_STATS_RL:         Theta (THERMODYNAMICS)  min=  1.60687073062514E+01
DEBUG_STATS_RL:         Theta (THERMODYNAMICS)  max=  2.41844044786404E+01
DEBUG_STATS_RL:         Theta (THERMODYNAMICS) mean=  2.00057405467043E+01
DEBUG_STATS_RL:         Theta (THERMODYNAMICS) S.D.=  1.06659871241921E-01
DEBUG_STATS_RL:          Salt (THERMODYNAMICS)  min=  2.27777597414763E+01
DEBUG_STATS_RL:          Salt (THERMODYNAMICS)  max=  3.51509785786083E+01
DEBUG_STATS_RL:          Salt (THERMODYNAMICS) mean=  3.49965134449126E+01
DEBUG_STATS_RL:          Salt (THERMODYNAMICS) S.D.=  1.41120300342979E-01
DEBUG_STATS_RL:         GtNm1 (THERMODYNAMICS)  min= -3.11917974565542E-06
DEBUG_STATS_RL:         GtNm1 (THERMODYNAMICS)  max=  3.74111222650485E-06
DEBUG_STATS_RL:         GtNm1 (THERMODYNAMICS) mean=  9.19995816750486E-10
DEBUG_STATS_RL:         GtNm1 (THERMODYNAMICS) S.D.=  5.72457853314154E-08
DEBUG_STATS_RL:         GsNm1 (THERMODYNAMICS)  min= -1.32495613323944E-05
DEBUG_STATS_RL:         GsNm1 (THERMODYNAMICS)  max=  2.59554620798280E-06
DEBUG_STATS_RL:         GsNm1 (THERMODYNAMICS) mean= -3.73298961753536E-09
DEBUG_STATS_RL:         GsNm1 (THERMODYNAMICS) S.D.=  1.46252693305050E-07
(PID.TID 0000.0001) DEBUG_MSG: LEAVING S/R THERMODYNAMICS
(PID.TID 0000.0001) // =======================================================
(PID.TID 0000.0001) // Begin MONITOR dynamic field statistics
(PID.TID 0000.0001) // =======================================================
(PID.TID 0000.0001) %MON time_tsnumber                =                    96
(PID.TID 0000.0001) %MON time_secondsf                =   8.6400000000000E+04
(PID.TID 0000.0001) %MON dynstat_eta_max              =   1.2799442566185E+00
(PID.TID 0000.0001) %MON dynstat_eta_min              =  -6.8627852404506E-01
(PID.TID 0000.0001) %MON dynstat_eta_mean             =   4.8417306608297E-02
(PID.TID 0000.0001) %MON dynstat_eta_sd               =   6.6756452300884E-02
(PID.TID 0000.0001) %MON dynstat_eta_del2             =   1.0452548264198E-03
(PID.TID 0000.0001) %MON dynstat_uvel_max             =   2.4608795198899E-01
(PID.TID 0000.0001) %MON dynstat_uvel_min             =  -4.7864671157220E-01
(PID.TID 0000.0001) %MON dynstat_uvel_mean            =  -1.7189199178265E-04
(PID.TID 0000.0001) %MON dynstat_uvel_sd              =   6.6378928307559E-03
(PID.TID 0000.0001) %MON dynstat_uvel_del2            =   9.1571531831859E-05
(PID.TID 0000.0001) %MON dynstat_vvel_max             =   3.7510805207461E-01
(PID.TID 0000.0001) %MON dynstat_vvel_min             =  -4.0966119158926E-01
(PID.TID 0000.0001) %MON dynstat_vvel_mean            =   4.0737000334458E-04
(PID.TID 0000.0001) %MON dynstat_vvel_sd              =   7.3718575781845E-03
(PID.TID 0000.0001) %MON dynstat_vvel_del2            =   9.1385214472698E-05
(PID.TID 0000.0001) %MON dynstat_wvel_max             =   1.1613195115028E-04
(PID.TID 0000.0001) %MON dynstat_wvel_min             =  -9.2400426752540E-05
(PID.TID 0000.0001) %MON dynstat_wvel_mean            =  -9.7201735270725E-08
(PID.TID 0000.0001) %MON dynstat_wvel_sd              =   5.8288461789105E-06
(PID.TID 0000.0001) %MON dynstat_wvel_del2            =   6.3713357478567E-08
(PID.TID 0000.0001) %MON dynstat_theta_max            =   2.4184404478640E+01
(PID.TID 0000.0001) %MON dynstat_theta_min            =   1.6068707306251E+01
(PID.TID 0000.0001) %MON dynstat_theta_mean           =   1.9997939150535E+01
(PID.TID 0000.0001) %MON dynstat_theta_sd             =   3.5043336586403E-02
(PID.TID 0000.0001) %MON dynstat_theta_del2           =   5.9006312845487E-04
(PID.TID 0000.0001) %MON dynstat_salt_max             =   3.5150978578608E+01
(PID.TID 0000.0001) %MON dynstat_salt_min             =   2.2777759741476E+01
(PID.TID 0000.0001) %MON dynstat_salt_mean            =   3.4999545370968E+01
(PID.TID 0000.0001) %MON dynstat_salt_sd              =   4.3549774840483E-02
(PID.TID 0000.0001) %MON dynstat_salt_del2            =   1.4834930319522E-03
(PID.TID 0000.0001) %MON dynstat_sst_max              =   2.4184404478640E+01
(PID.TID 0000.0001) %MON dynstat_sst_min              =   1.6068707306251E+01
(PID.TID 0000.0001) %MON dynstat_sst_mean             =   2.0180151274270E+01
(PID.TID 0000.0001) %MON dynstat_sst_sd               =   3.2902095773630E-01
(PID.TID 0000.0001) %MON dynstat_sst_del2             =   7.0577418151405E-03
(PID.TID 0000.0001) %MON dynstat_sss_max              =   3.5150978578608E+01
(PID.TID 0000.0001) %MON dynstat_sss_min              =   2.2777759741476E+01
(PID.TID 0000.0001) %MON dynstat_sss_mean             =   3.4958561819234E+01
(PID.TID 0000.0001) %MON dynstat_sss_sd               =   5.2496611241070E-01
(PID.TID 0000.0001) %MON dynstat_sss_del2             =   2.0074115486657E-02
(PID.TID 0000.0001) %MON forcing_qnet_max             =   4.0831808791631E+03
(PID.TID 0000.0001) %MON forcing_qnet_min             =  -2.1424279785156E+03
(PID.TID 0000.0001) %MON forcing_qnet_mean            =  -1.9014842553169E+01
(PID.TID 0000.0001) %MON forcing_qnet_sd              =   4.3698633603245E+02
(PID.TID 0000.0001) %MON forcing_qnet_del2            =   4.9212850855644E+00
(PID.TID 0000.0001) %MON forcing_qsw_max              =   0.0000000000000E+00
(PID.TID 0000.0001) %MON forcing_qsw_min              =  -1.0438888653761E+02
(PID.TID 0000.0001) %MON forcing_qsw_mean             =  -2.2523227759212E+01
(PID.TID 0000.0001) %MON forcing_qsw_sd               =   3.0626760068311E+01
(PID.TID 0000.0001) %MON forcing_qsw_del2             =   2.4538328141147E-01
(PID.TID 0000.0001) %MON forcing_empmr_max            =   4.1493903845549E-03
(PID.TID 0000.0001) %MON forcing_empmr_min            =  -5.9613738209009E-02
(PID.TID 0000.0001) %MON forcing_empmr_mean           =  -3.2485821065252E-04
(PID.TID 0000.0001) %MON forcing_empmr_sd             =   2.6783439012109E-03
(PID.TID 0000.0001) %MON forcing_empmr_del2           =   1.0383062981366E-04
(PID.TID 0000.0001) %MON forcing_fu_max               =   4.6281454990015E-01
(PID.TID 0000.0001) %MON forcing_fu_min               =  -5.8314308771589E-01
(PID.TID 0000.0001) %MON forcing_fu_mean              =  -2.6947650053364E-03
(PID.TID 0000.0001) %MON forcing_fu_sd                =   7.7613336597596E-02
(PID.TID 0000.0001) %MON forcing_fu_del2              =   6.5855274825398E-04
(PID.TID 0000.0001) %MON forcing_fv_max               =   3.2322158365939E-01
(PID.TID 0000.0001) %MON forcing_fv_min               =  -3.3398400758285E-01
(PID.TID 0000.0001) %MON forcing_fv_mean              =  -6.9205675515797E-03
(PID.TID 0000.0001) %MON forcing_fv_sd                =   7.0911784256991E-02
(PID.TID 0000.0001) %MON forcing_fv_del2              =   5.4817843659092E-04
(PID.TID 0000.0001) %MON trAdv_CFL_u_max              =   1.7996742135247E-03
(PID.TID 0000.0001) %MON trAdv_CFL_v_max              =   1.4051510342875E-03
(PID.TID 0000.0001) %MON trAdv_CFL_w_max              =   2.0284623953213E-03
(PID.TID 0000.0001) %MON advcfl_uvel_max              =   1.3709177124307E-03
(PID.TID 0000.0001) %MON advcfl_vvel_max              =   1.3524195102300E-03
(PID.TID 0000.0001) %MON advcfl_wvel_max              =   4.1470426580180E-03
(PID.TID 0000.0001) %MON advcfl_W_hf_max              =   2.3714675184967E-03
(PID.TID 0000.0001) %MON pe_b_mean                    =   9.0596167543118E-06
(PID.TID 0000.0001) %MON ke_max                       =   1.0805730457210E-01
(PID.TID 0000.0001) %MON ke_mean                      =   4.5547589187544E-05
(PID.TID 0000.0001) %MON ke_vol                       =   1.3398199609858E+18
(PID.TID 0000.0001) %MON vort_r_min                   =  -2.5228379641306E-06
(PID.TID 0000.0001) %MON vort_r_max                   =   2.5378309627476E-06
(PID.TID 0000.0001) %MON vort_a_mean                  =  -2.0549865324846E-05
(PID.TID 0000.0001) %MON vort_a_sd                    =   7.5259406321082E-05
(PID.TID 0000.0001) %MON vort_p_mean                  =  -2.4783196437733E-05
(PID.TID 0000.0001) %MON vort_p_sd                    =   1.2810500034453E-04
(PID.TID 0000.0001) %MON surfExpan_theta_mean         =  -3.4107137985484E-07
(PID.TID 0000.0001) %MON surfExpan_salt_mean          =   1.2825678609282E-06
(PID.TID 0000.0001) // =======================================================
(PID.TID 0000.0001) // End MONITOR dynamic field statistics
(PID.TID 0000.0001) // =======================================================
(PID.TID 0000.0001)  MDS_WRITE_FIELD: it,rec,kS,kL,kH=      96     1  16   1  16 file=U.0000000096
(PID.TID 0000.0001)  MDS_WRITE_FIELD: it,rec,kS,kL,kH=      96     1  16   1  16 file=V.0000000096
(PID.TID 0000.0001)  MDS_WRITE_FIELD: it,rec,kS,kL,kH=      96     1  16   1  16 file=T.0000000096
(PID.TID 0000.0001)  MDS_WRITE_FIELD: it,rec,kS,kL,kH=      96     1  16   1  16 file=S.0000000096
(PID.TID 0000.0001)  MDS_WRITE_FIELD: it,rec,kS,kL,kH=      96     1   1   1   1 file=Eta.0000000096
(PID.TID 0000.0001)  MDS_WRITE_FIELD: it,rec,kS,kL,kH=      96     1  16   1  16 file=W.0000000096
(PID.TID 0000.0001)  MDS_WRITE_FIELD: it,rec,kS,kL,kH=      96     1  16   1  16 file=PH.0000000096
(PID.TID 0000.0001)  MDS_WRITE_FIELD: it,rec,kS,kL,kH=      96     1   1   1   1 file=PHL.0000000096
(PID.TID 0000.0001)  MDS_WRITE_FIELD: it,rec,kS,kL,kH=      96    -1  16   1  16 file=pickup.ckptA
(PID.TID 0000.0001)  MDS_WRITE_FIELD: it,rec,kS,kL,kH=      96    -2  16   1  16 file=pickup.ckptA
(PID.TID 0000.0001)  MDS_WRITE_FIELD: it,rec,kS,kL,kH=      96    -3  16   1  16 file=pickup.ckptA
(PID.TID 0000.0001)  MDS_WRITE_FIELD: it,rec,kS,kL,kH=      96    -4  16   1  16 file=pickup.ckptA
(PID.TID 0000.0001)  MDS_WRITE_FIELD: it,rec,kS,kL,kH=      96    -5  16   1  16 file=pickup.ckptA
(PID.TID 0000.0001)  MDS_WRITE_FIELD: it,rec,kS,kL,kH=      96    -6  16   1  16 file=pickup.ckptA
(PID.TID 0000.0001)  MDS_WRITE_FIELD: it,rec,kS,kL,kH=      96    -7  16   1  16 file=pickup.ckptA
(PID.TID 0000.0001)  MDS_WRITE_FIELD: it,rec,kS,kL,kH=      96    -8  16   1  16 file=pickup.ckptA
(PID.TID 0000.0001)  MDS_WRITE_FIELD: it,rec,kS,kL,kH=      96  -129   1   1   1 file=pickup.ckptA
(PID.TID 0000.0001)  MDS_WRITE_FIELD: it,rec,kS,kL,kH=      96  -130   1   1   1 file=pickup.ckptA
(PID.TID 0000.0001)  MDS_WRITE_FIELD: it,rec,kS,kL,kH=      96  -131   1   1   1 file=pickup.ckptA
(PID.TID 0000.0001) %CHECKPOINT        96 ckptA
(PID.TID 0000.0001) DEBUG_MSG: LEAVING S/R FORWARD_STEP
