(PID.TID 0000.0001) 
(PID.TID 0000.0001) // ======================================================
(PID.TID 0000.0001) //                      MITgcm UV
(PID.TID 0000.0001) //                      =========
(PID.TID 0000.0001) // ======================================================
(PID.TID 0000.0001) // execution environment starting up...
(PID.TID 0000.0001) 
(PID.TID 0000.0001) // MITgcmUV version:  checkpoint67g
(PID.TID 0000.0001) // Build user:        estrobac
(PID.TID 0000.0001) // Build host:        discover05
(PID.TID 0000.0001) // Build date:        Thu Jan 17 13:23:17 EST 2019
(PID.TID 0000.0001) 
(PID.TID 0000.0001) // =======================================================
(PID.TID 0000.0001) // Execution Environment parameter file "eedata"
(PID.TID 0000.0001) // =======================================================
(PID.TID 0000.0001) ># Example "eedata" file
(PID.TID 0000.0001) ># Lines beginning "#" are comments
(PID.TID 0000.0001) ># nTx - No. threads per process in X
(PID.TID 0000.0001) ># nTy - No. threads per process in Y
(PID.TID 0000.0001) > &EEPARMS
(PID.TID 0000.0001) > useCubedSphereExchange=.TRUE.,
(PID.TID 0000.0001) > nTx=1,
(PID.TID 0000.0001) > nTy=1,
(PID.TID 0000.0001) >#debugMode=.TRUE.,
(PID.TID 0000.0001) > &
(PID.TID 0000.0001) ># Note: Some systems use & as the namelist terminator (as shown here).
(PID.TID 0000.0001) >#       Other systems use a / character.
(PID.TID 0000.0001) 
(PID.TID 0000.0001) // =======================================================
(PID.TID 0000.0001) // Computational Grid Specification ( see files "SIZE.h" )
(PID.TID 0000.0001) //                                  ( and "eedata"       )
(PID.TID 0000.0001) // =======================================================
(PID.TID 0000.0001)      nPx =    6 ; /* No. processes in X */
(PID.TID 0000.0001)      nPy =    1 ; /* No. processes in Y */
(PID.TID 0000.0001)      nSx =    1 ; /* No. tiles in X per process */
(PID.TID 0000.0001)      nSy =    1 ; /* No. tiles in Y per process */
(PID.TID 0000.0001)      sNx =   32 ; /* Tile size in X */
(PID.TID 0000.0001)      sNy =   32 ; /* Tile size in Y */
(PID.TID 0000.0001)      OLx =    4 ; /* Tile overlap distance in X */
(PID.TID 0000.0001)      OLy =    4 ; /* Tile overlap distance in Y */
(PID.TID 0000.0001)      nTx =    1 ; /* No. threads in X per process */
(PID.TID 0000.0001)      nTy =    1 ; /* No. threads in Y per process */
(PID.TID 0000.0001)       Nr =   15 ; /* No. levels in the vertical   */
(PID.TID 0000.0001)       Nx =  192 ; /* Total domain size in X ( = nPx*nSx*sNx ) */
(PID.TID 0000.0001)       Ny =   32 ; /* Total domain size in Y ( = nPy*nSy*sNy ) */
(PID.TID 0000.0001)   nTiles =    1 ; /* Total no. tiles per process ( = nSx*nSy ) */
(PID.TID 0000.0001)   nProcs =    6 ; /* Total no. processes ( = nPx*nPy ) */
(PID.TID 0000.0001) nThreads =    1 ; /* Total no. threads per process ( = nTx*nTy ) */
(PID.TID 0000.0001) usingMPI =    T ; /* Flag used to control whether MPI is in use */
(PID.TID 0000.0001)                   /*  note: To execute a program with MPI calls */
(PID.TID 0000.0001)                   /*  it must be launched appropriately e.g     */
(PID.TID 0000.0001)                   /*  "mpirun -np 64 ......"                    */
(PID.TID 0000.0001) useCoupler=    F ;/* Flag used to control communications with   */
(PID.TID 0000.0001)                   /*  other model components, through a coupler */
(PID.TID 0000.0001) useNest2W_parent =    F ;/* Control 2-W Nesting comm */
(PID.TID 0000.0001) useNest2W_child  =    F ;/* Control 2-W Nesting comm */
(PID.TID 0000.0001) debugMode =    F ; /* print debug msg. (sequence of S/R calls)  */
(PID.TID 0000.0001) printMapIncludesZeros=    F ; /* print zeros in Std.Output maps */
(PID.TID 0000.0001) maxLengthPrt1D=   65 /* maxLength of 1D array printed to StdOut */
(PID.TID 0000.0001) 
(PID.TID 0000.0001) ======= Starting MPI parallel Run =========
(PID.TID 0000.0001)  My Processor Name (len: 10 ) = discover05
(PID.TID 0000.0001)  Located at (  0,  0) on processor grid (0:  5,0:  0)
(PID.TID 0000.0001)  Origin at  (     1,     1) on global grid (1:   192,1:    32)
(PID.TID 0000.0001)  North neighbor = processor 0000
(PID.TID 0000.0001)  South neighbor = processor 0000
(PID.TID 0000.0001)   East neighbor = processor 0001
(PID.TID 0000.0001)   West neighbor = processor 0005
(PID.TID 0000.0001) // ======================================================
(PID.TID 0000.0001) // Mapping of tiles to threads
(PID.TID 0000.0001) // ======================================================
(PID.TID 0000.0001) // -o- Thread   1, tiles (   1:   1,   1:   1)
(PID.TID 0000.0001) 
(PID.TID 0000.0001) W2_READPARMS: file data.exch2 not found
(PID.TID 0000.0001) => use W2_EXCH2 default: regular 6-facets Cube
(PID.TID 0000.0001) W2_useE2ioLayOut=    T ;/* T: use Exch2 glob IO map; F: use model default */
(PID.TID 0000.0001) W2_mapIO        =  -1 ; /* select option for Exch2 global-IO map */
(PID.TID 0000.0001) W2_printMsg     =  -1 ; /* select option for printing information */
(PID.TID 0000.0001) ===== Start setting W2 TOPOLOGY:
(PID.TID 0000.0001)  write to log-file: w2_tile_topology.0000.log
(PID.TID 0000.0001) =====       setting W2 TOPOLOGY: Done
(PID.TID 0000.0001) 
(PID.TID 0000.0001)  INI_PARMS: opening model parameter file "data"
(PID.TID 0000.0001)  OPEN_COPY_DATA_FILE: opening file data
(PID.TID 0000.0001) // =======================================================
(PID.TID 0000.0001) // Parameter file "data"
(PID.TID 0000.0001) // =======================================================
(PID.TID 0000.0001) ># ====================
(PID.TID 0000.0001) ># | Model parameters |
(PID.TID 0000.0001) ># ====================
(PID.TID 0000.0001) >#
(PID.TID 0000.0001) ># Continuous equation parameters
(PID.TID 0000.0001) > &PARM01
(PID.TID 0000.0001) > tRef=15*20.,
(PID.TID 0000.0001) > sRef=15*35.,
(PID.TID 0000.0001) > viscAh =3.E-5,
(PID.TID 0000.0001) > viscAr= 5.6614e-04,
(PID.TID 0000.0001) > no_slip_sides = .FALSE.,
(PID.TID 0000.0001) > no_slip_bottom = .TRUE.,
(PID.TID 0000.0001) > diffKrT=5.44e-7,
(PID.TID 0000.0001) > diffKrS=5.44e-7,
(PID.TID 0000.0001) > rhonil=1027.5,
(PID.TID 0000.0001) > rhoConstFresh=999.8,
(PID.TID 0000.0001) > eosType='JMD95Z',
(PID.TID 0000.0001) > StaggerTimeStep=.TRUE.,
(PID.TID 0000.0001) > vectorInvariantMomentum=.TRUE.,
(PID.TID 0000.0001) > hFacMin=0.3,
(PID.TID 0000.0001) > hFacInf=0.1,
(PID.TID 0000.0001) > hFacSup=5.,
(PID.TID 0000.0001) > implicitDiffusion=.TRUE.,
(PID.TID 0000.0001) > implicitViscosity=.TRUE.,
(PID.TID 0000.0001) > viscC4Leith=2.0,
(PID.TID 0000.0001) > viscC4Leithd=2.0,
(PID.TID 0000.0001) > useAreaViscLength=.TRUE.,
(PID.TID 0000.0001) > sideDragFactor=0.,
(PID.TID 0000.0001) > highOrderVorticity  = .TRUE.,
(PID.TID 0000.0001) > bottomDragQuadratic = 0.0021,
(PID.TID 0000.0001) > tempAdvScheme=77,
(PID.TID 0000.0001) > saltAdvScheme=77,	
(PID.TID 0000.0001) > multiDimAdvection=.TRUE.,
(PID.TID 0000.0001) > implicitFreeSurface=.TRUE.,
(PID.TID 0000.0001) > exactConserv=.TRUE.,
(PID.TID 0000.0001) > debuglevel=-1,
(PID.TID 0000.0001) > convertFW2Salt=-1
(PID.TID 0000.0001) > useRealFreshWaterFlux=.TRUE.,
(PID.TID 0000.0001) > useSingleCPUio=.TRUE.,
(PID.TID 0000.0001) > globalFiles=.TRUE.,
(PID.TID 0000.0001) > readBinaryPrec=64,
(PID.TID 0000.0001) > writeBinaryPrec=32,
(PID.TID 0000.0001) > temp_EvPrRn=0.,
(PID.TID 0000.0001) > &
(PID.TID 0000.0001) >
(PID.TID 0000.0001) ># Elliptic solver parameters
(PID.TID 0000.0001) > &PARM02
(PID.TID 0000.0001) > cg2dMaxIters = 100,
(PID.TID 0000.0001) > cg2dTargetResidual = 1.E-5,
(PID.TID 0000.0001) > &
(PID.TID 0000.0001) >
(PID.TID 0000.0001) ># Time stepping parameters
(PID.TID 0000.0001) > &PARM03
(PID.TID 0000.0001) > nIter0=72000,
(PID.TID 0000.0001) > nTimeSteps       = 8,
(PID.TID 0000.0001) > deltaT = 900.,
(PID.TID 0000.0001) > abEps = 0.1,
(PID.TID 0000.0001) > forcing_In_AB=.FALSE.,
(PID.TID 0000.0001) > momDissip_In_AB=.FALSE.,
(PID.TID 0000.0001) > pChkptFreq        = 7200.0,
(PID.TID 0000.0001) > chkptFreq        = 7200.0,
(PID.TID 0000.0001) > dumpfreq = 3600.,
(PID.TID 0000.0001) > monitorFreq = 900.,
(PID.TID 0000.0001) > dumpInitAndLast=.TRUE.,
(PID.TID 0000.0001) > pickupStrictlyMatch=.FALSE.,
(PID.TID 0000.0001) > &
(PID.TID 0000.0001) >
(PID.TID 0000.0001) ># Gridding parameters
(PID.TID 0000.0001) > &PARM04
(PID.TID 0000.0001) > usingCurvilinearGrid=.TRUE.,
(PID.TID 0000.0001) > horizGridFile='grid_cs32',
(PID.TID 0000.0001) > delR= 50., 70., 100., 140., 190.,
(PID.TID 0000.0001) >       240., 290., 340., 390., 440.,
(PID.TID 0000.0001) >       490., 540., 590., 640., 690.,
(PID.TID 0000.0001) > &
(PID.TID 0000.0001) >
(PID.TID 0000.0001) ># Input datasets
(PID.TID 0000.0001) > &PARM05
(PID.TID 0000.0001) > bathyFile      ='bathy_Hmin50.bin',
(PID.TID 0000.0001) > &
(PID.TID 0000.0001) 
(PID.TID 0000.0001)  INI_PARMS ; starts to read PARM01
(PID.TID 0000.0001)  INI_PARMS ; read PARM01 : OK
(PID.TID 0000.0001)  INI_PARMS ; starts to read PARM02
(PID.TID 0000.0001)  INI_PARMS ; read PARM02 : OK
(PID.TID 0000.0001)  INI_PARMS ; starts to read PARM03
(PID.TID 0000.0001)  INI_PARMS ; read PARM03 : OK
(PID.TID 0000.0001)  INI_PARMS ; starts to read PARM04
(PID.TID 0000.0001)  INI_PARMS ; read PARM04 : OK
(PID.TID 0000.0001)  INI_PARMS ; starts to read PARM05
(PID.TID 0000.0001)  INI_PARMS ; read PARM05 : OK
(PID.TID 0000.0001)  INI_PARMS: finished reading file "data"
(PID.TID 0000.0001)  PACKAGES_BOOT: opening data.pkg
(PID.TID 0000.0001)  OPEN_COPY_DATA_FILE: opening file data.pkg
(PID.TID 0000.0001) // =======================================================
(PID.TID 0000.0001) // Parameter file "data.pkg"
(PID.TID 0000.0001) // =======================================================
(PID.TID 0000.0001) ># Packages
(PID.TID 0000.0001) > &PACKAGES
(PID.TID 0000.0001) > useCAL         = .TRUE.,
(PID.TID 0000.0001) > useEXF         = .FALSE.,
(PID.TID 0000.0001) > useSEAICE      = .TRUE.,
(PID.TID 0000.0001) > useKPP         = .TRUE.,
(PID.TID 0000.0001) ># useGMRedi      = .TRUE.,
(PID.TID 0000.0001) > useFRAZIL      = .FALSE.,
(PID.TID 0000.0001) > useDiagnostics     = .TRUE.,
(PID.TID 0000.0001) > &
(PID.TID 0000.0001) 
(PID.TID 0000.0001)  PACKAGES_BOOT: finished reading data.pkg
(PID.TID 0000.0001)  PACKAGES_BOOT: On/Off package Summary
 --------  pkgs with a standard "usePKG" On/Off switch in "data.pkg":  --------
 pkg/kpp                  compiled   and   used ( useKPP                   = T )
 pkg/cal                  compiled   and   used ( useCAL                   = T )
 pkg/frazil               compiled but not used ( useFRAZIL                = F )
 pkg/seaice               compiled   and   used ( useSEAICE                = T )
 pkg/diagnostics          compiled   and   used ( useDiagnostics           = T )
 -------- pkgs without standard "usePKG" On/Off switch in "data.pkg":  --------
 pkg/generic_advdiff      compiled   and   used ( useGAD                   = T )
 pkg/mom_common           compiled   and   used ( momStepping              = T )
 pkg/mom_vecinv           compiled   and   used ( +vectorInvariantMomentum = T )
 pkg/mom_fluxform         compiled but not used ( & not vectorInvariantMom = F )
 pkg/monitor              compiled   and   used ( monitorFreq > 0.         = T )
 pkg/timeave              compiled but not used ( taveFreq > 0.            = F )
 pkg/debug                compiled but not used ( debugMode                = F )
 pkg/exch2                compiled   and   used
 pkg/rw                   compiled   and   used
 pkg/mdsio                compiled   and   used
(PID.TID 0000.0001)  PACKAGES_BOOT: End of package Summary
(PID.TID 0000.0001) 
(PID.TID 0000.0001) CAL_READPARMS: opening data.cal
(PID.TID 0000.0001)  OPEN_COPY_DATA_FILE: opening file data.cal
(PID.TID 0000.0001) // =======================================================
(PID.TID 0000.0001) // Parameter file "data.cal"
(PID.TID 0000.0001) // =======================================================
(PID.TID 0000.0001) >#
(PID.TID 0000.0001) ># *******************
(PID.TID 0000.0001) ># Calendar Parameters
(PID.TID 0000.0001) ># *******************
(PID.TID 0000.0001) > &CAL_NML
(PID.TID 0000.0001) > TheCalendar='gregorian',
(PID.TID 0000.0001) > startDate_1=20120206,
(PID.TID 0000.0001) > startDate_2=210000,
(PID.TID 0000.0001) > calendarDumps = .TRUE.,
(PID.TID 0000.0001) > &
(PID.TID 0000.0001) 
(PID.TID 0000.0001) CAL_READPARMS: finished reading data.cal
(PID.TID 0000.0001)  KPP_READPARMS: opening data.kpp
(PID.TID 0000.0001)  OPEN_COPY_DATA_FILE: opening file data.kpp
(PID.TID 0000.0001) // =======================================================
(PID.TID 0000.0001) // Parameter file "data.kpp"
(PID.TID 0000.0001) // =======================================================
(PID.TID 0000.0001) ># KPP parameters
(PID.TID 0000.0001) > &KPP_PARM01
(PID.TID 0000.0001) > KPPmixingMaps   = .FALSE.,
(PID.TID 0000.0001) > KPPwriteState   = .FALSE.,
(PID.TID 0000.0001) > kpp_dumpFreq    = 0.,
(PID.TID 0000.0001) > kpp_tavefreq    = 0.,
(PID.TID 0000.0001) > Ricr            = 0.3559,
(PID.TID 0000.0001) > Riinfty         = 0.6998,
(PID.TID 0000.0001) > &
(PID.TID 0000.0001) >
(PID.TID 0000.0001) 
(PID.TID 0000.0001)  KPP_READPARMS ; starts to read KPP_PARM01
(PID.TID 0000.0001)  KPP_READPARMS ; read KPP_PARM01 : OK
(PID.TID 0000.0001)  KPP_READPARMS: finished reading data.kpp
(PID.TID 0000.0001) 
(PID.TID 0000.0001)  SEAICE_READPARMS: opening data.seaice
(PID.TID 0000.0001)  OPEN_COPY_DATA_FILE: opening file data.seaice
(PID.TID 0000.0001) // =======================================================
(PID.TID 0000.0001) // Parameter file "data.seaice"
(PID.TID 0000.0001) // =======================================================
(PID.TID 0000.0001) ># SEAICE parameters
(PID.TID 0000.0001) > &SEAICE_PARM01
(PID.TID 0000.0001) > usePW79thermodynamics= .FALSE.,
(PID.TID 0000.0001) ># SEAICEuseDYNAMICS = .FALSE.,
(PID.TID 0000.0001) ># SEAICEupdateOceanStress=.FALSE.,
(PID.TID 0000.0001) ># SEAICEadvHeff  = .FALSE.,
(PID.TID 0000.0001) ># SEAICEadvArea  = .FALSE.,
(PID.TID 0000.0001) ># SEAICEadvSnow  = .FALSE.,
(PID.TID 0000.0001) ># SEAICEadvSalt  = .FALSE.,
(PID.TID 0000.0001) >#--
(PID.TID 0000.0001) > SEAICE_strength    = 2.6780e+04,
(PID.TID 0000.0001) > OCEAN_drag         = 8.1541e-04,
(PID.TID 0000.0001) ># SEAICE_waterDrag   = 5.3508,
(PID.TID 0000.0001) >#- waterDrag no longer includes rhoConst factor:
(PID.TID 0000.0001) ># SEAICE_waterDrag   = 5.16985507246376811E-3,
(PID.TID 0000.0001) >  SEAICE_waterDrag   = 5.169855072463768E-3,
(PID.TID 0000.0001) >#- old defaults
(PID.TID 0000.0001) >  SEAICEscaleSurfStress = .FALSE.,
(PID.TID 0000.0001) >  SEAICEaddSnowMass     = .FALSE.,
(PID.TID 0000.0001) >  SEAICE_useMultDimSnow = .FALSE.,
(PID.TID 0000.0001) >  SEAICE_Olx = 0,
(PID.TID 0000.0001) >  SEAICE_Oly = 0,
(PID.TID 0000.0001) >  SEAICEetaZmethod = 0,
(PID.TID 0000.0001) >  SEAICE_drag = 2.E-3,
(PID.TID 0000.0001) >#--
(PID.TID 0000.0001) > SEAICE_no_Slip     = .FALSE.,
(PID.TID 0000.0001) > LSR_ERROR          = 1.E-4,
(PID.TID 0000.0001) > SEAICElinearIterMax=  500,
(PID.TID 0000.0001) >#LSR_mixIniGuess    = 1,
(PID.TID 0000.0001) > SEAICEadvScheme    = 77,
(PID.TID 0000.0001) > SEAICEwriteState   = .TRUE.,
(PID.TID 0000.0001) >#SEAICE_monFreq = 1800.,
(PID.TID 0000.0001) > &
(PID.TID 0000.0001) >
(PID.TID 0000.0001) > &SEAICE_PARM03
(PID.TID 0000.0001) > &
(PID.TID 0000.0001) 
(PID.TID 0000.0001)  SEAICE_READPARMS: finished reading data.seaice
(PID.TID 0000.0001)  DIAGNOSTICS_READPARMS: opening data.diagnostics
(PID.TID 0000.0001)  OPEN_COPY_DATA_FILE: opening file data.diagnostics
(PID.TID 0000.0001) // =======================================================
(PID.TID 0000.0001) // Parameter file "data.diagnostics"
(PID.TID 0000.0001) // =======================================================
(PID.TID 0000.0001) ># Diagnostic Package Choices
(PID.TID 0000.0001) >#--------------------
(PID.TID 0000.0001) >#  dumpAtLast (logical): always write output at the end of simulation (default=F)
(PID.TID 0000.0001) >#  diag_mnc   (logical): write to NetCDF files (default=useMNC)
(PID.TID 0000.0001) >#--for each output-stream:
(PID.TID 0000.0001) >#  fileName(n) : prefix of the output file name (max 80c long) for outp.stream n
(PID.TID 0000.0001) >#  frequency(n):< 0 : write snap-shot output every |frequency| seconds
(PID.TID 0000.0001) >#               > 0 : write time-average output every frequency seconds
(PID.TID 0000.0001) >#  timePhase(n)     : write at time = timePhase + multiple of |frequency|
(PID.TID 0000.0001) >#    averagingFreq  : frequency (in s) for periodic averaging interval
(PID.TID 0000.0001) >#    averagingPhase : phase     (in s) for periodic averaging interval
(PID.TID 0000.0001) >#    repeatCycle    : number of averaging intervals in 1 cycle
(PID.TID 0000.0001) >#  levels(:,n) : list of levels to write to file (Notes: declared as REAL)
(PID.TID 0000.0001) >#                when this entry is missing, select all common levels of this list
(PID.TID 0000.0001) >#  fields(:,n) : list of selected diagnostics fields (8.c) in outp.stream n
(PID.TID 0000.0001) >#                (see "available_diagnostics.log" file for the full list of diags)
(PID.TID 0000.0001) >#  missing_value(n) : missing value for real-type fields in output file "n"
(PID.TID 0000.0001) >#  fileFlags(n)     : specific code (8c string) for output file "n"
(PID.TID 0000.0001) >#--------------------
(PID.TID 0000.0001) ># oceTAUX  zonal surface wind stress, >0 increases uVel (N/m^2)
(PID.TID 0000.0001) ># oceTAUY  meridional surf. wind stress, >0 increases vVel (N/m^2)
(PID.TID 0000.0001) ># oceFWflx net surface Fresh-Water flux into ocean, >0 decreases salinity (kg/m^2/s)
(PID.TID 0000.0001) ># oceSflux net surface Salt flux into the ocean, >0 increases salinity (g/m^2/s)
(PID.TID 0000.0001) ># oceQnet  net surface heat flux into the ocean, >0 increases theta (W/m^2)
(PID.TID 0000.0001) ># oceQsw   net Short-Wave radiation (+=down), >0 increases theta (W/m^2)
(PID.TID 0000.0001) ># SSS      Sea Surface Salinity (g/kg)
(PID.TID 0000.0001) ># SST      Sea Surface Temperature (degC)
(PID.TID 0000.0001) ># UVEL1    Zonal Surface Velocity (m/s)
(PID.TID 0000.0001) ># VVEL1    Meridional Surface Velocity (m/s)
(PID.TID 0000.0001) >
(PID.TID 0000.0001) > &DIAGNOSTICS_LIST
(PID.TID 0000.0001) >
(PID.TID 0000.0001) > frequency(1)  = -900.,
(PID.TID 0000.0001) >   fields(1:8,1)  = 'oceTAUX ','oceTAUY ','oceFWflx','oceSflux','oceQnet ','oceQsw  ','ETAN   ','atmPload',
(PID.TID 0000.0001) >   filename(1)  = 'state_2d_set1',
(PID.TID 0000.0001) >   timePhase(1) =  0.,
(PID.TID 0000.0001) >
(PID.TID 0000.0001) > frequency(2)  = -900.,
(PID.TID 0000.0001) >    fields(1:7,2)  = 'SALT    ','THETA   ','UVELMASS','VVELMASS','WVELMASS',
(PID.TID 0000.0001) >    filename(2)  = 'state_3d_set1',
(PID.TID 0000.0001) >    timePhase(2) =  0.,
(PID.TID 0000.0001) >
(PID.TID 0000.0001) > frequency(3)  = -900.,
(PID.TID 0000.0001) >    fields(1:2,3)  = 'SALT    ','THETA   ',
(PID.TID 0000.0001) >#   filename(3)  = 'snap_3d_set1',
(PID.TID 0000.0001) >    timePhase(3) =  0.,
(PID.TID 0000.0001) >
(PID.TID 0000.0001) > frequency(4)  = -900.,
(PID.TID 0000.0001) >    fields(1,4)  = 'ETAN   ',
(PID.TID 0000.0001) >#    filename(4)  = 'snap_2d_set2',
(PID.TID 0000.0001) >    timePhase(4) =  0.,
(PID.TID 0000.0001) >
(PID.TID 0000.0001) > frequency(5) = -900.0,
(PID.TID 0000.0001) >    fields(1:8,5) = 'DFxE_TH ','DFyE_TH ','ADVx_TH ','ADVy_TH ',
(PID.TID 0000.0001) >                    'DFxE_SLT','DFyE_SLT','ADVx_SLT','ADVy_SLT',
(PID.TID 0000.0001) >    filename(5) = 'state_3d_set2',
(PID.TID 0000.0001) >    timePhase(5) =  0.,
(PID.TID 0000.0001) >
(PID.TID 0000.0001) > frequency(6) = -900.0,
(PID.TID 0000.0001) >    fields(1:7,6) = 'ADVr_TH ','DFrE_TH ','DFrI_TH ',
(PID.TID 0000.0001) >                    'ADVr_SLT','DFrE_SLT','DFrI_SLT',
(PID.TID 0000.0001) >    filename(6) = 'state_3d_set4',
(PID.TID 0000.0001) >    timePhase(6) =  0.,
(PID.TID 0000.0001) >
(PID.TID 0000.0001) > frequency(7) =  -900.,
(PID.TID 0000.0001) >    fields(1:15,7)  = 'SIarea  ','SIheff  ','SIhsnow ','sIceLoad',
(PID.TID 0000.0001) >                   'SIuice  ','SIvice  ','SItaux  ','SItauy  ',
(PID.TID 0000.0001) >                   'ADVxHEFF','ADVyHEFF',
(PID.TID 0000.0001) >                   'ADVxAREA','ADVyAREA',
(PID.TID 0000.0001) >                   'ADVxSNOW','ADVySNOW',
(PID.TID 0000.0001) >                   'CPLoWGHT',
(PID.TID 0000.0001) >    fileName(7) = 'iceDiag',
(PID.TID 0000.0001) >    missing_value(7) = -999.,
(PID.TID 0000.0001) >    timePhase(7) =  0.,
(PID.TID 0000.0001) >
(PID.TID 0000.0001) >
(PID.TID 0000.0001) >
(PID.TID 0000.0001) > frequency(8) = -900.,
(PID.TID 0000.0001) >    fields(1:9,8)  = 'SIarea  ','SIheff  ','SIhsnow ','sIceLoad',
(PID.TID 0000.0001) >                   'SIuice  ','SIvice  ','SItaux  ','SItauy  ',
(PID.TID 0000.0001) >                   'CPLoWGHT',
(PID.TID 0000.0001) >    missing_value(8) = -999.,
(PID.TID 0000.0001) >#   fileName(8) = 'iceInst',
(PID.TID 0000.0001) >    timePhase(8) =  0.,
(PID.TID 0000.0001) >
(PID.TID 0000.0001) > frequency(9) = -900.,
(PID.TID 0000.0001) >    fields(1:6,9) = 'SIareaN ','SIheffN ','SIhsnowN',
(PID.TID 0000.0001) >                   'SI_dArea','SI_dHeff','SI_dHsnw',
(PID.TID 0000.0001) >    timePhase(9) = 0.,
(PID.TID 0000.0001) >    fileFlags(9) = 'D       ',
(PID.TID 0000.0001) >    fileName(9) = 'iceNcat',
(PID.TID 0000.0001) >    timePhase(9) =  0.,
(PID.TID 0000.0001) >
(PID.TID 0000.0001) > frequency(10) = -900.,
(PID.TID 0000.0001) >    fields(1:2,10)  = 'SIqIce  ',
(PID.TID 0000.0001) >                      'SI_dQIce',
(PID.TID 0000.0001) >    timePhase(10) =  0.,
(PID.TID 0000.0001) >    fileName(10) = 'iceEnerg',
(PID.TID 0000.0001) >    timePhase(10) =  0.,
(PID.TID 0000.0001) >
(PID.TID 0000.0001) > frequency(11) = -900.,
(PID.TID 0000.0001) >    fields(1:2,11)  = 'SIqSnow ',
(PID.TID 0000.0001) >                      'SI_dQSnw',
(PID.TID 0000.0001) >    timePhase(11) =  0.,
(PID.TID 0000.0001) >   fileName(11) = 'snowEnerg',
(PID.TID 0000.0001) >   timePhase(11) =  0.,
(PID.TID 0000.0001) >
(PID.TID 0000.0001) > &
(PID.TID 0000.0001) >
(PID.TID 0000.0001) > &DIAG_STATIS_PARMS
(PID.TID 0000.0001) > stat_fields(1:6,1)  = 'ETAN    ', 'THETA   ','SALT    ','oceQnet ','oceFWflx','oceSflux',
(PID.TID 0000.0001) > stat_fName(1) = 'dynStDiag',
(PID.TID 0000.0001) > stat_freq(1)=  -900.0,
(PID.TID 0000.0001) > stat_phase(2) =  0.,
(PID.TID 0000.0001) >
(PID.TID 0000.0001) > stat_fields(1:18,2)  = 'SIarea  ','SIheff  ','SIhsnow ','sIceLoad',
(PID.TID 0000.0001) >                        'SIuice  ','SIvice  ','SItaux  ','SItauy  ',
(PID.TID 0000.0001) >                        'SIareaN ','SIheffN ','SIhsnowN',
(PID.TID 0000.0001) >                        'SIqSnow ','SIqIce  ',
(PID.TID 0000.0001) >                        'SI_dArea','SI_dHeff','SI_dHsnw',
(PID.TID 0000.0001) >                        'SI_dQSnw','SI_dQIce',
(PID.TID 0000.0001) > stat_fName(2) = 'iceStDiag',
(PID.TID 0000.0001) > stat_freq(2) = -900.,
(PID.TID 0000.0001) > stat_phase(2) =  0.,
(PID.TID 0000.0001) > &
(PID.TID 0000.0001) 
(PID.TID 0000.0001) S/R DIAGNOSTICS_READPARMS, read namelist "diagnostics_list": start
(PID.TID 0000.0001) S/R DIAGNOSTICS_READPARMS, read namelist "diagnostics_list": OK
(PID.TID 0000.0001) S/R DIAGNOSTICS_READPARMS, read namelist "DIAG_STATIS_PARMS": start
(PID.TID 0000.0001) S/R DIAGNOSTICS_READPARMS, read namelist "DIAG_STATIS_PARMS": OK
(PID.TID 0000.0001)  DIAGNOSTICS_READPARMS: global parameter summary:
(PID.TID 0000.0001)  dumpAtLast = /* always write time-ave diags at the end */
(PID.TID 0000.0001)                   F
(PID.TID 0000.0001)     ;
(PID.TID 0000.0001)  diag_mnc =   /* write NetCDF output files */
(PID.TID 0000.0001)                   F
(PID.TID 0000.0001)     ;
(PID.TID 0000.0001)  useMissingValue = /* put MissingValue where mask = 0 */
(PID.TID 0000.0001)                   F
(PID.TID 0000.0001)     ;
(PID.TID 0000.0001)  diagCG_maxIters = /* max number of iters in diag_cg2d */
(PID.TID 0000.0001)                     100
(PID.TID 0000.0001)     ;
(PID.TID 0000.0001)  diagCG_resTarget = /* residual target for diag_cg2d */
(PID.TID 0000.0001)                 1.000000000000000E-05
(PID.TID 0000.0001)     ;
(PID.TID 0000.0001)  diagCG_pcOffDFac = /* preconditioner off-diagonal factor */
(PID.TID 0000.0001)                 9.611687812379854E-01
(PID.TID 0000.0001)     ;
(PID.TID 0000.0001) -----------------------------------------------------
(PID.TID 0000.0001)  DIAGNOSTICS_READPARMS: active diagnostics summary:
(PID.TID 0000.0001) -----------------------------------------------------
(PID.TID 0000.0001) Creating Output Stream: state_2d_set1
(PID.TID 0000.0001) Output Frequency:       -900.000000 ; Phase:           0.000000
(PID.TID 0000.0001)  Averaging Freq.:          0.000000 , Phase:           0.000000 , Cycle:   1
(PID.TID 0000.0001)  missing value: -9.990000000000E+02
(PID.TID 0000.0001)  Levels:    will be set later
(PID.TID 0000.0001)  Fields:    oceTAUX  oceTAUY  oceFWflx oceSflux oceQnet  oceQsw   ETAN     atmPload
(PID.TID 0000.0001) Creating Output Stream: state_3d_set1
(PID.TID 0000.0001) Output Frequency:       -900.000000 ; Phase:           0.000000
(PID.TID 0000.0001)  Averaging Freq.:          0.000000 , Phase:           0.000000 , Cycle:   1
(PID.TID 0000.0001)  missing value: -9.990000000000E+02
(PID.TID 0000.0001)  Levels:    will be set later
(PID.TID 0000.0001)  Fields:    SALT     THETA    UVELMASS VVELMASS WVELMASS
(PID.TID 0000.0001) Creating Output Stream: state_3d_set2
(PID.TID 0000.0001) Output Frequency:       -900.000000 ; Phase:           0.000000
(PID.TID 0000.0001)  Averaging Freq.:          0.000000 , Phase:           0.000000 , Cycle:   1
(PID.TID 0000.0001)  missing value: -9.990000000000E+02
(PID.TID 0000.0001)  Levels:    will be set later
(PID.TID 0000.0001)  Fields:    DFxE_TH  DFyE_TH  ADVx_TH  ADVy_TH  DFxE_SLT DFyE_SLT ADVx_SLT ADVy_SLT
(PID.TID 0000.0001) Creating Output Stream: state_3d_set4
(PID.TID 0000.0001) Output Frequency:       -900.000000 ; Phase:           0.000000
(PID.TID 0000.0001)  Averaging Freq.:          0.000000 , Phase:           0.000000 , Cycle:   1
(PID.TID 0000.0001)  missing value: -9.990000000000E+02
(PID.TID 0000.0001)  Levels:    will be set later
(PID.TID 0000.0001)  Fields:    ADVr_TH  DFrE_TH  DFrI_TH  ADVr_SLT DFrE_SLT DFrI_SLT
(PID.TID 0000.0001) Creating Output Stream: iceDiag
(PID.TID 0000.0001) Output Frequency:       -900.000000 ; Phase:           0.000000
(PID.TID 0000.0001)  Averaging Freq.:          0.000000 , Phase:           0.000000 , Cycle:   1
(PID.TID 0000.0001)  missing value: -9.990000000000E+02
(PID.TID 0000.0001)  Levels:    will be set later
(PID.TID 0000.0001)  Fields:    SIarea   SIheff   SIhsnow  sIceLoad SIuice   SIvice   SItaux   SItauy   ADVxHEFF ADVyHEFF
(PID.TID 0000.0001)  Fields:    ADVxAREA ADVyAREA ADVxSNOW ADVySNOW CPLoWGHT
(PID.TID 0000.0001) Creating Output Stream: iceNcat
(PID.TID 0000.0001) Output Frequency:       -900.000000 ; Phase:           0.000000
(PID.TID 0000.0001)  Averaging Freq.:          0.000000 , Phase:           0.000000 , Cycle:   1
(PID.TID 0000.0001)  missing value: -9.990000000000E+02 ; F-Flags="D       "
(PID.TID 0000.0001)  Levels:    will be set later
(PID.TID 0000.0001)  Fields:    SIareaN  SIheffN  SIhsnowN SI_dArea SI_dHeff SI_dHsnw
(PID.TID 0000.0001) Creating Output Stream: iceEnerg
(PID.TID 0000.0001) Output Frequency:       -900.000000 ; Phase:           0.000000
(PID.TID 0000.0001)  Averaging Freq.:          0.000000 , Phase:           0.000000 , Cycle:   1
(PID.TID 0000.0001)  missing value: -9.990000000000E+02
(PID.TID 0000.0001)  Levels:    will be set later
(PID.TID 0000.0001)  Fields:    SIqIce   SI_dQIce
(PID.TID 0000.0001) Creating Output Stream: snowEnerg
(PID.TID 0000.0001) Output Frequency:       -900.000000 ; Phase:           0.000000
(PID.TID 0000.0001)  Averaging Freq.:          0.000000 , Phase:           0.000000 , Cycle:   1
(PID.TID 0000.0001)  missing value: -9.990000000000E+02
(PID.TID 0000.0001)  Levels:    will be set later
(PID.TID 0000.0001)  Fields:    SIqSnow  SI_dQSnw
(PID.TID 0000.0001) -----------------------------------------------------
(PID.TID 0000.0001)  DIAGNOSTICS_READPARMS: statistics diags. summary:
(PID.TID 0000.0001) Creating Stats. Output Stream: dynStDiag
(PID.TID 0000.0001) Output Frequency:       -900.000000 ; Phase:         450.000000
(PID.TID 0000.0001)  Regions:   0
(PID.TID 0000.0001)  Fields:    ETAN     THETA    SALT     oceQnet  oceFWflx oceSflux
(PID.TID 0000.0001) Creating Stats. Output Stream: iceStDiag
(PID.TID 0000.0001) Output Frequency:       -900.000000 ; Phase:           0.000000
(PID.TID 0000.0001)  Regions:   0
(PID.TID 0000.0001)  Fields:    SIarea   SIheff   SIhsnow  sIceLoad SIuice   SIvice   SItaux   SItauy   SIareaN  SIheffN
(PID.TID 0000.0001)  Fields:    SIhsnowN SIqSnow  SIqIce   SI_dArea SI_dHeff SI_dHsnw SI_dQSnw SI_dQIce
(PID.TID 0000.0001) -----------------------------------------------------
(PID.TID 0000.0001) 
(PID.TID 0000.0001) SET_PARMS: done
(PID.TID 0000.0001) Enter INI_VERTICAL_GRID: setInterFDr=    T ; setCenterDr=    F
(PID.TID 0000.0001) tile:   1 ; Read from file grid_cs32.face001.bin
(PID.TID 0000.0001)   => xC yC dxF dyF rA xG yG dxV dyU rAz dxC dyC rAw rAs dxG dyG AngleCS AngleSN
(PID.TID 0000.0001) %MON XC_max                       =   1.7854351589505E+02
(PID.TID 0000.0001) %MON XC_min                       =  -1.7854351589505E+02
(PID.TID 0000.0001) %MON XC_mean                      =  -7.1054273576010E-15
(PID.TID 0000.0001) %MON XC_sd                        =   1.0355545336287E+02
(PID.TID 0000.0001) %MON XG_max                       =   1.8000000000000E+02
(PID.TID 0000.0001) %MON XG_min                       =  -1.7708797161002E+02
(PID.TID 0000.0001) %MON XG_mean                      =   1.8603515625000E+00
(PID.TID 0000.0001) %MON XG_sd                        =   1.0357130300504E+02
(PID.TID 0000.0001) %MON DXC_max                      =   3.2375185836900E+05
(PID.TID 0000.0001) %MON DXC_min                      =   1.1142031410131E+05
(PID.TID 0000.0001) %MON DXC_mean                     =   2.8605689051214E+05
(PID.TID 0000.0001) %MON DXC_sd                       =   3.4042087138252E+04
(PID.TID 0000.0001) %MON DXF_max                      =   3.2369947500827E+05
(PID.TID 0000.0001) %MON DXF_min                      =   1.2020820513318E+05
(PID.TID 0000.0001) %MON DXF_mean                     =   2.8605437324820E+05
(PID.TID 0000.0001) %MON DXF_sd                       =   3.4050524252539E+04
(PID.TID 0000.0001) %MON DXG_max                      =   3.2375195872773E+05
(PID.TID 0000.0001) %MON DXG_min                      =   1.0098378008791E+05
(PID.TID 0000.0001) %MON DXG_mean                     =   2.8603818508931E+05
(PID.TID 0000.0001) %MON DXG_sd                       =   3.4140406908005E+04
(PID.TID 0000.0001) %MON DXV_max                      =   3.2380418162750E+05
(PID.TID 0000.0001) %MON DXV_min                      =   8.0152299824136E+04
(PID.TID 0000.0001) %MON DXV_mean                     =   2.8603970633619E+05
(PID.TID 0000.0001) %MON DXV_sd                       =   3.4145142117723E+04
(PID.TID 0000.0001) %MON YC_max                       =   8.7940663871962E+01
(PID.TID 0000.0001) %MON YC_min                       =  -8.7940663871962E+01
(PID.TID 0000.0001) %MON YC_mean                      =   0.0000000000000E+00
(PID.TID 0000.0001) %MON YC_sd                        =   3.8676242969072E+01
(PID.TID 0000.0001) %MON YG_max                       =   9.0000000000000E+01
(PID.TID 0000.0001) %MON YG_min                       =  -9.0000000000000E+01
(PID.TID 0000.0001) %MON YG_mean                      =   1.1842378929335E-15
(PID.TID 0000.0001) %MON YG_sd                        =   3.8676895860710E+01
(PID.TID 0000.0001) %MON DYC_max                      =   3.2375185836900E+05
(PID.TID 0000.0001) %MON DYC_min                      =   1.1142031410131E+05
(PID.TID 0000.0001) %MON DYC_mean                     =   2.8605689051214E+05
(PID.TID 0000.0001) %MON DYC_sd                       =   3.4042087138252E+04
(PID.TID 0000.0001) %MON DYF_max                      =   3.2369947500827E+05
(PID.TID 0000.0001) %MON DYF_min                      =   1.2020820513318E+05
(PID.TID 0000.0001) %MON DYF_mean                     =   2.8605437324820E+05
(PID.TID 0000.0001) %MON DYF_sd                       =   3.4050524252539E+04
(PID.TID 0000.0001) %MON DYG_max                      =   3.2375195872773E+05
(PID.TID 0000.0001) %MON DYG_min                      =   1.0098378008791E+05
(PID.TID 0000.0001) %MON DYG_mean                     =   2.8603818508931E+05
(PID.TID 0000.0001) %MON DYG_sd                       =   3.4140406908005E+04
(PID.TID 0000.0001) %MON DYU_max                      =   3.2380418162750E+05
(PID.TID 0000.0001) %MON DYU_min                      =   8.0152299824136E+04
(PID.TID 0000.0001) %MON DYU_mean                     =   2.8603970633619E+05
(PID.TID 0000.0001) %MON DYU_sd                       =   3.4145142117723E+04
(PID.TID 0000.0001) %MON RA_max                       =   1.0479260248419E+11
(PID.TID 0000.0001) %MON RA_min                       =   1.4019007022556E+10
(PID.TID 0000.0001) %MON RA_mean                      =   8.2992246709265E+10
(PID.TID 0000.0001) %MON RA_sd                        =   1.7509089299457E+10
(PID.TID 0000.0001) %MON RAW_max                      =   1.0480965274559E+11
(PID.TID 0000.0001) %MON RAW_min                      =   1.2166903467143E+10
(PID.TID 0000.0001) %MON RAW_mean                     =   8.2992246709235E+10
(PID.TID 0000.0001) %MON RAW_sd                       =   1.7481917919656E+10
(PID.TID 0000.0001) %MON RAS_max                      =   1.0480965274559E+11
(PID.TID 0000.0001) %MON RAS_min                      =   1.2166903467143E+10
(PID.TID 0000.0001) %MON RAS_mean                     =   8.2992246709235E+10
(PID.TID 0000.0001) %MON RAS_sd                       =   1.7481917919656E+10
(PID.TID 0000.0001) %MON RAZ_max                      =   1.0484349334619E+11
(PID.TID 0000.0001) %MON RAZ_min                      =   8.8317900612505E+09
(PID.TID 0000.0001) %MON RAZ_mean                     =   8.2992246709235E+10
(PID.TID 0000.0001) %MON RAZ_sd                       =   1.7482297311044E+10
(PID.TID 0000.0001) %MON AngleCS_max                  =   9.9999994756719E-01
(PID.TID 0000.0001) %MON AngleCS_min                  =  -9.9968286884824E-01
(PID.TID 0000.0001) %MON AngleCS_mean                 =   3.3078922539000E-01
(PID.TID 0000.0001) %MON AngleCS_sd                   =   6.2496278958502E-01
(PID.TID 0000.0001) %MON AngleSN_max                  =   9.9968286884824E-01
(PID.TID 0000.0001) %MON AngleSN_min                  =  -9.9999994756719E-01
(PID.TID 0000.0001) %MON AngleSN_mean                 =  -3.3078922539000E-01
(PID.TID 0000.0001) %MON AngleSN_sd                   =   6.2496278958502E-01
(PID.TID 0000.0001) 
(PID.TID 0000.0001) // =======================================================
(PID.TID 0000.0001) // Calendar configuration >>> START <<<
(PID.TID 0000.0001) // =======================================================
(PID.TID 0000.0001) 
(PID.TID 0000.0001) modelstart = /* Start time of the model integration [s] */
(PID.TID 0000.0001)                 6.480000000000000E+07
(PID.TID 0000.0001)     ;
(PID.TID 0000.0001) modelend  = /* End time of the model integration [s] */
(PID.TID 0000.0001)                 6.480720000000000E+07
(PID.TID 0000.0001)     ;
(PID.TID 0000.0001) modelStep = /* Time interval for a model forward step [s] */
(PID.TID 0000.0001)                 9.000000000000000E+02
(PID.TID 0000.0001)     ;
(PID.TID 0000.0001) usingGregorianCalendar= /* Calendar Type: Gregorian Calendar */
(PID.TID 0000.0001)                   T
(PID.TID 0000.0001)     ;
(PID.TID 0000.0001) usingJulianCalendar = /* Calendar Type: Julian Calendar */
(PID.TID 0000.0001)                   F
(PID.TID 0000.0001)     ;
(PID.TID 0000.0001) usingNoLeapYearCal  = /* Calendar Type: without Leap Year */
(PID.TID 0000.0001)                   F
(PID.TID 0000.0001)     ;
(PID.TID 0000.0001) usingModelCalendar  = /* Calendar Type: Model Calendar */
(PID.TID 0000.0001)                   F
(PID.TID 0000.0001)     ;
(PID.TID 0000.0001) modelStartDate YYYYMMDD = /* Model start date YYYY-MM-DD */
(PID.TID 0000.0001)                20140225
(PID.TID 0000.0001)     ;
(PID.TID 0000.0001)   modelStartDate HHMMSS = /* Model start date HH-MM-SS  */
(PID.TID 0000.0001)                  210000
(PID.TID 0000.0001)     ;
(PID.TID 0000.0001) modelEndDate   YYYYMMDD = /* Model end date YYYY-MM-DD */
(PID.TID 0000.0001)                20140225
(PID.TID 0000.0001)     ;
(PID.TID 0000.0001)   modelEndDate   HHMMSS = /* Model end date HH-MM-SS  */
(PID.TID 0000.0001)                  230000
(PID.TID 0000.0001)     ;
(PID.TID 0000.0001) intyears = /* Number of calendar years affected by the integration */
(PID.TID 0000.0001)                       1
(PID.TID 0000.0001)     ;
(PID.TID 0000.0001) intmonths= /* Number of calendar months affected by the integration */
(PID.TID 0000.0001)                       1
(PID.TID 0000.0001)     ;
(PID.TID 0000.0001) intdays = /* Number of calendar days affected by the integration */
(PID.TID 0000.0001)                       1
(PID.TID 0000.0001)     ;
(PID.TID 0000.0001) modelIter0 = /* Base timestep number  */
(PID.TID 0000.0001)                   72000
(PID.TID 0000.0001)     ;
(PID.TID 0000.0001) modelIterEnd = /* Final timestep number  */
(PID.TID 0000.0001)                   72008
(PID.TID 0000.0001)     ;
(PID.TID 0000.0001) modelIntSteps= /* Number of model timesteps  */
(PID.TID 0000.0001)                       8
(PID.TID 0000.0001)     ;
(PID.TID 0000.0001) 
(PID.TID 0000.0001) // =======================================================
(PID.TID 0000.0001) // Calendar configuration  >>> END <<<
(PID.TID 0000.0001) // =======================================================
(PID.TID 0000.0001) 
(PID.TID 0000.0001) GAD_INIT_FIXED: GAD_OlMinSize=  2  0  2
(PID.TID 0000.0001) 
(PID.TID 0000.0001) // ===================================
(PID.TID 0000.0001) // GAD parameters :
(PID.TID 0000.0001) // ===================================
(PID.TID 0000.0001) tempAdvScheme =   /* Temp. Horiz.Advection scheme selector */
(PID.TID 0000.0001)                      77
(PID.TID 0000.0001)     ;
(PID.TID 0000.0001) tempVertAdvScheme =   /* Temp. Vert. Advection scheme selector */
(PID.TID 0000.0001)                      77
(PID.TID 0000.0001)     ;
(PID.TID 0000.0001) tempMultiDimAdvec =   /* use Muti-Dim Advec method for Temp */
(PID.TID 0000.0001)                   T
(PID.TID 0000.0001)     ;
(PID.TID 0000.0001) tempSOM_Advection = /* use 2nd Order Moment Advection for Temp */
(PID.TID 0000.0001)                   F
(PID.TID 0000.0001)     ;
(PID.TID 0000.0001) AdamsBashforthGt = /* apply Adams-Bashforth extrapolation on Gt */
(PID.TID 0000.0001)                   F
(PID.TID 0000.0001)     ;
(PID.TID 0000.0001) AdamsBashforth_T = /* apply Adams-Bashforth extrapolation on Temp */
(PID.TID 0000.0001)                   F
(PID.TID 0000.0001)     ;
(PID.TID 0000.0001) saltAdvScheme =   /* Salt. Horiz.advection scheme selector */
(PID.TID 0000.0001)                      77
(PID.TID 0000.0001)     ;
(PID.TID 0000.0001) saltVertAdvScheme =   /* Salt. Vert. Advection scheme selector */
(PID.TID 0000.0001)                      77
(PID.TID 0000.0001)     ;
(PID.TID 0000.0001) saltMultiDimAdvec =   /* use Muti-Dim Advec method for Salt */
(PID.TID 0000.0001)                   T
(PID.TID 0000.0001)     ;
(PID.TID 0000.0001) saltSOM_Advection = /* use 2nd Order Moment Advection for Salt */
(PID.TID 0000.0001)                   F
(PID.TID 0000.0001)     ;
(PID.TID 0000.0001) AdamsBashforthGs = /* apply Adams-Bashforth extrapolation on Gs */
(PID.TID 0000.0001)                   F
(PID.TID 0000.0001)     ;
(PID.TID 0000.0001) AdamsBashforth_S = /* apply Adams-Bashforth extrapolation on Salt */
(PID.TID 0000.0001)                   F
(PID.TID 0000.0001)     ;
(PID.TID 0000.0001) // ===================================
(PID.TID 0000.0001)  SEAICE_INIT_FIXED:  5 sea ice thickness categories
(PID.TID 0000.0001)  SEAICE_INIT_FIXED: Hlimit =   0.00  0.64  1.39  2.47  4.57 999.9
(PID.TID 0000.0001) // =======================================================
(PID.TID 0000.0001) // Seaice configuration (SEAICE_PARM01) >>> START <<<
(PID.TID 0000.0001) // =======================================================
(PID.TID 0000.0001) 
(PID.TID 0000.0001)    Seaice time stepping configuration   > START <
(PID.TID 0000.0001)    ----------------------------------------------
(PID.TID 0000.0001) SEAICE_deltaTtherm= /* thermodynamic timestep */
(PID.TID 0000.0001)                 9.000000000000000E+02
(PID.TID 0000.0001)     ;
(PID.TID 0000.0001) SEAICE_deltaTdyn  = /* dynamic timestep */
(PID.TID 0000.0001)                 9.000000000000000E+02
(PID.TID 0000.0001)     ;
(PID.TID 0000.0001) SEAICE_deltaTevp  = /* EVP timestep */
(PID.TID 0000.0001)                 1.234567000000000E+05
(PID.TID 0000.0001)     ;
(PID.TID 0000.0001) SEAICEuseBDF2  = /* use backw. differencing for mom. eq. */
(PID.TID 0000.0001)                   F
(PID.TID 0000.0001)     ;
(PID.TID 0000.0001) SEAICEupdateOceanStress= /* update Ocean surf. stress */
(PID.TID 0000.0001)                   T
(PID.TID 0000.0001)     ;
(PID.TID 0000.0001) SEAICErestoreUnderIce  = /* restore T and S under ice */
(PID.TID 0000.0001)                   F
(PID.TID 0000.0001)     ;
(PID.TID 0000.0001) 
(PID.TID 0000.0001)    Seaice dynamics configuration   > START <
(PID.TID 0000.0001)    ------------------------------------------
(PID.TID 0000.0001) SEAICEuseDYNAMICS = /* use dynamics */
(PID.TID 0000.0001)                   T
(PID.TID 0000.0001)     ;
(PID.TID 0000.0001) model grid type   = /* type of sea ice model grid */
(PID.TID 0000.0001)               'C-GRID'
(PID.TID 0000.0001)     ;
(PID.TID 0000.0001) SEAICEuseStrImpCpl = /* use strongly implicit coupling */
(PID.TID 0000.0001)                   F
(PID.TID 0000.0001)     ;
(PID.TID 0000.0001) SEAICEusePicardAsPrecon = /* Picard as preconditioner */
(PID.TID 0000.0001)                   F
(PID.TID 0000.0001)     ;
(PID.TID 0000.0001) SEAICEuseLSR      = /* use default Picard-LSR solver */
(PID.TID 0000.0001)                   T
(PID.TID 0000.0001)     ;
(PID.TID 0000.0001) SEAICEuseKrylov   = /* use Picard-Krylov solver */
(PID.TID 0000.0001)                   F
(PID.TID 0000.0001)     ;
(PID.TID 0000.0001) SEAICEuseEVP      = /* use EVP solver rather than LSR */
(PID.TID 0000.0001)                   F
(PID.TID 0000.0001)     ;
(PID.TID 0000.0001) SEAICEuseJFNK     = /* use JFNK solver */
(PID.TID 0000.0001)                   F
(PID.TID 0000.0001)     ;
(PID.TID 0000.0001) OCEAN_drag        = /* air-ocean drag coefficient */
(PID.TID 0000.0001)                 8.154100000000000E-04
(PID.TID 0000.0001)     ;
(PID.TID 0000.0001) SEAICE_drag       = /* air-ice drag coefficient */
(PID.TID 0000.0001)                 2.000000000000000E-03
(PID.TID 0000.0001)     ;
(PID.TID 0000.0001) SEAICE_drag_south      = /* Southern Ocean SEAICE_drag */
(PID.TID 0000.0001)                 2.000000000000000E-03
(PID.TID 0000.0001)     ;
(PID.TID 0000.0001) SEAICE_waterDrag  = /* water-ice drag */
(PID.TID 0000.0001)                 5.169855072463768E-03
(PID.TID 0000.0001)     ;
(PID.TID 0000.0001) SEAICE_waterDrag_south = /* Southern Ocean waterDrag */
(PID.TID 0000.0001)                 5.169855072463768E-03
(PID.TID 0000.0001)     ;
(PID.TID 0000.0001) SEAICEuseTilt     = /* include surface tilt in dyna. */
(PID.TID 0000.0001)                   T
(PID.TID 0000.0001)     ;
(PID.TID 0000.0001) SEAICEuseTEM      = /* use truncated ellipse rheology */
(PID.TID 0000.0001)                   F
(PID.TID 0000.0001)     ;
(PID.TID 0000.0001) SEAICE_strength   = /* sea-ice strength Pstar */
(PID.TID 0000.0001)                 2.678000000000000E+04
(PID.TID 0000.0001)     ;
(PID.TID 0000.0001) SEAICE_cStar      = /* sea-ice strength parameter cStar */
(PID.TID 0000.0001)                 2.000000000000000E+01
(PID.TID 0000.0001)     ;
(PID.TID 0000.0001) SEAICEpressReplFac= /* press. replacement method factor */
(PID.TID 0000.0001)                 1.000000000000000E+00
(PID.TID 0000.0001)     ;
(PID.TID 0000.0001) SEAICE_tensilFac  = /* sea-ice tensile strength factor */
(PID.TID 0000.0001)                 0.000000000000000E+00
(PID.TID 0000.0001)     ;
(PID.TID 0000.0001) SEAICE_tensilDepth= /* crit. depth for tensile strength */
(PID.TID 0000.0001)                 0.000000000000000E+00
(PID.TID 0000.0001)     ;
(PID.TID 0000.0001) SEAICEpresH0   = /* sea-ice strength Heff threshold */
(PID.TID 0000.0001)                 1.000000000000000E+00
(PID.TID 0000.0001)     ;
(PID.TID 0000.0001) SEAICEpresPow0 = /* exponent for Heff<SEAICEpresH0 */
(PID.TID 0000.0001)                       1
(PID.TID 0000.0001)     ;
(PID.TID 0000.0001) SEAICEpresPow1 = /* exponent for Heff>SEAICEpresH0 */
(PID.TID 0000.0001)                       1
(PID.TID 0000.0001)     ;
(PID.TID 0000.0001) SEAICEetaZmethod = /* method computing eta at Z-point */
(PID.TID 0000.0001)                       0
(PID.TID 0000.0001)     ;
(PID.TID 0000.0001) SEAICE_zetaMin    = /* lower bound for viscosity */
(PID.TID 0000.0001)                 0.000000000000000E+00
(PID.TID 0000.0001)     ;
(PID.TID 0000.0001) SEAICE_eccen    = /* elliptical yield curve eccent */
(PID.TID 0000.0001)                 2.000000000000000E+00
(PID.TID 0000.0001)     ;
(PID.TID 0000.0001) SEAICEstressFactor    = /* wind stress scaling factor */
(PID.TID 0000.0001)                 1.000000000000000E+00
(PID.TID 0000.0001)     ;
(PID.TID 0000.0001) SEAICE_airTurnAngle    = /* air-ice turning angle */
(PID.TID 0000.0001)                 0.000000000000000E+00
(PID.TID 0000.0001)     ;
(PID.TID 0000.0001) SEAICE_waterTurnAngle  = /* ice-water turning angle */
(PID.TID 0000.0001)                 0.000000000000000E+00
(PID.TID 0000.0001)     ;
(PID.TID 0000.0001) SEAICEuseMetricTerms = /* use metric terms */
(PID.TID 0000.0001)                   T
(PID.TID 0000.0001)     ;
(PID.TID 0000.0001) SEAICE_no_slip    = /* no slip boundary conditions */
(PID.TID 0000.0001)                   F
(PID.TID 0000.0001)     ;
(PID.TID 0000.0001) SEAICE_2ndOrderBC = /* 2nd order no slip boundary conditions */
(PID.TID 0000.0001)                   F
(PID.TID 0000.0001)     ;
(PID.TID 0000.0001) SEAICE_clipVeloctities = /* impose max. vels. */
(PID.TID 0000.0001)                   F
(PID.TID 0000.0001)     ;
(PID.TID 0000.0001) useHB87stressCoupling  = /* altern. ice-ocean stress */
(PID.TID 0000.0001)                   F
(PID.TID 0000.0001)     ;
(PID.TID 0000.0001) SEAICEscaleSurfStress  = /* scale atm. and ocean-surface stress with AREA */
(PID.TID 0000.0001)                   F
(PID.TID 0000.0001)     ;
(PID.TID 0000.0001) SEAICE_maskRHS    = /* mask RHS of solver */
(PID.TID 0000.0001)                   F
(PID.TID 0000.0001)     ;
(PID.TID 0000.0001) SEAICEaddSnowMass = /* add snow mass to seaiceMassC/U/V */
(PID.TID 0000.0001)                   F
(PID.TID 0000.0001)     ;
(PID.TID 0000.0001) LSR_mixIniGuess = /* mix free-drift sol. into LSR initial Guess */
(PID.TID 0000.0001)                      -1
(PID.TID 0000.0001)     ;
(PID.TID 0000.0001) SEAICE_LSRrelaxU  = /* LSR solver: relaxation parameter */
(PID.TID 0000.0001)                 9.500000000000000E-01
(PID.TID 0000.0001)     ;
(PID.TID 0000.0001) SEAICE_LSRrelaxV  = /* LSR solver: relaxation parameter */
(PID.TID 0000.0001)                 9.500000000000000E-01
(PID.TID 0000.0001)     ;
(PID.TID 0000.0001) LSR_ERROR         = /* sets accuracy of LSR solver */
(PID.TID 0000.0001)                 1.000000000000000E-04
(PID.TID 0000.0001)     ;
(PID.TID 0000.0001) SOLV_NCHECK       = /* test interval for LSR solver */
(PID.TID 0000.0001)                       2
(PID.TID 0000.0001)     ;
(PID.TID 0000.0001) SEAICEuseMultiTileSolver = /* use full domain tri-diag solver */
(PID.TID 0000.0001)                   F
(PID.TID 0000.0001)     ;
(PID.TID 0000.0001) SEAICE_OLx = /* overlap for LSR/preconditioner */
(PID.TID 0000.0001)                       0
(PID.TID 0000.0001)     ;
(PID.TID 0000.0001) SEAICE_OLy = /* overlap for LSR/preconditioner */
(PID.TID 0000.0001)                       0
(PID.TID 0000.0001)     ;
(PID.TID 0000.0001) SEAICEnonLinIterMax = /* max. number of nonlinear solver steps */
(PID.TID 0000.0001)                       2
(PID.TID 0000.0001)     ;
(PID.TID 0000.0001) SEAICElinearIterMax = /* max. number of linear solver steps */
(PID.TID 0000.0001)                     500
(PID.TID 0000.0001)     ;
(PID.TID 0000.0001) SEAICEnonLinTol     = /* non-linear solver tolerance */
(PID.TID 0000.0001)                 0.000000000000000E+00
(PID.TID 0000.0001)     ;
(PID.TID 0000.0001) 
(PID.TID 0000.0001)    Seaice advection diffusion config,   > START <
(PID.TID 0000.0001)    -----------------------------------------------
(PID.TID 0000.0001) SEAICEmomAdvection = /* advect sea ice momentum */
(PID.TID 0000.0001)                   F
(PID.TID 0000.0001)     ;
(PID.TID 0000.0001) SEAICEadvHeff = /* advect effective ice thickness */
(PID.TID 0000.0001)                   T
(PID.TID 0000.0001)     ;
(PID.TID 0000.0001) SEAICEadvArea = /* advect fractional ice area */
(PID.TID 0000.0001)                   T
(PID.TID 0000.0001)     ;
(PID.TID 0000.0001) SEAICEadvSnow = /* advect snow layer together with ice */
(PID.TID 0000.0001)                   T
(PID.TID 0000.0001)     ;
(PID.TID 0000.0001) SEAICEadvScheme   = /* advection scheme for ice */
(PID.TID 0000.0001)                      77
(PID.TID 0000.0001)     ;
(PID.TID 0000.0001) SEAICEadvSchArea   = /* advection scheme for area */
(PID.TID 0000.0001)                      77
(PID.TID 0000.0001)     ;
(PID.TID 0000.0001) SEAICEadvSchHeff   = /* advection scheme for thickness */
(PID.TID 0000.0001)                      77
(PID.TID 0000.0001)     ;
(PID.TID 0000.0001) SEAICEadvSchSnow   = /* advection scheme for snow */
(PID.TID 0000.0001)                      77
(PID.TID 0000.0001)     ;
(PID.TID 0000.0001) SEAICEdiffKhArea   = /* diffusivity (m^2/s) for area */
(PID.TID 0000.0001)                 0.000000000000000E+00
(PID.TID 0000.0001)     ;
(PID.TID 0000.0001) SEAICEdiffKhHeff   = /* diffusivity (m^2/s) for heff */
(PID.TID 0000.0001)                 0.000000000000000E+00
(PID.TID 0000.0001)     ;
(PID.TID 0000.0001) SEAICEdiffKhSnow   = /* diffusivity (m^2/s) for snow */
(PID.TID 0000.0001)                 0.000000000000000E+00
(PID.TID 0000.0001)     ;
(PID.TID 0000.0001) DIFF1             = /* parameter used in advect.F [m/s] */
(PID.TID 0000.0001)                 0.000000000000000E+00
(PID.TID 0000.0001)     ;
(PID.TID 0000.0001) 
(PID.TID 0000.0001)    Seaice thermodynamics configuration   > START <
(PID.TID 0000.0001)    -----------------------------------------------
(PID.TID 0000.0001) SEAICE_rhoIce     = /* density of sea ice (kg/m3) */
(PID.TID 0000.0001)                 9.100000000000000E+02
(PID.TID 0000.0001)     ;
(PID.TID 0000.0001) SEAICE_rhoSnow    = /* density of snow (kg/m3) */
(PID.TID 0000.0001)                 3.300000000000000E+02
(PID.TID 0000.0001)     ;
(PID.TID 0000.0001) SEAICE_rhoAir     = /* density of air (kg/m3) */
(PID.TID 0000.0001)                 1.300000000000000E+00
(PID.TID 0000.0001)     ;
(PID.TID 0000.0001) usePW79thermodynamics  = /* default 0-layer TD */
(PID.TID 0000.0001)                   F
(PID.TID 0000.0001)     ;
(PID.TID 0000.0001)    pkg/seaice thermodynamics is OFF
(PID.TID 0000.0001) 
(PID.TID 0000.0001)    Seaice initialization and IO config.,   > START <
(PID.TID 0000.0001)    -------------------------------------------------
(PID.TID 0000.0001) SEAICE_initialHEFF= /* initial sea-ice thickness */
(PID.TID 0000.0001)                 0.000000000000000E+00
(PID.TID 0000.0001)     ;
(PID.TID 0000.0001) AreaFile = /* Initial ice concentration File */
(PID.TID 0000.0001)               ''
(PID.TID 0000.0001)     ;
(PID.TID 0000.0001) HeffFile = /* Initial effective ice thickness File */
(PID.TID 0000.0001)               ''
(PID.TID 0000.0001)     ;
(PID.TID 0000.0001) HsnowFile = /* Initial snow thickness File */
(PID.TID 0000.0001)               ''
(PID.TID 0000.0001)     ;
(PID.TID 0000.0001) uIceFile = /* Initial U-ice velocity File */
(PID.TID 0000.0001)               ''
(PID.TID 0000.0001)     ;
(PID.TID 0000.0001) vIceFile = /* Initial V-ice velocity File */
(PID.TID 0000.0001)               ''
(PID.TID 0000.0001)     ;
(PID.TID 0000.0001) SEAICEwriteState  = /* write sea ice state to file */
(PID.TID 0000.0001)                   T
(PID.TID 0000.0001)     ;
(PID.TID 0000.0001) SEAICE_monFreq  = /* monitor frequency */
(PID.TID 0000.0001)                 9.000000000000000E+02
(PID.TID 0000.0001)     ;
(PID.TID 0000.0001) SEAICE_dumpFreq   = /* dump frequency */
(PID.TID 0000.0001)                 3.600000000000000E+03
(PID.TID 0000.0001)     ;
(PID.TID 0000.0001) SEAICE_taveFreq   = /* time-averaging frequency */
(PID.TID 0000.0001)                 0.000000000000000E+00
(PID.TID 0000.0001)     ;
(PID.TID 0000.0001) SEAICE_mon_stdio  = /* write monitor to std-outp */
(PID.TID 0000.0001)                   T
(PID.TID 0000.0001)     ;
(PID.TID 0000.0001) SEAICE_dump_mdsio = /* write snap-shot   using MDSIO */
(PID.TID 0000.0001)                   T
(PID.TID 0000.0001)     ;
(PID.TID 0000.0001) SEAICE_tave_mdsio = /* write TimeAverage using MDSIO */
(PID.TID 0000.0001)                   T
(PID.TID 0000.0001)     ;
(PID.TID 0000.0001) 
(PID.TID 0000.0001)    Seaice regularization numbers,   > START <
(PID.TID 0000.0001)    -----------------------------------------------
(PID.TID 0000.0001) SEAICE_deltaMin   = /* reduce singularities in Delta */
(PID.TID 0000.0001)                 1.000000000000000E-10
(PID.TID 0000.0001)     ;
(PID.TID 0000.0001) SEAICE_EPS        = /* small number */
(PID.TID 0000.0001)                 1.000000000000000E-10
(PID.TID 0000.0001)     ;
(PID.TID 0000.0001) SEAICE_EPS_SQ     = /* small number squared */
(PID.TID 0000.0001)                 1.000000000000000E-20
(PID.TID 0000.0001)     ;
(PID.TID 0000.0001) SEAICE_area_reg   = /* reduce derivative singularities */
(PID.TID 0000.0001)                 1.000000000000000E-05
(PID.TID 0000.0001)     ;
(PID.TID 0000.0001) SEAICE_hice_reg   = /* reduce derivative singularities */
(PID.TID 0000.0001)                 5.000000000000000E-02
(PID.TID 0000.0001)     ;
(PID.TID 0000.0001) SEAICE_area_floor = /* reduce derivative singularities */
(PID.TID 0000.0001)                 1.000000000000000E-05
(PID.TID 0000.0001)     ;
(PID.TID 0000.0001) 
(PID.TID 0000.0001) // =======================================================
(PID.TID 0000.0001) // Seaice configuration (SEAICE_PARM01) >>> END <<<
(PID.TID 0000.0001) // =======================================================
(PID.TID 0000.0001) 
(PID.TID 0000.0001) ------------------------------------------------------------
(PID.TID 0000.0001) DIAGNOSTICS_SET_LEVELS: done
(PID.TID 0000.0001)  Total Nb of available Diagnostics: ndiagt=   290
(PID.TID 0000.0001) SETDIAG: Allocate  1 x  1 Levels for Diagnostic #    80 oceTAUX
(PID.TID 0000.0001) SETDIAG: Allocate  1 x  1 Levels for Diagnostic #    81 oceTAUY
(PID.TID 0000.0001) SETDIAG: Allocate  1 x  1 Levels for Diagnostic #    84 oceFWflx
(PID.TID 0000.0001) SETDIAG: Allocate  1 x  1 Levels for Diagnostic #    85 oceSflux
(PID.TID 0000.0001) SETDIAG: Allocate  1 x  1 Levels for Diagnostic #    86 oceQnet
(PID.TID 0000.0001) SETDIAG: Allocate  1 x  1 Levels for Diagnostic #    87 oceQsw
(PID.TID 0000.0001) SETDIAG: Allocate  1 x  1 Levels for Diagnostic #    23 ETAN
(PID.TID 0000.0001) SETDIAG: Allocate  1 x  1 Levels for Diagnostic #    82 atmPload
(PID.TID 0000.0001) SETDIAG: Allocate 15 x  1 Levels for Diagnostic #    27 SALT
(PID.TID 0000.0001) SETDIAG: Allocate 15 x  1 Levels for Diagnostic #    26 THETA
(PID.TID 0000.0001) SETDIAG: Allocate 15 x  1 Levels for Diagnostic #    45 UVELMASS
(PID.TID 0000.0001) SETDIAG: Allocate 15 x  1 Levels for Diagnostic #    46 VVELMASS
(PID.TID 0000.0001) SETDIAG: Allocate 15 x  1 Levels for Diagnostic #    47 WVELMASS
(PID.TID 0000.0001) SETDIAG: Allocate 15 x  1 Levels for Diagnostic #   114 DFxE_TH
(PID.TID 0000.0001) SETDIAG: Allocate 15 x  1 Levels for Diagnostic #   115 DFyE_TH
(PID.TID 0000.0001) SETDIAG: Allocate 15 x  1 Levels for Diagnostic #   111 ADVx_TH
(PID.TID 0000.0001) SETDIAG: Allocate 15 x  1 Levels for Diagnostic #   112 ADVy_TH
(PID.TID 0000.0001) SETDIAG: Allocate 15 x  1 Levels for Diagnostic #   121 DFxE_SLT
(PID.TID 0000.0001) SETDIAG: Allocate 15 x  1 Levels for Diagnostic #   122 DFyE_SLT
(PID.TID 0000.0001) SETDIAG: Allocate 15 x  1 Levels for Diagnostic #   118 ADVx_SLT
(PID.TID 0000.0001) SETDIAG: Allocate 15 x  1 Levels for Diagnostic #   119 ADVy_SLT
(PID.TID 0000.0001) SETDIAG: Allocate 15 x  1 Levels for Diagnostic #   110 ADVr_TH
(PID.TID 0000.0001) SETDIAG: Allocate 15 x  1 Levels for Diagnostic #   113 DFrE_TH
(PID.TID 0000.0001) SETDIAG: Allocate 15 x  1 Levels for Diagnostic #   116 DFrI_TH
(PID.TID 0000.0001) SETDIAG: Allocate 15 x  1 Levels for Diagnostic #   117 ADVr_SLT
(PID.TID 0000.0001) SETDIAG: Allocate 15 x  1 Levels for Diagnostic #   120 DFrE_SLT
(PID.TID 0000.0001) SETDIAG: Allocate 15 x  1 Levels for Diagnostic #   123 DFrI_SLT
(PID.TID 0000.0001) SETDIAG: Allocate  1 x  1 Levels for Diagnostic #   204 SIarea
(PID.TID 0000.0001) SETDIAG: Allocate  1 x  1 Levels for Diagnostic #   207 SIheff
(PID.TID 0000.0001) SETDIAG: Allocate  1 x  1 Levels for Diagnostic #   209 SIhsnow
(PID.TID 0000.0001) SETDIAG: Allocate  1 x  1 Levels for Diagnostic #    83 sIceLoad
(PID.TID 0000.0001) SETDIAG: Allocate  1 x  1 Levels for Diagnostic #   213 SIuice
(PID.TID 0000.0001) SETDIAG: Allocate  1 x  1 Levels for Diagnostic #   214 SIvice
(PID.TID 0000.0001) SETDIAG: Allocate  1 x  1 Levels for Diagnostic #   215 SItaux
(PID.TID 0000.0001) SETDIAG: Allocate  1 x  1 Levels for Diagnostic #   216 SItauy
(PID.TID 0000.0001) SETDIAG: Allocate  1 x  1 Levels for Diagnostic #   248 ADVxHEFF
(PID.TID 0000.0001) SETDIAG: Allocate  1 x  1 Levels for Diagnostic #   249 ADVyHEFF
(PID.TID 0000.0001) SETDIAG: Allocate  1 x  1 Levels for Diagnostic #   252 ADVxAREA
(PID.TID 0000.0001) SETDIAG: Allocate  1 x  1 Levels for Diagnostic #   253 ADVyAREA
(PID.TID 0000.0001) SETDIAG: Allocate  1 x  1 Levels for Diagnostic #   256 ADVxSNOW
(PID.TID 0000.0001) SETDIAG: Allocate  1 x  1 Levels for Diagnostic #   257 ADVySNOW
(PID.TID 0000.0001) SETDIAG: Allocate  1 x  1 Levels for Diagnostic #   277 CPLoWGHT
(PID.TID 0000.0001) SETDIAG: Allocate  5 x  1 Levels for Diagnostic #   275 SIareaN
(PID.TID 0000.0001) SETDIAG: Allocate  5 x  1 Levels for Diagnostic #   274 SIheffN
(PID.TID 0000.0001) SETDIAG: Allocate  5 x  1 Levels for Diagnostic #   276 SIhsnowN
(PID.TID 0000.0001) SETDIAG: Allocate  5 x  1 Levels for Diagnostic #   283 SI_dArea
(PID.TID 0000.0001) SETDIAG: Allocate  5 x  1 Levels for Diagnostic #   284 SI_dHeff
(PID.TID 0000.0001) SETDIAG: Allocate  5 x  1 Levels for Diagnostic #   285 SI_dHsnw
(PID.TID 0000.0001) SETDIAG: Allocate 20 x  1 Levels for Diagnostic #   279 SIqIce
(PID.TID 0000.0001) SETDIAG: Allocate 20 x  1 Levels for Diagnostic #   287 SI_dQIce
(PID.TID 0000.0001) SETDIAG: Allocate  5 x  1 Levels for Diagnostic #   280 SIqSnow
(PID.TID 0000.0001) SETDIAG: Allocate  5 x  1 Levels for Diagnostic #   288 SI_dQSnw
(PID.TID 0000.0001)   space allocated for all diagnostics:     388 levels
(PID.TID 0000.0001)   set mate pointer for diag #    80  oceTAUX  , Parms: UU      U1 , mate:    81
(PID.TID 0000.0001)   set mate pointer for diag #    81  oceTAUY  , Parms: VV      U1 , mate:    80
(PID.TID 0000.0001)   set mate pointer for diag #    45  UVELMASS , Parms: UUr     MR , mate:    46
(PID.TID 0000.0001)   set mate pointer for diag #    46  VVELMASS , Parms: VVr     MR , mate:    45
(PID.TID 0000.0001)   set mate pointer for diag #   114  DFxE_TH  , Parms: UU      MR , mate:   115
(PID.TID 0000.0001)   set mate pointer for diag #   115  DFyE_TH  , Parms: VV      MR , mate:   114
(PID.TID 0000.0001)   set mate pointer for diag #   111  ADVx_TH  , Parms: UU      MR , mate:   112
(PID.TID 0000.0001)   set mate pointer for diag #   112  ADVy_TH  , Parms: VV      MR , mate:   111
(PID.TID 0000.0001)   set mate pointer for diag #   121  DFxE_SLT , Parms: UU      MR , mate:   122
(PID.TID 0000.0001)   set mate pointer for diag #   122  DFyE_SLT , Parms: VV      MR , mate:   121
(PID.TID 0000.0001)   set mate pointer for diag #   118  ADVx_SLT , Parms: UU      MR , mate:   119
(PID.TID 0000.0001)   set mate pointer for diag #   119  ADVy_SLT , Parms: VV      MR , mate:   118
(PID.TID 0000.0001)   set mate pointer for diag #   213  SIuice   , Parms: UU      M1 , mate:   214
(PID.TID 0000.0001)   set mate pointer for diag #   214  SIvice   , Parms: VV      M1 , mate:   213
(PID.TID 0000.0001)   set mate pointer for diag #   215  SItaux   , Parms: UU      U1 , mate:   216
(PID.TID 0000.0001)   set mate pointer for diag #   216  SItauy   , Parms: VV      U1 , mate:   215
(PID.TID 0000.0001)   set mate pointer for diag #   248  ADVxHEFF , Parms: UU      M1 , mate:   249
(PID.TID 0000.0001)   set mate pointer for diag #   249  ADVyHEFF , Parms: VV      M1 , mate:   248
(PID.TID 0000.0001)   set mate pointer for diag #   252  ADVxAREA , Parms: UU      M1 , mate:   253
(PID.TID 0000.0001)   set mate pointer for diag #   253  ADVyAREA , Parms: VV      M1 , mate:   252
(PID.TID 0000.0001)   set mate pointer for diag #   256  ADVxSNOW , Parms: UU      M1 , mate:   257
(PID.TID 0000.0001)   set mate pointer for diag #   257  ADVySNOW , Parms: VV      M1 , mate:   256
(PID.TID 0000.0001) DIAGNOSTICS_SET_POINTERS: Set levels for Outp.Stream: state_2d_set1
(PID.TID 0000.0001)  Levels:       1.
(PID.TID 0000.0001) DIAGNOSTICS_SET_POINTERS: Set levels for Outp.Stream: state_3d_set1
(PID.TID 0000.0001)  Levels:       1.   2.   3.   4.   5.   6.   7.   8.   9.  10.  11.  12.  13.  14.  15.
(PID.TID 0000.0001) DIAGNOSTICS_SET_POINTERS: Set levels for Outp.Stream: state_3d_set2
(PID.TID 0000.0001)  Levels:       1.   2.   3.   4.   5.   6.   7.   8.   9.  10.  11.  12.  13.  14.  15.
(PID.TID 0000.0001) DIAGNOSTICS_SET_POINTERS: Set levels for Outp.Stream: state_3d_set4
(PID.TID 0000.0001)  Levels:       1.   2.   3.   4.   5.   6.   7.   8.   9.  10.  11.  12.  13.  14.  15.
(PID.TID 0000.0001) DIAGNOSTICS_SET_POINTERS: Set levels for Outp.Stream: iceDiag
(PID.TID 0000.0001)  Levels:       1.
(PID.TID 0000.0001) DIAGNOSTICS_SET_POINTERS: Set levels for Outp.Stream: iceNcat
(PID.TID 0000.0001)  Levels:       1.   2.   3.   4.   5.
(PID.TID 0000.0001) DIAGNOSTICS_SET_POINTERS: Set levels for Outp.Stream: iceEnerg
(PID.TID 0000.0001)  Levels:       1.   2.   3.   4.   5.   6.   7.   8.   9.  10.  11.  12.  13.  14.  15.  16.  17.  18.  19.  20.
(PID.TID 0000.0001) DIAGNOSTICS_SET_POINTERS: Set levels for Outp.Stream: snowEnerg
(PID.TID 0000.0001)  Levels:       1.   2.   3.   4.   5.
(PID.TID 0000.0001) DIAGNOSTICS_SET_POINTERS: done
(PID.TID 0000.0001) ------------------------------------------------------------
(PID.TID 0000.0001) DIAGSTATS_SET_REGIONS: define   0 regions:
(PID.TID 0000.0001) ------------------------------------------------------------
(PID.TID 0000.0001) SETDIAG: Allocate  1 Levels for Stats-Diag #    23 ETAN
(PID.TID 0000.0001) SETDIAG: Allocate 15 Levels for Stats-Diag #    26 THETA
(PID.TID 0000.0001) SETDIAG: Allocate 15 Levels for Stats-Diag #    27 SALT
(PID.TID 0000.0001) SETDIAG: Allocate  1 Levels for Stats-Diag #    86 oceQnet
(PID.TID 0000.0001) SETDIAG: Allocate  1 Levels for Stats-Diag #    84 oceFWflx
(PID.TID 0000.0001) SETDIAG: Allocate  1 Levels for Stats-Diag #    85 oceSflux
(PID.TID 0000.0001) SETDIAG: Allocate  1 Levels for Stats-Diag #   204 SIarea
(PID.TID 0000.0001) SETDIAG: Allocate  1 Levels for Stats-Diag #   207 SIheff
(PID.TID 0000.0001) SETDIAG: Allocate  1 Levels for Stats-Diag #   209 SIhsnow
(PID.TID 0000.0001) SETDIAG: Allocate  1 Levels for Stats-Diag #    83 sIceLoad
(PID.TID 0000.0001) SETDIAG: Allocate  1 Levels for Stats-Diag #   213 SIuice
(PID.TID 0000.0001) SETDIAG: Allocate  1 Levels for Stats-Diag #   214 SIvice
(PID.TID 0000.0001) SETDIAG: Allocate  1 Levels for Stats-Diag #   215 SItaux
(PID.TID 0000.0001) SETDIAG: Allocate  1 Levels for Stats-Diag #   216 SItauy
(PID.TID 0000.0001) SETDIAG: Allocate  5 Levels for Stats-Diag #   275 SIareaN
(PID.TID 0000.0001) SETDIAG: Allocate  5 Levels for Stats-Diag #   274 SIheffN
(PID.TID 0000.0001) SETDIAG: Allocate  5 Levels for Stats-Diag #   276 SIhsnowN
(PID.TID 0000.0001) SETDIAG: Allocate  5 Levels for Stats-Diag #   280 SIqSnow
(PID.TID 0000.0001) SETDIAG: Allocate 20 Levels for Stats-Diag #   279 SIqIce
(PID.TID 0000.0001) SETDIAG: Allocate  5 Levels for Stats-Diag #   283 SI_dArea
(PID.TID 0000.0001) SETDIAG: Allocate  5 Levels for Stats-Diag #   284 SI_dHeff
(PID.TID 0000.0001) SETDIAG: Allocate  5 Levels for Stats-Diag #   285 SI_dHsnw
(PID.TID 0000.0001) SETDIAG: Allocate  5 Levels for Stats-Diag #   288 SI_dQSnw
(PID.TID 0000.0001) SETDIAG: Allocate 20 Levels for Stats-Diag #   287 SI_dQIce
(PID.TID 0000.0001)   space allocated for all stats-diags:     122 levels
(PID.TID 0000.0001) DIAGSTATS_SET_POINTERS: done
(PID.TID 0000.0001) ------------------------------------------------------------
(PID.TID 0000.0001) DIAGSTATS_INI_IO: open file: dynStDiag.0000072000.txt , unit=    37
(PID.TID 0000.0001) DIAGSTATS_INI_IO: open file: iceStDiag.0000072000.txt , unit=    38
(PID.TID 0000.0001) INI_GLOBAL_DOMAIN: Found  19 CS-corner Pts in the domain
(PID.TID 0000.0001) %MON fCori_max                    =   1.4574827780704E-04
(PID.TID 0000.0001) %MON fCori_min                    =  -1.4574827780704E-04
(PID.TID 0000.0001) %MON fCori_mean                   =   0.0000000000000E+00
(PID.TID 0000.0001) %MON fCori_sd                     =   8.4202189509968E-05
(PID.TID 0000.0001) %MON fCoriG_max                   =   1.4584247033981E-04
(PID.TID 0000.0001) %MON fCoriG_min                   =  -1.4584247033981E-04
(PID.TID 0000.0001) %MON fCoriG_mean                  =   2.2587545260115E-21
(PID.TID 0000.0001) %MON fCoriG_sd                    =   8.4202189509968E-05
(PID.TID 0000.0001) %MON fCoriCos_max                 =   1.4580166994612E-04
(PID.TID 0000.0001) %MON fCoriCos_min                 =   5.2407700865903E-06
(PID.TID 0000.0001) %MON fCoriCos_mean                =   1.1514045869113E-04
(PID.TID 0000.0001) %MON fCoriCos_sd                  =   3.0375849106513E-05
(PID.TID 0000.0001) INI_CG2D: CG2D normalisation factor =  1.9156564154949553E-04
(PID.TID 0000.0001) 
(PID.TID 0000.0001) // =======================================================
(PID.TID 0000.0001) // Model configuration
(PID.TID 0000.0001) // =======================================================
(PID.TID 0000.0001) //
(PID.TID 0000.0001) // "Physical" paramters ( PARM01 in namelist )
(PID.TID 0000.0001) //
(PID.TID 0000.0001) buoyancyRelation = /* Type of relation to get Buoyancy */
(PID.TID 0000.0001)               'OCEANIC'
(PID.TID 0000.0001)     ;
(PID.TID 0000.0001) fluidIsAir   =  /* fluid major constituent is Air */
(PID.TID 0000.0001)                   F
(PID.TID 0000.0001)     ;
(PID.TID 0000.0001) fluidIsWater =  /* fluid major constituent is Water */
(PID.TID 0000.0001)                   T
(PID.TID 0000.0001)     ;
(PID.TID 0000.0001) usingPCoords =  /* use p (or p*) vertical coordinate */
(PID.TID 0000.0001)                   F
(PID.TID 0000.0001)     ;
(PID.TID 0000.0001) usingZCoords =  /* use z (or z*) vertical coordinate */
(PID.TID 0000.0001)                   T
(PID.TID 0000.0001)     ;
(PID.TID 0000.0001) tRef =   /* Reference temperature profile ( oC or K ) */
(PID.TID 0000.0001)    15 @  2.000000000000000E+01              /* K =  1: 15 */
(PID.TID 0000.0001)     ;
(PID.TID 0000.0001) sRef =   /* Reference salinity profile ( psu ) */
(PID.TID 0000.0001)    15 @  3.500000000000000E+01              /* K =  1: 15 */
(PID.TID 0000.0001)     ;
(PID.TID 0000.0001) useStrainTensionVisc= /* Use StrainTension Form of Viscous Operator */
(PID.TID 0000.0001)                   F
(PID.TID 0000.0001)     ;
(PID.TID 0000.0001) useVariableVisc = /* Use variable horizontal viscosity */
(PID.TID 0000.0001)                   T
(PID.TID 0000.0001)     ;
(PID.TID 0000.0001) useHarmonicVisc = /* Use harmonic horizontal viscosity */
(PID.TID 0000.0001)                   T
(PID.TID 0000.0001)     ;
(PID.TID 0000.0001) useBiharmonicVisc= /* Use biharmonic horiz.  viscosity */
(PID.TID 0000.0001)                   T
(PID.TID 0000.0001)     ;
(PID.TID 0000.0001) useSmag3D = /* Use isotropic 3-D Smagorinsky viscosity */
(PID.TID 0000.0001)                   F
(PID.TID 0000.0001)     ;
(PID.TID 0000.0001) viscAh  =   /* Lateral harmonic viscosity ( m^2/s ) */
(PID.TID 0000.0001)                 3.000000000000000E-05
(PID.TID 0000.0001)     ;
(PID.TID 0000.0001) viscAhMax = /* Maximum lateral harmonic viscosity ( m^2/s ) */
(PID.TID 0000.0001)                 1.000000000000000E+21
(PID.TID 0000.0001)     ;
(PID.TID 0000.0001) viscAhGrid = /* Grid dependent lateral harmonic viscosity ( non-dim. ) */
(PID.TID 0000.0001)                 0.000000000000000E+00
(PID.TID 0000.0001)     ;
(PID.TID 0000.0001) useFullLeith = /* Use Full Form of Leith Viscosity on/off flag*/
(PID.TID 0000.0001)                   F
(PID.TID 0000.0001)     ;
(PID.TID 0000.0001) useAreaViscLength = /* Use area for visc length instead of geom. mean*/
(PID.TID 0000.0001)                   T
(PID.TID 0000.0001)     ;
(PID.TID 0000.0001) viscC2leith = /* Leith harmonic visc. factor (on grad(vort),non-dim.) */
(PID.TID 0000.0001)                 0.000000000000000E+00
(PID.TID 0000.0001)     ;
(PID.TID 0000.0001) viscC2leithD = /* Leith harmonic viscosity factor (on grad(div),non-dim.)*/
(PID.TID 0000.0001)                 0.000000000000000E+00
(PID.TID 0000.0001)     ;
(PID.TID 0000.0001) viscC2smag = /* Smagorinsky harmonic viscosity factor (non-dim.) */
(PID.TID 0000.0001)                 0.000000000000000E+00
(PID.TID 0000.0001)     ;
(PID.TID 0000.0001) viscA4  =   /* Lateral biharmonic viscosity ( m^4/s ) */
(PID.TID 0000.0001)                 0.000000000000000E+00
(PID.TID 0000.0001)     ;
(PID.TID 0000.0001) viscA4Max = /* Maximum biharmonic viscosity ( m^2/s ) */
(PID.TID 0000.0001)                 1.000000000000000E+21
(PID.TID 0000.0001)     ;
(PID.TID 0000.0001) viscA4Grid = /* Grid dependent biharmonic viscosity ( non-dim. ) */
(PID.TID 0000.0001)                 0.000000000000000E+00
(PID.TID 0000.0001)     ;
(PID.TID 0000.0001) viscC4leith = /* Leith biharm viscosity factor (on grad(vort), non-dim.)*/
(PID.TID 0000.0001)                 2.000000000000000E+00
(PID.TID 0000.0001)     ;
(PID.TID 0000.0001) viscC4leithD = /* Leith biharm viscosity factor (on grad(div), non-dim.) */
(PID.TID 0000.0001)                 2.000000000000000E+00
(PID.TID 0000.0001)     ;
(PID.TID 0000.0001) viscC4Smag = /* Smagorinsky biharm viscosity factor (non-dim) */
(PID.TID 0000.0001)                 0.000000000000000E+00
(PID.TID 0000.0001)     ;
(PID.TID 0000.0001) no_slip_sides =  /* Viscous BCs: No-slip sides */
(PID.TID 0000.0001)                   F
(PID.TID 0000.0001)     ;
(PID.TID 0000.0001) sideDragFactor = /* side-drag scaling factor (non-dim) */
(PID.TID 0000.0001)                 0.000000000000000E+00
(PID.TID 0000.0001)     ;
(PID.TID 0000.0001) viscArNr = /* vertical profile of vertical viscosity ( m^2/s )*/
(PID.TID 0000.0001)    15 @  5.661400000000000E-04              /* K =  1: 15 */
(PID.TID 0000.0001)     ;
(PID.TID 0000.0001) no_slip_bottom =  /* Viscous BCs: No-slip bottom */
(PID.TID 0000.0001)                   T
(PID.TID 0000.0001)     ;
(PID.TID 0000.0001) bottomVisc_pCell = /* Partial-cell in bottom Visc. BC */
(PID.TID 0000.0001)                   F
(PID.TID 0000.0001)     ;
(PID.TID 0000.0001) bottomDragLinear = /* linear bottom-drag coefficient ( m/s ) */
(PID.TID 0000.0001)                 0.000000000000000E+00
(PID.TID 0000.0001)     ;
(PID.TID 0000.0001) bottomDragQuadratic = /* quadratic bottom-drag coefficient (-) */
(PID.TID 0000.0001)                 2.100000000000000E-03
(PID.TID 0000.0001)     ;
(PID.TID 0000.0001) selectBotDragQuadr = /* select quadratic bottom drag options */
(PID.TID 0000.0001)                       0
(PID.TID 0000.0001)     ;
(PID.TID 0000.0001) diffKhT =   /* Laplacian diffusion of heat laterally ( m^2/s ) */
(PID.TID 0000.0001)                 0.000000000000000E+00
(PID.TID 0000.0001)     ;
(PID.TID 0000.0001) diffK4T =   /* Biharmonic diffusion of heat laterally ( m^4/s ) */
(PID.TID 0000.0001)                 0.000000000000000E+00
(PID.TID 0000.0001)     ;
(PID.TID 0000.0001) diffKhS =   /* Laplacian diffusion of salt laterally ( m^2/s ) */
(PID.TID 0000.0001)                 0.000000000000000E+00
(PID.TID 0000.0001)     ;
(PID.TID 0000.0001) diffK4S =   /* Biharmonic diffusion of salt laterally ( m^4/s ) */
(PID.TID 0000.0001)                 0.000000000000000E+00
(PID.TID 0000.0001)     ;
(PID.TID 0000.0001) diffKrNrT = /* vertical profile of vertical diffusion of Temp ( m^2/s )*/
(PID.TID 0000.0001)    15 @  5.440000000000000E-07              /* K =  1: 15 */
(PID.TID 0000.0001)     ;
(PID.TID 0000.0001) diffKrNrS = /* vertical profile of vertical diffusion of Salt ( m^2/s )*/
(PID.TID 0000.0001)    15 @  5.440000000000000E-07              /* K =  1: 15 */
(PID.TID 0000.0001)     ;
(PID.TID 0000.0001) diffKrBL79surf = /* Surface diffusion for Bryan and Lewis 79 ( m^2/s ) */
(PID.TID 0000.0001)                 0.000000000000000E+00
(PID.TID 0000.0001)     ;
(PID.TID 0000.0001) diffKrBL79deep = /* Deep diffusion for Bryan and Lewis 1979 ( m^2/s ) */
(PID.TID 0000.0001)                 0.000000000000000E+00
(PID.TID 0000.0001)     ;
(PID.TID 0000.0001) diffKrBL79scl = /* Depth scale for Bryan and Lewis 1979 ( m ) */
(PID.TID 0000.0001)                 2.000000000000000E+02
(PID.TID 0000.0001)     ;
(PID.TID 0000.0001) diffKrBL79Ho = /* Turning depth for Bryan and Lewis 1979 ( m ) */
(PID.TID 0000.0001)                -2.000000000000000E+03
(PID.TID 0000.0001)     ;
(PID.TID 0000.0001) ivdc_kappa = /* Implicit Vertical Diffusivity for Convection ( m^2/s) */
(PID.TID 0000.0001)                 0.000000000000000E+00
(PID.TID 0000.0001)     ;
(PID.TID 0000.0001) hMixCriteria=  /* Criteria for mixed-layer diagnostic */
(PID.TID 0000.0001)                -8.000000000000000E-01
(PID.TID 0000.0001)     ;
(PID.TID 0000.0001) dRhoSmall =  /* Parameter for mixed-layer diagnostic */
(PID.TID 0000.0001)                 1.000000000000000E-06
(PID.TID 0000.0001)     ;
(PID.TID 0000.0001) hMixSmooth=  /* Smoothing parameter for mixed-layer diagnostic */
(PID.TID 0000.0001)                 0.000000000000000E+00
(PID.TID 0000.0001)     ;
(PID.TID 0000.0001) eosType =  /* Type of Equation of State */
(PID.TID 0000.0001)               'JMD95Z'
(PID.TID 0000.0001)     ;
(PID.TID 0000.0001) selectP_inEOS_Zc = /* select pressure to use in EOS (0,1,2,3) */
(PID.TID 0000.0001)                       0
(PID.TID 0000.0001)     0= -g*rhoConst*z ; 1= pRef (from tRef,sRef); 2= Hyd P ; 3= Hyd+NH P
(PID.TID 0000.0001)     ;
(PID.TID 0000.0001) HeatCapacity_Cp =  /* Specific heat capacity ( J/kg/K ) */
(PID.TID 0000.0001)                 3.994000000000000E+03
(PID.TID 0000.0001)     ;
(PID.TID 0000.0001) celsius2K = /* 0 degree Celsius converted to Kelvin ( K ) */
(PID.TID 0000.0001)                 2.731500000000000E+02
(PID.TID 0000.0001)     ;
(PID.TID 0000.0001) rhoConst  = /* Reference density (Boussinesq)  ( kg/m^3 ) */
(PID.TID 0000.0001)                 1.027500000000000E+03
(PID.TID 0000.0001)     ;
(PID.TID 0000.0001) rhoFacC = /* normalized Reference density @ cell-Center (-) */
(PID.TID 0000.0001)    15 @  1.000000000000000E+00              /* K =  1: 15 */
(PID.TID 0000.0001)     ;
(PID.TID 0000.0001) rhoFacF = /* normalized Reference density @ W-Interface (-) */
(PID.TID 0000.0001)    16 @  1.000000000000000E+00              /* K =  1: 16 */
(PID.TID 0000.0001)     ;
(PID.TID 0000.0001) rhoConstFresh = /* Fresh-water reference density ( kg/m^3 ) */
(PID.TID 0000.0001)                 9.998000000000000E+02
(PID.TID 0000.0001)     ;
(PID.TID 0000.0001) gravity =   /* Gravitational acceleration ( m/s^2 ) */
(PID.TID 0000.0001)                 9.810000000000000E+00
(PID.TID 0000.0001)     ;
(PID.TID 0000.0001) gBaro =   /* Barotropic gravity ( m/s^2 ) */
(PID.TID 0000.0001)                 9.810000000000000E+00
(PID.TID 0000.0001)     ;
(PID.TID 0000.0001) gravFacC = /* gravity factor (vs surf.) @ cell-Center (-) */
(PID.TID 0000.0001)    15 @  1.000000000000000E+00              /* K =  1: 15 */
(PID.TID 0000.0001)     ;
(PID.TID 0000.0001) gravFacF = /* gravity factor (vs surf.) @ W-Interface (-) */
(PID.TID 0000.0001)    16 @  1.000000000000000E+00              /* K =  1: 16 */
(PID.TID 0000.0001)     ;
(PID.TID 0000.0001) rotationPeriod =   /* Rotation Period ( s ) */
(PID.TID 0000.0001)                 8.616400000000000E+04
(PID.TID 0000.0001)     ;
(PID.TID 0000.0001) omega =   /* Angular velocity ( rad/s ) */
(PID.TID 0000.0001)                 7.292123516990375E-05
(PID.TID 0000.0001)     ;
(PID.TID 0000.0001) f0 =   /* Reference coriolis parameter ( 1/s ) */
(PID.TID 0000.0001)                 1.000000000000000E-04
(PID.TID 0000.0001)     ;
(PID.TID 0000.0001) beta =   /* Beta ( 1/(m.s) ) */
(PID.TID 0000.0001)                 9.999999999999999E-12
(PID.TID 0000.0001)     ;
(PID.TID 0000.0001) fPrime =   /* Second coriolis parameter ( 1/s ) */
(PID.TID 0000.0001)                 0.000000000000000E+00
(PID.TID 0000.0001)     ;
(PID.TID 0000.0001) rigidLid =   /* Rigid lid on/off flag */
(PID.TID 0000.0001)                   F
(PID.TID 0000.0001)     ;
(PID.TID 0000.0001) implicitFreeSurface =   /* Implicit free surface on/off flag */
(PID.TID 0000.0001)                   T
(PID.TID 0000.0001)     ;
(PID.TID 0000.0001) freeSurfFac =   /* Implicit free surface factor */
(PID.TID 0000.0001)                 1.000000000000000E+00
(PID.TID 0000.0001)     ;
(PID.TID 0000.0001) implicSurfPress =  /* Surface Pressure implicit factor (0-1)*/
(PID.TID 0000.0001)                 1.000000000000000E+00
(PID.TID 0000.0001)     ;
(PID.TID 0000.0001) implicDiv2DFlow =  /* Barot. Flow Div. implicit factor (0-1)*/
(PID.TID 0000.0001)                 1.000000000000000E+00
(PID.TID 0000.0001)     ;
(PID.TID 0000.0001) uniformLin_PhiSurf = /* use uniform Bo_surf on/off flag*/
(PID.TID 0000.0001)                   T
(PID.TID 0000.0001)     ;
(PID.TID 0000.0001) uniformFreeSurfLev = /* free-surface level-index is uniform */
(PID.TID 0000.0001)                   T
(PID.TID 0000.0001)     ;
(PID.TID 0000.0001) hFacMin =   /* minimum partial cell factor (hFac) */
(PID.TID 0000.0001)                 3.000000000000000E-01
(PID.TID 0000.0001)     ;
(PID.TID 0000.0001) hFacMinDr = /* minimum partial cell thickness ( m) */
(PID.TID 0000.0001)                 0.000000000000000E+00
(PID.TID 0000.0001)     ;
(PID.TID 0000.0001) exactConserv =  /* Exact Volume Conservation on/off flag*/
(PID.TID 0000.0001)                   T
(PID.TID 0000.0001)     ;
(PID.TID 0000.0001) linFSConserveTr = /* Tracer correction for Lin Free Surface on/off flag*/
(PID.TID 0000.0001)                   F
(PID.TID 0000.0001)     ;
(PID.TID 0000.0001) nonlinFreeSurf = /* Non-linear Free Surf. options (-1,0,1,2,3)*/
(PID.TID 0000.0001)                       0
(PID.TID 0000.0001)      -1,0= Off ; 1,2,3= On, 2=+rescale gU,gV, 3=+update cg2d solv.
(PID.TID 0000.0001)     ;
(PID.TID 0000.0001) hFacInf =   /* lower threshold for hFac (nonlinFreeSurf only)*/
(PID.TID 0000.0001)                 1.000000000000000E-01
(PID.TID 0000.0001)     ;
(PID.TID 0000.0001) hFacSup =   /* upper threshold for hFac (nonlinFreeSurf only)*/
(PID.TID 0000.0001)                 5.000000000000000E+00
(PID.TID 0000.0001)     ;
(PID.TID 0000.0001) select_rStar = /* r* Vertical coord. options (=0 r coord.; >0 uses r*)*/
(PID.TID 0000.0001)                       0
(PID.TID 0000.0001)     ;
(PID.TID 0000.0001) useRealFreshWaterFlux = /* Real Fresh Water Flux on/off flag*/
(PID.TID 0000.0001)                   T
(PID.TID 0000.0001)     ;
(PID.TID 0000.0001) temp_EvPrRn = /* Temp. of Evap/Prec/R (UNSET=use local T)(oC)*/
(PID.TID 0000.0001)                 0.000000000000000E+00
(PID.TID 0000.0001)     ;
(PID.TID 0000.0001) salt_EvPrRn = /* Salin. of Evap/Prec/R (UNSET=use local S)(psu)*/
(PID.TID 0000.0001)                 0.000000000000000E+00
(PID.TID 0000.0001)     ;
(PID.TID 0000.0001) selectAddFluid = /* option for mass source/sink of fluid (=0: off) */
(PID.TID 0000.0001)                       0
(PID.TID 0000.0001)     ;
(PID.TID 0000.0001) temp_addMass = /* Temp. of addMass array (UNSET=use local T)(oC)*/
(PID.TID 0000.0001)                 0.000000000000000E+00
(PID.TID 0000.0001)     ;
(PID.TID 0000.0001) salt_addMass = /* Salin. of addMass array (UNSET=use local S)(psu)*/
(PID.TID 0000.0001)                 0.000000000000000E+00
(PID.TID 0000.0001)     ;
(PID.TID 0000.0001) convertFW2Salt = /* convert F.W. Flux to Salt Flux (-1=use local S)(psu)*/
(PID.TID 0000.0001)                -1.000000000000000E+00
(PID.TID 0000.0001)     ;
(PID.TID 0000.0001) use3Dsolver = /* use 3-D pressure solver on/off flag */
(PID.TID 0000.0001)                   F
(PID.TID 0000.0001)     ;
(PID.TID 0000.0001) nonHydrostatic =  /* Non-Hydrostatic on/off flag */
(PID.TID 0000.0001)                   F
(PID.TID 0000.0001)     ;
(PID.TID 0000.0001) nh_Am2 = /* Non-Hydrostatic terms scaling factor */
(PID.TID 0000.0001)                 1.000000000000000E+00
(PID.TID 0000.0001)     ;
(PID.TID 0000.0001) implicitNHPress = /* Non-Hyd Pressure implicit factor (0-1)*/
(PID.TID 0000.0001)                 1.000000000000000E+00
(PID.TID 0000.0001)     ;
(PID.TID 0000.0001) selectNHfreeSurf = /* Non-Hyd (free-)Surface option */
(PID.TID 0000.0001)                       0
(PID.TID 0000.0001)     ;
(PID.TID 0000.0001) quasiHydrostatic = /* Quasi-Hydrostatic on/off flag */
(PID.TID 0000.0001)                   F
(PID.TID 0000.0001)     ;
(PID.TID 0000.0001) calc_wVelocity = /* vertical velocity calculation on/off flag */
(PID.TID 0000.0001)                   T
(PID.TID 0000.0001)     ;
(PID.TID 0000.0001) momStepping =  /* Momentum equation on/off flag */
(PID.TID 0000.0001)                   T
(PID.TID 0000.0001)     ;
(PID.TID 0000.0001) vectorInvariantMomentum= /* Vector-Invariant Momentum on/off */
(PID.TID 0000.0001)                   T
(PID.TID 0000.0001)     ;
(PID.TID 0000.0001) momAdvection =  /* Momentum advection on/off flag */
(PID.TID 0000.0001)                   T
(PID.TID 0000.0001)     ;
(PID.TID 0000.0001) momViscosity =  /* Momentum viscosity on/off flag */
(PID.TID 0000.0001)                   T
(PID.TID 0000.0001)     ;
(PID.TID 0000.0001) momImplVertAdv= /* Momentum implicit vert. advection on/off*/
(PID.TID 0000.0001)                   F
(PID.TID 0000.0001)     ;
(PID.TID 0000.0001) implicitViscosity = /* Implicit viscosity on/off flag */
(PID.TID 0000.0001)                   T
(PID.TID 0000.0001)     ;
(PID.TID 0000.0001) selectImplicitDrag= /* Implicit bot Drag options (0,1,2)*/
(PID.TID 0000.0001)                       0
(PID.TID 0000.0001)     0= Expl. ; 1= Impl. on provis. Vel ; 2= Fully Impl (with surf.P)
(PID.TID 0000.0001)     ;
(PID.TID 0000.0001) metricTerms =  /* metric-Terms on/off flag */
(PID.TID 0000.0001)                   F
(PID.TID 0000.0001)     ;
(PID.TID 0000.0001) useNHMTerms = /* Non-Hydrostatic Metric-Terms on/off */
(PID.TID 0000.0001)                   F
(PID.TID 0000.0001)     ;
(PID.TID 0000.0001) selectCoriMap = /* Coriolis Map options (0,1,2,3)*/
(PID.TID 0000.0001)                       2
(PID.TID 0000.0001)     0= f-Plane ; 1= Beta-Plane ; 2= Spherical ; 3= read from file
(PID.TID 0000.0001)     ;
(PID.TID 0000.0001) use3dCoriolis = /* 3-D Coriolis on/off flag */
(PID.TID 0000.0001)                   F
(PID.TID 0000.0001)     ;
(PID.TID 0000.0001) useCoriolis =  /* Coriolis on/off flag */
(PID.TID 0000.0001)                   T
(PID.TID 0000.0001)     ;
(PID.TID 0000.0001) useCDscheme =  /* CD scheme on/off flag */
(PID.TID 0000.0001)                   F
(PID.TID 0000.0001)     ;
(PID.TID 0000.0001) useEnergyConservingCoriolis= /* Flx-Form Coriolis scheme flag */
(PID.TID 0000.0001)                   F
(PID.TID 0000.0001)     ;
(PID.TID 0000.0001) useJamartWetPoints= /* Coriolis WetPoints method flag */
(PID.TID 0000.0001)                   F
(PID.TID 0000.0001)     ;
(PID.TID 0000.0001) useJamartMomAdv= /* V.I Non-linear terms Jamart flag */
(PID.TID 0000.0001)                   F
(PID.TID 0000.0001)     ;
(PID.TID 0000.0001) useAbsVorticity= /* V.I Works with f+zeta in Coriolis */
(PID.TID 0000.0001)                   F
(PID.TID 0000.0001)     ;
(PID.TID 0000.0001) selectVortScheme= /* V.I Scheme selector for Vorticity-Term */
(PID.TID 0000.0001)                       0
(PID.TID 0000.0001)    = 0 : enstrophy (Shallow-Water Eq.) conserving scheme by Sadourny, JAS 75
(PID.TID 0000.0001)    = 1 : same as 0 with modified hFac
(PID.TID 0000.0001)    = 2 : energy conserving scheme (used by Sadourny in JAS 75 paper)
(PID.TID 0000.0001)    = 3 : energy (general) and enstrophy (2D, nonDiv.) conserving scheme
(PID.TID 0000.0001)          from Sadourny (Burridge & Haseler, ECMWF Rep.4, 1977)
(PID.TID 0000.0001)     ;
(PID.TID 0000.0001) upwindVorticity= /* V.I Upwind bias vorticity flag */
(PID.TID 0000.0001)                   F
(PID.TID 0000.0001)     ;
(PID.TID 0000.0001) highOrderVorticity= /* V.I High order vort. advect. flag */
(PID.TID 0000.0001)                   T
(PID.TID 0000.0001)     ;
(PID.TID 0000.0001) upwindShear= /* V.I Upwind vertical Shear advection flag */
(PID.TID 0000.0001)                   F
(PID.TID 0000.0001)     ;
(PID.TID 0000.0001) selectKEscheme= /* V.I Kinetic Energy scheme selector */
(PID.TID 0000.0001)                       0
(PID.TID 0000.0001)     ;
(PID.TID 0000.0001) momForcing =  /* Momentum forcing on/off flag */
(PID.TID 0000.0001)                   T
(PID.TID 0000.0001)     ;
(PID.TID 0000.0001) momTidalForcing = /* Momentum Tidal forcing on/off flag */
(PID.TID 0000.0001)                   T
(PID.TID 0000.0001)     ;
(PID.TID 0000.0001) momPressureForcing =  /* Momentum pressure term on/off flag */
(PID.TID 0000.0001)                   T
(PID.TID 0000.0001)     ;
(PID.TID 0000.0001) implicitIntGravWave= /* Implicit Internal Gravity Wave flag */
(PID.TID 0000.0001)                   F
(PID.TID 0000.0001)     ;
(PID.TID 0000.0001) staggerTimeStep =    /* Stagger time stepping on/off flag */
(PID.TID 0000.0001)                   T
(PID.TID 0000.0001)     ;
(PID.TID 0000.0001) doResetHFactors = /* reset thickness factors @ each time-step */
(PID.TID 0000.0001)                   F
(PID.TID 0000.0001)     ;
(PID.TID 0000.0001) multiDimAdvection =  /* enable/disable Multi-Dim Advection */
(PID.TID 0000.0001)                   T
(PID.TID 0000.0001)     ;
(PID.TID 0000.0001) useMultiDimAdvec =   /* Multi-Dim Advection is/is-not used */
(PID.TID 0000.0001)                   T
(PID.TID 0000.0001)     ;
(PID.TID 0000.0001) implicitDiffusion = /* Implicit Diffusion on/off flag */
(PID.TID 0000.0001)                   T
(PID.TID 0000.0001)     ;
(PID.TID 0000.0001) tempStepping =  /* Temperature equation on/off flag */
(PID.TID 0000.0001)                   T
(PID.TID 0000.0001)     ;
(PID.TID 0000.0001) tempAdvection = /* Temperature advection on/off flag */
(PID.TID 0000.0001)                   T
(PID.TID 0000.0001)     ;
(PID.TID 0000.0001) tempImplVertAdv = /* Temp. implicit vert. advection on/off */
(PID.TID 0000.0001)                   F
(PID.TID 0000.0001)     ;
(PID.TID 0000.0001) tempForcing  =  /* Temperature forcing on/off flag */
(PID.TID 0000.0001)                   T
(PID.TID 0000.0001)     ;
(PID.TID 0000.0001) doThetaClimRelax = /* apply SST relaxation on/off flag */
(PID.TID 0000.0001)                   F
(PID.TID 0000.0001)     ;
(PID.TID 0000.0001) tempIsActiveTr = /* Temp. is a dynamically Active Tracer */
(PID.TID 0000.0001)                   T
(PID.TID 0000.0001)     ;
(PID.TID 0000.0001) saltStepping =  /* Salinity equation on/off flag */
(PID.TID 0000.0001)                   T
(PID.TID 0000.0001)     ;
(PID.TID 0000.0001) saltAdvection = /* Salinity advection on/off flag */
(PID.TID 0000.0001)                   T
(PID.TID 0000.0001)     ;
(PID.TID 0000.0001) saltImplVertAdv = /* Sali. implicit vert. advection on/off */
(PID.TID 0000.0001)                   F
(PID.TID 0000.0001)     ;
(PID.TID 0000.0001) saltForcing  =  /* Salinity forcing on/off flag */
(PID.TID 0000.0001)                   T
(PID.TID 0000.0001)     ;
(PID.TID 0000.0001) doSaltClimRelax = /* apply SSS relaxation on/off flag */
(PID.TID 0000.0001)                   F
(PID.TID 0000.0001)     ;
(PID.TID 0000.0001) saltIsActiveTr = /* Salt  is a dynamically Active Tracer */
(PID.TID 0000.0001)                   T
(PID.TID 0000.0001)     ;
(PID.TID 0000.0001)  readBinaryPrec = /* Precision used for reading binary files */
(PID.TID 0000.0001)                      64
(PID.TID 0000.0001)     ;
(PID.TID 0000.0001) writeBinaryPrec = /* Precision used for writing binary files */
(PID.TID 0000.0001)                      32
(PID.TID 0000.0001)     ;
(PID.TID 0000.0001)  rwSuffixType =   /* select format of mds file suffix */
(PID.TID 0000.0001)                       0
(PID.TID 0000.0001)    = 0 : myIter (I10.10) ;   = 1 : 100*myTime (100th sec) ;
(PID.TID 0000.0001)    = 2 : myTime (seconds);   = 3 : myTime/360 (10th of hr);
(PID.TID 0000.0001)    = 4 : myTime/3600 (hours)
(PID.TID 0000.0001)     ;
(PID.TID 0000.0001)  globalFiles = /* write "global" (=not per tile) files */
(PID.TID 0000.0001)                   T
(PID.TID 0000.0001)     ;
(PID.TID 0000.0001)  useSingleCpuIO = /* only master MPI process does I/O */
(PID.TID 0000.0001)                   T
(PID.TID 0000.0001)     ;
(PID.TID 0000.0001)  useSingleCpuInput = /* only master process reads input */
(PID.TID 0000.0001)                   T
(PID.TID 0000.0001)     ;
(PID.TID 0000.0001) /* debLev[*]  : level of debug & auxiliary message printing */
(PID.TID 0000.0001) debLevZero =  0 ; /* level of disabled aux. msg printing */
(PID.TID 0000.0001)    debLevA =  1 ; /* level of minimum  aux. msg printing */
(PID.TID 0000.0001)    debLevB =  2 ; /* level of low aux. print (report read-file opening)*/
(PID.TID 0000.0001)    debLevC =  3 ; /* level of moderate debug prt (most pkgs debug msg) */
(PID.TID 0000.0001)    debLevD =  4 ; /* level of enhanced debug prt (add DEBUG_STATS prt) */
(PID.TID 0000.0001)    debLevE =  5 ; /* level of extensive debug printing */
(PID.TID 0000.0001) debugLevel =  /* select debug printing level */
(PID.TID 0000.0001)                      -1
(PID.TID 0000.0001)     ;
(PID.TID 0000.0001)  plotLevel =  /* select PLOT_FIELD printing level */
(PID.TID 0000.0001)                      -1
(PID.TID 0000.0001)     ;
(PID.TID 0000.0001) //
(PID.TID 0000.0001) // Elliptic solver(s) paramters ( PARM02 in namelist )
(PID.TID 0000.0001) //
(PID.TID 0000.0001) cg2dMaxIters =   /* Upper limit on 2d con. grad iterations  */
(PID.TID 0000.0001)                     100
(PID.TID 0000.0001)     ;
(PID.TID 0000.0001) cg2dChkResFreq =   /* 2d con. grad convergence test frequency */
(PID.TID 0000.0001)                       1
(PID.TID 0000.0001)     ;
(PID.TID 0000.0001) cg2dUseMinResSol= /* use cg2d last-iter(=0) / min-resid.(=1) solution */
(PID.TID 0000.0001)                       0
(PID.TID 0000.0001)     ;
(PID.TID 0000.0001) cg2dTargetResidual =   /* 2d con. grad target residual  */
(PID.TID 0000.0001)                 1.000000000000000E-05
(PID.TID 0000.0001)     ;
(PID.TID 0000.0001) cg2dTargetResWunit =   /* CG2d target residual [W units] */
(PID.TID 0000.0001)                -1.000000000000000E+00
(PID.TID 0000.0001)     ;
(PID.TID 0000.0001) cg2dPreCondFreq =   /* Freq. for updating cg2d preconditioner */
(PID.TID 0000.0001)                       1
(PID.TID 0000.0001)     ;
(PID.TID 0000.0001) useSRCGSolver =  /* use single reduction CG solver(s) */
(PID.TID 0000.0001)                   F
(PID.TID 0000.0001)     ;
(PID.TID 0000.0001) printResidualFreq = /* Freq. for printing CG residual */
(PID.TID 0000.0001)                       0
(PID.TID 0000.0001)     ;
(PID.TID 0000.0001) //
(PID.TID 0000.0001) // Time stepping paramters ( PARM03 in namelist )
(PID.TID 0000.0001) //
(PID.TID 0000.0001) deltaTMom =   /* Momentum equation timestep ( s ) */
(PID.TID 0000.0001)                 9.000000000000000E+02
(PID.TID 0000.0001)     ;
(PID.TID 0000.0001) deltaTFreeSurf = /* FreeSurface equation timestep ( s ) */
(PID.TID 0000.0001)                 9.000000000000000E+02
(PID.TID 0000.0001)     ;
(PID.TID 0000.0001) dTtracerLev =  /* Tracer equation timestep ( s ) */
(PID.TID 0000.0001)    15 @  9.000000000000000E+02              /* K =  1: 15 */
(PID.TID 0000.0001)     ;
(PID.TID 0000.0001) deltaTClock  =   /* Model clock timestep ( s ) */
(PID.TID 0000.0001)                 9.000000000000000E+02
(PID.TID 0000.0001)     ;
(PID.TID 0000.0001) cAdjFreq =   /* Convective adjustment interval ( s ) */
(PID.TID 0000.0001)                 0.000000000000000E+00
(PID.TID 0000.0001)     ;
(PID.TID 0000.0001) momForcingOutAB = /* =1: take Momentum Forcing out of Adams-Bash. stepping */
(PID.TID 0000.0001)                       1
(PID.TID 0000.0001)     ;
(PID.TID 0000.0001) tracForcingOutAB = /* =1: take T,S,pTr Forcing out of Adams-Bash. stepping */
(PID.TID 0000.0001)                       1
(PID.TID 0000.0001)     ;
(PID.TID 0000.0001) momDissip_In_AB = /* put Dissipation Tendency in Adams-Bash. stepping */
(PID.TID 0000.0001)                   F
(PID.TID 0000.0001)     ;
(PID.TID 0000.0001) doAB_onGtGs = /* apply AB on Tendencies (rather than on T,S)*/
(PID.TID 0000.0001)                   T
(PID.TID 0000.0001)     ;
(PID.TID 0000.0001) abEps =   /* Adams-Bashforth-2 stabilizing weight */
(PID.TID 0000.0001)                 1.000000000000000E-01
(PID.TID 0000.0001)     ;
(PID.TID 0000.0001) applyExchUV_early = /* Apply EXCH to U,V earlier in time-step */
(PID.TID 0000.0001)                   F
(PID.TID 0000.0001)     ;
(PID.TID 0000.0001) pickupStrictlyMatch= /* stop if pickup do not strictly match */
(PID.TID 0000.0001)                   F
(PID.TID 0000.0001)     ;
(PID.TID 0000.0001) nIter0   =   /* Run starting timestep number */
(PID.TID 0000.0001)                   72000
(PID.TID 0000.0001)     ;
(PID.TID 0000.0001) nTimeSteps = /* Number of timesteps */
(PID.TID 0000.0001)                       8
(PID.TID 0000.0001)     ;
(PID.TID 0000.0001) nEndIter =   /* Run ending timestep number */
(PID.TID 0000.0001)                   72008
(PID.TID 0000.0001)     ;
(PID.TID 0000.0001) baseTime =   /* Model base time ( s ) */
(PID.TID 0000.0001)                 0.000000000000000E+00
(PID.TID 0000.0001)     ;
(PID.TID 0000.0001) startTime =  /* Run start time ( s ) */
(PID.TID 0000.0001)                 6.480000000000000E+07
(PID.TID 0000.0001)     ;
(PID.TID 0000.0001) endTime  =   /* Integration ending time ( s ) */
(PID.TID 0000.0001)                 6.480720000000000E+07
(PID.TID 0000.0001)     ;
(PID.TID 0000.0001) pChkPtFreq = /* Permanent restart/pickup file interval ( s ) */
(PID.TID 0000.0001)                 7.200000000000000E+03
(PID.TID 0000.0001)     ;
(PID.TID 0000.0001) chkPtFreq  = /* Rolling restart/pickup file interval ( s ) */
(PID.TID 0000.0001)                 7.200000000000000E+03
(PID.TID 0000.0001)     ;
(PID.TID 0000.0001) pickup_write_mdsio =   /* Model IO flag. */
(PID.TID 0000.0001)                   T
(PID.TID 0000.0001)     ;
(PID.TID 0000.0001) pickup_read_mdsio =   /* Model IO flag. */
(PID.TID 0000.0001)                   T
(PID.TID 0000.0001)     ;
(PID.TID 0000.0001) writePickupAtEnd =   /* Model IO flag. */
(PID.TID 0000.0001)                   T
(PID.TID 0000.0001)     ;
(PID.TID 0000.0001) dumpFreq =   /* Model state write out interval ( s ). */
(PID.TID 0000.0001)                 3.600000000000000E+03
(PID.TID 0000.0001)     ;
(PID.TID 0000.0001) dumpInitAndLast= /* write out Initial & Last iter. model state */
(PID.TID 0000.0001)                   T
(PID.TID 0000.0001)     ;
(PID.TID 0000.0001) snapshot_mdsio =   /* Model IO flag. */
(PID.TID 0000.0001)                   T
(PID.TID 0000.0001)     ;
(PID.TID 0000.0001) monitorFreq =   /* Monitor output interval ( s ). */
(PID.TID 0000.0001)                 9.000000000000000E+02
(PID.TID 0000.0001)     ;
(PID.TID 0000.0001) monitorSelect = /* select group of variables to monitor */
(PID.TID 0000.0001)                       3
(PID.TID 0000.0001)     ;
(PID.TID 0000.0001) monitor_stdio =   /* Model IO flag. */
(PID.TID 0000.0001)                   T
(PID.TID 0000.0001)     ;
(PID.TID 0000.0001) externForcingPeriod =   /* forcing period (s) */
(PID.TID 0000.0001)                 0.000000000000000E+00
(PID.TID 0000.0001)     ;
(PID.TID 0000.0001) externForcingCycle =   /* period of the cyle (s). */
(PID.TID 0000.0001)                 0.000000000000000E+00
(PID.TID 0000.0001)     ;
(PID.TID 0000.0001) tauThetaClimRelax =   /* relaxation time scale (s) */
(PID.TID 0000.0001)                 0.000000000000000E+00
(PID.TID 0000.0001)     ;
(PID.TID 0000.0001) tauSaltClimRelax =   /* relaxation time scale (s) */
(PID.TID 0000.0001)                 0.000000000000000E+00
(PID.TID 0000.0001)     ;
(PID.TID 0000.0001) latBandClimRelax =   /* max. Lat. where relaxation */
(PID.TID 0000.0001)                 1.800000000000000E+02
(PID.TID 0000.0001)     ;
(PID.TID 0000.0001) //
(PID.TID 0000.0001) // Gridding paramters ( PARM04 in namelist )
(PID.TID 0000.0001) //
(PID.TID 0000.0001) usingCartesianGrid = /* Cartesian coordinates flag ( True/False ) */
(PID.TID 0000.0001)                   F
(PID.TID 0000.0001)     ;
(PID.TID 0000.0001) usingCylindricalGrid = /* Cylindrical coordinates flag ( True/False ) */
(PID.TID 0000.0001)                   F
(PID.TID 0000.0001)     ;
(PID.TID 0000.0001) usingSphericalPolarGrid = /* Spherical coordinates flag ( True/False ) */
(PID.TID 0000.0001)                   F
(PID.TID 0000.0001)     ;
(PID.TID 0000.0001) usingCurvilinearGrid = /* Curvilinear coordinates flag ( True/False ) */
(PID.TID 0000.0001)                   T
(PID.TID 0000.0001)     ;
(PID.TID 0000.0001) useMin4hFacEdges = /* set hFacW,S as minimum of adjacent hFacC factor */
(PID.TID 0000.0001)                   F
(PID.TID 0000.0001)     ;
(PID.TID 0000.0001) interViscAr_pCell = /* account for partial-cell in interior vert. viscosity */
(PID.TID 0000.0001)                   F
(PID.TID 0000.0001)     ;
(PID.TID 0000.0001) interDiffKr_pCell = /* account for partial-cell in interior vert. diffusion */
(PID.TID 0000.0001)                   F
(PID.TID 0000.0001)     ;
(PID.TID 0000.0001) pCellMix_select = /* option to enhance mixing near surface & bottom */
(PID.TID 0000.0001)                       0
(PID.TID 0000.0001)     ;
(PID.TID 0000.0001) selectSigmaCoord = /* Hybrid-Sigma Vert. Coordinate option */
(PID.TID 0000.0001)                       0
(PID.TID 0000.0001)     ;
(PID.TID 0000.0001) rSigmaBnd = /* r/sigma transition ( units of r ==  m ) */
(PID.TID 0000.0001)                 1.234567000000000E+05
(PID.TID 0000.0001)     ;
(PID.TID 0000.0001) rkSign =   /* index orientation relative to vertical coordinate */
(PID.TID 0000.0001)                -1.000000000000000E+00
(PID.TID 0000.0001)     ;
(PID.TID 0000.0001) gravitySign = /* gravity orientation relative to vertical coordinate */
(PID.TID 0000.0001)                -1.000000000000000E+00
(PID.TID 0000.0001)     ;
(PID.TID 0000.0001) seaLev_Z =  /* reference height of sea-level [m] */
(PID.TID 0000.0001)                 0.000000000000000E+00
(PID.TID 0000.0001)     ;
(PID.TID 0000.0001) top_Pres =  /* reference pressure at the top [Pa] */
(PID.TID 0000.0001)                 0.000000000000000E+00
(PID.TID 0000.0001)     ;
(PID.TID 0000.0001) mass2rUnit = /* convert mass per unit area [kg/m2] to r-units [m] */
(PID.TID 0000.0001)                 9.732360097323601E-04
(PID.TID 0000.0001)     ;
(PID.TID 0000.0001) rUnit2mass = /* convert r-units [m] to mass per unit area [kg/m2] */
(PID.TID 0000.0001)                 1.027500000000000E+03
(PID.TID 0000.0001)     ;
(PID.TID 0000.0001) drC =   /* C spacing ( units of r ) */
(PID.TID 0000.0001)                 2.500000000000000E+01,      /* K =  1 */
(PID.TID 0000.0001)                 6.000000000000000E+01,      /* K =  2 */
(PID.TID 0000.0001)                 8.500000000000000E+01,      /* K =  3 */
(PID.TID 0000.0001)                 1.200000000000000E+02,      /* K =  4 */
(PID.TID 0000.0001)                 1.650000000000000E+02,      /* K =  5 */
(PID.TID 0000.0001)                 2.150000000000000E+02,      /* K =  6 */
(PID.TID 0000.0001)                 2.650000000000000E+02,      /* K =  7 */
(PID.TID 0000.0001)                 3.150000000000000E+02,      /* K =  8 */
(PID.TID 0000.0001)                 3.650000000000000E+02,      /* K =  9 */
(PID.TID 0000.0001)                 4.150000000000000E+02,      /* K = 10 */
(PID.TID 0000.0001)                 4.650000000000000E+02,      /* K = 11 */
(PID.TID 0000.0001)                 5.150000000000000E+02,      /* K = 12 */
(PID.TID 0000.0001)                 5.650000000000000E+02,      /* K = 13 */
(PID.TID 0000.0001)                 6.150000000000000E+02,      /* K = 14 */
(PID.TID 0000.0001)                 6.650000000000000E+02,      /* K = 15 */
(PID.TID 0000.0001)                 3.450000000000000E+02       /* K = 16 */
(PID.TID 0000.0001)     ;
(PID.TID 0000.0001) drF =   /* W spacing ( units of r ) */
(PID.TID 0000.0001)                 5.000000000000000E+01,      /* K =  1 */
(PID.TID 0000.0001)                 7.000000000000000E+01,      /* K =  2 */
(PID.TID 0000.0001)                 1.000000000000000E+02,      /* K =  3 */
(PID.TID 0000.0001)                 1.400000000000000E+02,      /* K =  4 */
(PID.TID 0000.0001)                 1.900000000000000E+02,      /* K =  5 */
(PID.TID 0000.0001)                 2.400000000000000E+02,      /* K =  6 */
(PID.TID 0000.0001)                 2.900000000000000E+02,      /* K =  7 */
(PID.TID 0000.0001)                 3.400000000000000E+02,      /* K =  8 */
(PID.TID 0000.0001)                 3.900000000000000E+02,      /* K =  9 */
(PID.TID 0000.0001)                 4.400000000000000E+02,      /* K = 10 */
(PID.TID 0000.0001)                 4.900000000000000E+02,      /* K = 11 */
(PID.TID 0000.0001)                 5.400000000000000E+02,      /* K = 12 */
(PID.TID 0000.0001)                 5.900000000000000E+02,      /* K = 13 */
(PID.TID 0000.0001)                 6.400000000000000E+02,      /* K = 14 */
(PID.TID 0000.0001)                 6.900000000000000E+02       /* K = 15 */
(PID.TID 0000.0001)     ;
(PID.TID 0000.0001) radius_fromHorizGrid = /* sphere Radius of input horiz. grid */
(PID.TID 0000.0001)                 6.370000000000000E+06
(PID.TID 0000.0001)     ;
(PID.TID 0000.0001) rSphere =  /* Radius ( ignored - cartesian, m - spherical ) */
(PID.TID 0000.0001)                 6.370000000000000E+06
(PID.TID 0000.0001)     ;
(PID.TID 0000.0001) deepAtmosphere = /* Deep/Shallow Atmosphere flag (True/False) */
(PID.TID 0000.0001)                   F
(PID.TID 0000.0001)     ;
(PID.TID 0000.0001) xC =  /* xC(:,1,:,1) : P-point X coord ( deg. or m if cartesian) */
(PID.TID 0000.0001)                -4.439521994760536E+01,      /* I =  1 */
(PID.TID 0000.0001)                -4.295641272275883E+01,      /* I =  2 */
(PID.TID 0000.0001)                -4.122055553388957E+01,      /* I =  3 */
(PID.TID 0000.0001)                -3.923446288487304E+01,      /* I =  4 */
(PID.TID 0000.0001)                -3.702585158682200E+01,      /* I =  5 */
(PID.TID 0000.0001)                -3.461179367094151E+01,      /* I =  6 */
(PID.TID 0000.0001)                -3.200434569041793E+01,      /* I =  7 */
(PID.TID 0000.0001)                -2.921355965632675E+01,      /* I =  8 */
(PID.TID 0000.0001)                -2.624932223028290E+01,      /* I =  9 */
(PID.TID 0000.0001)                -2.312261250426344E+01,      /* I = 10 */
(PID.TID 0000.0001)                -1.984640717127058E+01,      /* I = 11 */
(PID.TID 0000.0001)                -1.643630800555134E+01,      /* I = 12 */
(PID.TID 0000.0001)                -1.291089806302069E+01,      /* I = 13 */
(PID.TID 0000.0001)                -9.291807802719402E+00,      /* I = 14 */
(PID.TID 0000.0001)                -5.603475335822332E+00,      /* I = 15 */
(PID.TID 0000.0001)                -1.872608513033445E+00,      /* I = 16 */
(PID.TID 0000.0001)                 1.872608513033445E+00,      /* I = 17 */
(PID.TID 0000.0001)                 5.603475335822332E+00,      /* I = 18 */
(PID.TID 0000.0001)                 9.291807802719402E+00,      /* I = 19 */
(PID.TID 0000.0001)                 1.291089806302069E+01,      /* I = 20 */
(PID.TID 0000.0001)                 1.643630800555134E+01,      /* I = 21 */
(PID.TID 0000.0001)                 1.984640717127058E+01,      /* I = 22 */
(PID.TID 0000.0001)                 2.312261250426344E+01,      /* I = 23 */
(PID.TID 0000.0001)                 2.624932223028290E+01,      /* I = 24 */
(PID.TID 0000.0001)                 2.921355965632675E+01,      /* I = 25 */
(PID.TID 0000.0001)                 3.200434569041793E+01,      /* I = 26 */
(PID.TID 0000.0001)                 3.461179367094151E+01,      /* I = 27 */
(PID.TID 0000.0001)                 3.702585158682200E+01,      /* I = 28 */
(PID.TID 0000.0001)                 3.923446288487304E+01,      /* I = 29 */
(PID.TID 0000.0001)                 4.122055553388957E+01,      /* I = 30 */
(PID.TID 0000.0001)                 4.295641272275883E+01,      /* I = 31 */
(PID.TID 0000.0001)                 4.439521994760536E+01       /* I = 32 */
(PID.TID 0000.0001)     ;
(PID.TID 0000.0001) yC =  /* yC(1,:,1,:) : P-point Y coord ( deg. or m if cartesian) */
(PID.TID 0000.0001)                -3.497677942598243E+01,      /* J =  1 */
(PID.TID 0000.0001)                -3.374005967394886E+01,      /* J =  2 */
(PID.TID 0000.0001)                -3.220655175667454E+01,      /* J =  3 */
(PID.TID 0000.0001)                -3.045756348838641E+01,      /* J =  4 */
(PID.TID 0000.0001)                -2.853728129852918E+01,      /* J =  5 */
(PID.TID 0000.0001)                -2.647426640173173E+01,      /* J =  6 */
(PID.TID 0000.0001)                -2.428936657094636E+01,      /* J =  7 */
(PID.TID 0000.0001)                -2.199915808312262E+01,      /* J =  8 */
(PID.TID 0000.0001)                -1.961768597440146E+01,      /* J =  9 */
(PID.TID 0000.0001)                -1.715743888281371E+01,      /* J = 10 */
(PID.TID 0000.0001)                -1.462993396899330E+01,      /* J = 11 */
(PID.TID 0000.0001)                -1.204608340464756E+01,      /* J = 12 */
(PID.TID 0000.0001)                -9.416429130284818E+00,      /* J = 13 */
(PID.TID 0000.0001)                -6.751293662992216E+00,      /* J = 14 */
(PID.TID 0000.0001)                -4.060875511835959E+00,      /* J = 15 */
(PID.TID 0000.0001)                -1.355307764409121E+00,      /* J = 16 */
(PID.TID 0000.0001)                 1.355307764409121E+00,      /* J = 17 */
(PID.TID 0000.0001)                 4.060875511835959E+00,      /* J = 18 */
(PID.TID 0000.0001)                 6.751293662992216E+00,      /* J = 19 */
(PID.TID 0000.0001)                 9.416429130284818E+00,      /* J = 20 */
(PID.TID 0000.0001)                 1.204608340464756E+01,      /* J = 21 */
(PID.TID 0000.0001)                 1.462993396899330E+01,      /* J = 22 */
(PID.TID 0000.0001)                 1.715743888281371E+01,      /* J = 23 */
(PID.TID 0000.0001)                 1.961768597440146E+01,      /* J = 24 */
(PID.TID 0000.0001)                 2.199915808312262E+01,      /* J = 25 */
(PID.TID 0000.0001)                 2.428936657094636E+01,      /* J = 26 */
(PID.TID 0000.0001)                 2.647426640173173E+01,      /* J = 27 */
(PID.TID 0000.0001)                 2.853728129852918E+01,      /* J = 28 */
(PID.TID 0000.0001)                 3.045756348838641E+01,      /* J = 29 */
(PID.TID 0000.0001)                 3.220655175667454E+01,      /* J = 30 */
(PID.TID 0000.0001)                 3.374005967394886E+01,      /* J = 31 */
(PID.TID 0000.0001)                 3.497677942598243E+01       /* J = 32 */
(PID.TID 0000.0001)     ;
(PID.TID 0000.0001) rcoord = /* P-point R coordinate (  units of r ) */
(PID.TID 0000.0001)                -2.500000000000000E+01,      /* K =  1 */
(PID.TID 0000.0001)                -8.500000000000000E+01,      /* K =  2 */
(PID.TID 0000.0001)                -1.700000000000000E+02,      /* K =  3 */
(PID.TID 0000.0001)                -2.900000000000000E+02,      /* K =  4 */
(PID.TID 0000.0001)                -4.550000000000000E+02,      /* K =  5 */
(PID.TID 0000.0001)                -6.700000000000000E+02,      /* K =  6 */
(PID.TID 0000.0001)                -9.350000000000000E+02,      /* K =  7 */
(PID.TID 0000.0001)                -1.250000000000000E+03,      /* K =  8 */
(PID.TID 0000.0001)                -1.615000000000000E+03,      /* K =  9 */
(PID.TID 0000.0001)                -2.030000000000000E+03,      /* K = 10 */
(PID.TID 0000.0001)                -2.495000000000000E+03,      /* K = 11 */
(PID.TID 0000.0001)                -3.010000000000000E+03,      /* K = 12 */
(PID.TID 0000.0001)                -3.575000000000000E+03,      /* K = 13 */
(PID.TID 0000.0001)                -4.190000000000000E+03,      /* K = 14 */
(PID.TID 0000.0001)                -4.855000000000000E+03       /* K = 15 */
(PID.TID 0000.0001)     ;
(PID.TID 0000.0001) rF =   /* W-Interf. R coordinate (  units of r ) */
(PID.TID 0000.0001)                 0.000000000000000E+00,      /* K =  1 */
(PID.TID 0000.0001)                -5.000000000000000E+01,      /* K =  2 */
(PID.TID 0000.0001)                -1.200000000000000E+02,      /* K =  3 */
(PID.TID 0000.0001)                -2.200000000000000E+02,      /* K =  4 */
(PID.TID 0000.0001)                -3.600000000000000E+02,      /* K =  5 */
(PID.TID 0000.0001)                -5.500000000000000E+02,      /* K =  6 */
(PID.TID 0000.0001)                -7.900000000000000E+02,      /* K =  7 */
(PID.TID 0000.0001)                -1.080000000000000E+03,      /* K =  8 */
(PID.TID 0000.0001)                -1.420000000000000E+03,      /* K =  9 */
(PID.TID 0000.0001)                -1.810000000000000E+03,      /* K = 10 */
(PID.TID 0000.0001)                -2.250000000000000E+03,      /* K = 11 */
(PID.TID 0000.0001)                -2.740000000000000E+03,      /* K = 12 */
(PID.TID 0000.0001)                -3.280000000000000E+03,      /* K = 13 */
(PID.TID 0000.0001)                -3.870000000000000E+03,      /* K = 14 */
(PID.TID 0000.0001)                -4.510000000000000E+03,      /* K = 15 */
(PID.TID 0000.0001)                -5.200000000000000E+03       /* K = 16 */
(PID.TID 0000.0001)     ;
(PID.TID 0000.0001) deepFacC = /* deep-model grid factor @ cell-Center (-) */
(PID.TID 0000.0001)    15 @  1.000000000000000E+00              /* K =  1: 15 */
(PID.TID 0000.0001)     ;
(PID.TID 0000.0001) deepFacF = /* deep-model grid factor @ W-Interface (-) */
(PID.TID 0000.0001)    16 @  1.000000000000000E+00              /* K =  1: 16 */
(PID.TID 0000.0001)     ;
(PID.TID 0000.0001) rVel2wUnit = /* convert units: rVel -> wSpeed (=1 if z-coord)*/
(PID.TID 0000.0001)    16 @  1.000000000000000E+00              /* K =  1: 16 */
(PID.TID 0000.0001)     ;
(PID.TID 0000.0001) wUnit2rVel = /* convert units: wSpeed -> rVel (=1 if z-coord)*/
(PID.TID 0000.0001)    16 @  1.000000000000000E+00              /* K =  1: 16 */
(PID.TID 0000.0001)     ;
(PID.TID 0000.0001) dBdrRef = /* Vertical grad. of reference buoyancy [(m/s/r)^2] */
(PID.TID 0000.0001)    15 @  0.000000000000000E+00              /* K =  1: 15 */
(PID.TID 0000.0001)     ;
(PID.TID 0000.0001) rotateGrid = /* use rotated grid ( True/False ) */
(PID.TID 0000.0001)                   F
(PID.TID 0000.0001)     ;
(PID.TID 0000.0001) phiEuler = /* Euler angle, rotation about original z-coordinate [rad] */
(PID.TID 0000.0001)                 0.000000000000000E+00
(PID.TID 0000.0001)     ;
(PID.TID 0000.0001) thetaEuler = /* Euler angle, rotation about new x-coordinate [rad] */
(PID.TID 0000.0001)                 0.000000000000000E+00
(PID.TID 0000.0001)     ;
(PID.TID 0000.0001) psiEuler = /* Euler angle, rotation about new z-coordinate [rad] */
(PID.TID 0000.0001)                 0.000000000000000E+00
(PID.TID 0000.0001)     ;
(PID.TID 0000.0001) dxF =  /* dxF(:,1,:,1) ( units: m ) */
(PID.TID 0000.0001)                 1.202082051331828E+05,      /* I =  1 */
(PID.TID 0000.0001)                 1.563594089971120E+05,      /* I =  2 */
(PID.TID 0000.0001)                 1.835530058121492E+05,      /* I =  3 */
(PID.TID 0000.0001)                 2.045883481718707E+05,      /* I =  4 */
(PID.TID 0000.0001)                 2.218350349844185E+05,      /* I =  5 */
(PID.TID 0000.0001)                 2.364352994647058E+05,      /* I =  6 */
(PID.TID 0000.0001)                 2.490022710862746E+05,      /* I =  7 */
(PID.TID 0000.0001)                 2.598919724358304E+05,      /* I =  8 */
(PID.TID 0000.0001)                 2.693210245495156E+05,      /* I =  9 */
(PID.TID 0000.0001)                 2.774243179696503E+05,      /* I = 10 */
(PID.TID 0000.0001)                 2.842862532064524E+05,      /* I = 11 */
(PID.TID 0000.0001)                 2.899590699694043E+05,      /* I = 12 */
(PID.TID 0000.0001)                 2.944742915095688E+05,      /* I = 13 */
(PID.TID 0000.0001)                 2.978501920522794E+05,      /* I = 14 */
(PID.TID 0000.0001)                 3.000967749619962E+05,      /* I = 15 */
(PID.TID 0000.0001)     2 @  3.012190981969055E+05,             /* I = 16: 17 */
(PID.TID 0000.0001)                 3.000967749619962E+05,      /* I = 18 */
(PID.TID 0000.0001)                 2.978501920522794E+05,      /* I = 19 */
(PID.TID 0000.0001)                 2.944742915095688E+05,      /* I = 20 */
(PID.TID 0000.0001)                 2.899590699694043E+05,      /* I = 21 */
(PID.TID 0000.0001)                 2.842862532064524E+05,      /* I = 22 */
(PID.TID 0000.0001)                 2.774243179696503E+05,      /* I = 23 */
(PID.TID 0000.0001)                 2.693210245495156E+05,      /* I = 24 */
(PID.TID 0000.0001)                 2.598919724358304E+05,      /* I = 25 */
(PID.TID 0000.0001)                 2.490022710862746E+05,      /* I = 26 */
(PID.TID 0000.0001)                 2.364352994647058E+05,      /* I = 27 */
(PID.TID 0000.0001)                 2.218350349844185E+05,      /* I = 28 */
(PID.TID 0000.0001)                 2.045883481718707E+05,      /* I = 29 */
(PID.TID 0000.0001)                 1.835530058121492E+05,      /* I = 30 */
(PID.TID 0000.0001)                 1.563594089971120E+05,      /* I = 31 */
(PID.TID 0000.0001)                 1.202082051331828E+05       /* I = 32 */
(PID.TID 0000.0001)     ;
(PID.TID 0000.0001) dxF =  /* dxF(1,:,1,:) ( units: m ) */
(PID.TID 0000.0001)                 1.202082051331828E+05,      /* J =  1 */
(PID.TID 0000.0001)                 1.572908084538706E+05,      /* J =  2 */
(PID.TID 0000.0001)                 1.840412227747703E+05,      /* J =  3 */
(PID.TID 0000.0001)                 2.048868197919576E+05,      /* J =  4 */
(PID.TID 0000.0001)                 2.220405216043041E+05,      /* J =  5 */
(PID.TID 0000.0001)                 2.365892017348392E+05,      /* J =  6 */
(PID.TID 0000.0001)                 2.491250781852558E+05,      /* J =  7 */
(PID.TID 0000.0001)                 2.599949918261881E+05,      /* J =  8 */
(PID.TID 0000.0001)                 2.694110134598581E+05,      /* J =  9 */
(PID.TID 0000.0001)                 2.775055554645015E+05,      /* J = 10 */
(PID.TID 0000.0001)                 2.843615645344775E+05,      /* J = 11 */
(PID.TID 0000.0001)                 2.900303768613599E+05,      /* J = 12 */
(PID.TID 0000.0001)                 2.945429307892709E+05,      /* J = 13 */
(PID.TID 0000.0001)                 2.979171143158405E+05,      /* J = 14 */
(PID.TID 0000.0001)                 3.001626787528886E+05,      /* J = 15 */
(PID.TID 0000.0001)     2 @  3.012844832048790E+05,             /* J = 16: 17 */
(PID.TID 0000.0001)                 3.001626787528886E+05,      /* J = 18 */
(PID.TID 0000.0001)                 2.979171143158405E+05,      /* J = 19 */
(PID.TID 0000.0001)                 2.945429307892709E+05,      /* J = 20 */
(PID.TID 0000.0001)                 2.900303768613599E+05,      /* J = 21 */
(PID.TID 0000.0001)                 2.843615645344775E+05,      /* J = 22 */
(PID.TID 0000.0001)                 2.775055554645015E+05,      /* J = 23 */
(PID.TID 0000.0001)                 2.694110134598581E+05,      /* J = 24 */
(PID.TID 0000.0001)                 2.599949918261881E+05,      /* J = 25 */
(PID.TID 0000.0001)                 2.491250781852558E+05,      /* J = 26 */
(PID.TID 0000.0001)                 2.365892017348392E+05,      /* J = 27 */
(PID.TID 0000.0001)                 2.220405216043041E+05,      /* J = 28 */
(PID.TID 0000.0001)                 2.048868197919576E+05,      /* J = 29 */
(PID.TID 0000.0001)                 1.840412227747703E+05,      /* J = 30 */
(PID.TID 0000.0001)                 1.572908084538706E+05,      /* J = 31 */
(PID.TID 0000.0001)                 1.202082051331828E+05       /* J = 32 */
(PID.TID 0000.0001)     ;
(PID.TID 0000.0001) dyF =  /* dyF(:,1,:,1) ( units: m ) */
(PID.TID 0000.0001)                 1.202082051331828E+05,      /* I =  1 */
(PID.TID 0000.0001)                 1.572908084538706E+05,      /* I =  2 */
(PID.TID 0000.0001)                 1.840412227747703E+05,      /* I =  3 */
(PID.TID 0000.0001)                 2.048868197919576E+05,      /* I =  4 */
(PID.TID 0000.0001)                 2.220405216043041E+05,      /* I =  5 */
(PID.TID 0000.0001)                 2.365892017348392E+05,      /* I =  6 */
(PID.TID 0000.0001)                 2.491250781852558E+05,      /* I =  7 */
(PID.TID 0000.0001)                 2.599949918261881E+05,      /* I =  8 */
(PID.TID 0000.0001)                 2.694110134598581E+05,      /* I =  9 */
(PID.TID 0000.0001)                 2.775055554645015E+05,      /* I = 10 */
(PID.TID 0000.0001)                 2.843615645344775E+05,      /* I = 11 */
(PID.TID 0000.0001)                 2.900303768613599E+05,      /* I = 12 */
(PID.TID 0000.0001)                 2.945429307892709E+05,      /* I = 13 */
(PID.TID 0000.0001)                 2.979171143158405E+05,      /* I = 14 */
(PID.TID 0000.0001)                 3.001626787528886E+05,      /* I = 15 */
(PID.TID 0000.0001)     2 @  3.012844832048790E+05,             /* I = 16: 17 */
(PID.TID 0000.0001)                 3.001626787528886E+05,      /* I = 18 */
(PID.TID 0000.0001)                 2.979171143158405E+05,      /* I = 19 */
(PID.TID 0000.0001)                 2.945429307892709E+05,      /* I = 20 */
(PID.TID 0000.0001)                 2.900303768613599E+05,      /* I = 21 */
(PID.TID 0000.0001)                 2.843615645344775E+05,      /* I = 22 */
(PID.TID 0000.0001)                 2.775055554645015E+05,      /* I = 23 */
(PID.TID 0000.0001)                 2.694110134598581E+05,      /* I = 24 */
(PID.TID 0000.0001)                 2.599949918261881E+05,      /* I = 25 */
(PID.TID 0000.0001)                 2.491250781852558E+05,      /* I = 26 */
(PID.TID 0000.0001)                 2.365892017348392E+05,      /* I = 27 */
(PID.TID 0000.0001)                 2.220405216043041E+05,      /* I = 28 */
(PID.TID 0000.0001)                 2.048868197919576E+05,      /* I = 29 */
(PID.TID 0000.0001)                 1.840412227747703E+05,      /* I = 30 */
(PID.TID 0000.0001)                 1.572908084538706E+05,      /* I = 31 */
(PID.TID 0000.0001)                 1.202082051331828E+05       /* I = 32 */
(PID.TID 0000.0001)     ;
(PID.TID 0000.0001) dyF =  /* dyF(1,:,1,:) ( units: m ) */
(PID.TID 0000.0001)                 1.202082051331828E+05,      /* J =  1 */
(PID.TID 0000.0001)                 1.563594089971120E+05,      /* J =  2 */
(PID.TID 0000.0001)                 1.835530058121492E+05,      /* J =  3 */
(PID.TID 0000.0001)                 2.045883481718707E+05,      /* J =  4 */
(PID.TID 0000.0001)                 2.218350349844185E+05,      /* J =  5 */
(PID.TID 0000.0001)                 2.364352994647058E+05,      /* J =  6 */
(PID.TID 0000.0001)                 2.490022710862746E+05,      /* J =  7 */
(PID.TID 0000.0001)                 2.598919724358304E+05,      /* J =  8 */
(PID.TID 0000.0001)                 2.693210245495156E+05,      /* J =  9 */
(PID.TID 0000.0001)                 2.774243179696503E+05,      /* J = 10 */
(PID.TID 0000.0001)                 2.842862532064524E+05,      /* J = 11 */
(PID.TID 0000.0001)                 2.899590699694043E+05,      /* J = 12 */
(PID.TID 0000.0001)                 2.944742915095688E+05,      /* J = 13 */
(PID.TID 0000.0001)                 2.978501920522794E+05,      /* J = 14 */
(PID.TID 0000.0001)                 3.000967749619962E+05,      /* J = 15 */
(PID.TID 0000.0001)     2 @  3.012190981969055E+05,             /* J = 16: 17 */
(PID.TID 0000.0001)                 3.000967749619962E+05,      /* J = 18 */
(PID.TID 0000.0001)                 2.978501920522794E+05,      /* J = 19 */
(PID.TID 0000.0001)                 2.944742915095688E+05,      /* J = 20 */
(PID.TID 0000.0001)                 2.899590699694043E+05,      /* J = 21 */
(PID.TID 0000.0001)                 2.842862532064524E+05,      /* J = 22 */
(PID.TID 0000.0001)                 2.774243179696503E+05,      /* J = 23 */
(PID.TID 0000.0001)                 2.693210245495156E+05,      /* J = 24 */
(PID.TID 0000.0001)                 2.598919724358304E+05,      /* J = 25 */
(PID.TID 0000.0001)                 2.490022710862746E+05,      /* J = 26 */
(PID.TID 0000.0001)                 2.364352994647058E+05,      /* J = 27 */
(PID.TID 0000.0001)                 2.218350349844185E+05,      /* J = 28 */
(PID.TID 0000.0001)                 2.045883481718707E+05,      /* J = 29 */
(PID.TID 0000.0001)                 1.835530058121492E+05,      /* J = 30 */
(PID.TID 0000.0001)                 1.563594089971120E+05,      /* J = 31 */
(PID.TID 0000.0001)                 1.202082051331828E+05       /* J = 32 */
(PID.TID 0000.0001)     ;
(PID.TID 0000.0001) dxG =  /* dxG(:,1,:,1) ( units: m ) */
(PID.TID 0000.0001)                 1.009837800879055E+05,      /* I =  1 */
(PID.TID 0000.0001)                 1.534505834330338E+05,      /* I =  2 */
(PID.TID 0000.0001)                 1.823321598773926E+05,      /* I =  3 */
(PID.TID 0000.0001)                 2.038999045536999E+05,      /* I =  4 */
(PID.TID 0000.0001)                 2.213884732245467E+05,      /* I =  5 */
(PID.TID 0000.0001)                 2.361211699596122E+05,      /* I =  6 */
(PID.TID 0000.0001)                 2.487693460283865E+05,      /* I =  7 */
(PID.TID 0000.0001)                 2.597126963772147E+05,      /* I =  8 */
(PID.TID 0000.0001)                 2.691790288994575E+05,      /* I =  9 */
(PID.TID 0000.0001)                 2.773091043277394E+05,      /* I = 10 */
(PID.TID 0000.0001)                 2.841906470085516E+05,      /* I = 11 */
(PID.TID 0000.0001)                 2.898778860929753E+05,      /* I = 12 */
(PID.TID 0000.0001)                 2.944035815526416E+05,      /* I = 13 */
(PID.TID 0000.0001)                 2.977867909042096E+05,      /* I = 14 */
(PID.TID 0000.0001)                 3.000380090330854E+05,      /* I = 15 */
(PID.TID 0000.0001)     2 @  3.011625828699101E+05,             /* I = 16: 17 */
(PID.TID 0000.0001)                 3.000380090330854E+05,      /* I = 18 */
(PID.TID 0000.0001)                 2.977867909042096E+05,      /* I = 19 */
(PID.TID 0000.0001)                 2.944035815526416E+05,      /* I = 20 */
(PID.TID 0000.0001)                 2.898778860929753E+05,      /* I = 21 */
(PID.TID 0000.0001)                 2.841906470085516E+05,      /* I = 22 */
(PID.TID 0000.0001)                 2.773091043277394E+05,      /* I = 23 */
(PID.TID 0000.0001)                 2.691790288994575E+05,      /* I = 24 */
(PID.TID 0000.0001)                 2.597126963772147E+05,      /* I = 25 */
(PID.TID 0000.0001)                 2.487693460283865E+05,      /* I = 26 */
(PID.TID 0000.0001)                 2.361211699596122E+05,      /* I = 27 */
(PID.TID 0000.0001)                 2.213884732245467E+05,      /* I = 28 */
(PID.TID 0000.0001)                 2.038999045536999E+05,      /* I = 29 */
(PID.TID 0000.0001)                 1.823321598773926E+05,      /* I = 30 */
(PID.TID 0000.0001)                 1.534505834330338E+05,      /* I = 31 */
(PID.TID 0000.0001)                 1.009837800879055E+05       /* I = 32 */
(PID.TID 0000.0001)     ;
(PID.TID 0000.0001) dxG =  /* dxG(1,:,1,:) ( units: m ) */
(PID.TID 0000.0001)                 1.009837800879055E+05,      /* J =  1 */
(PID.TID 0000.0001)                 1.403701524205398E+05,      /* J =  2 */
(PID.TID 0000.0001)                 1.716197227386011E+05,      /* J =  3 */
(PID.TID 0000.0001)                 1.950254041626018E+05,      /* J =  4 */
(PID.TID 0000.0001)                 2.138410773065497E+05,      /* J =  5 */
(PID.TID 0000.0001)                 2.295958105911512E+05,      /* J =  6 */
(PID.TID 0000.0001)                 2.430829951739083E+05,      /* J =  7 */
(PID.TID 0000.0001)                 2.547526806712889E+05,      /* J =  8 */
(PID.TID 0000.0001)                 2.648750305193301E+05,      /* J =  9 */
(PID.TID 0000.0001)                 2.736173771018112E+05,      /* J = 10 */
(PID.TID 0000.0001)                 2.810845823202647E+05,      /* J = 11 */
(PID.TID 0000.0001)                 2.873420591008078E+05,      /* J = 12 */
(PID.TID 0000.0001)                 2.924298293668651E+05,      /* J = 13 */
(PID.TID 0000.0001)                 2.963715635865306E+05,      /* J = 14 */
(PID.TID 0000.0001)                 2.991805843171258E+05,      /* J = 15 */
(PID.TID 0000.0001)                 3.008638765647886E+05,      /* J = 16 */
(PID.TID 0000.0001)                 3.014246674484008E+05,      /* J = 17 */
(PID.TID 0000.0001)                 3.008638765647886E+05,      /* J = 18 */
(PID.TID 0000.0001)                 2.991805843171258E+05,      /* J = 19 */
(PID.TID 0000.0001)                 2.963715635865306E+05,      /* J = 20 */
(PID.TID 0000.0001)                 2.924298293668651E+05,      /* J = 21 */
(PID.TID 0000.0001)                 2.873420591008078E+05,      /* J = 22 */
(PID.TID 0000.0001)                 2.810845823202647E+05,      /* J = 23 */
(PID.TID 0000.0001)                 2.736173771018112E+05,      /* J = 24 */
(PID.TID 0000.0001)                 2.648750305193301E+05,      /* J = 25 */
(PID.TID 0000.0001)                 2.547526806712889E+05,      /* J = 26 */
(PID.TID 0000.0001)                 2.430829951739083E+05,      /* J = 27 */
(PID.TID 0000.0001)                 2.295958105911512E+05,      /* J = 28 */
(PID.TID 0000.0001)                 2.138410773065497E+05,      /* J = 29 */
(PID.TID 0000.0001)                 1.950254041626018E+05,      /* J = 30 */
(PID.TID 0000.0001)                 1.716197227386011E+05,      /* J = 31 */
(PID.TID 0000.0001)                 1.403701524205398E+05       /* J = 32 */
(PID.TID 0000.0001)     ;
(PID.TID 0000.0001) dyG =  /* dyG(:,1,:,1) ( units: m ) */
(PID.TID 0000.0001)                 1.009837800879055E+05,      /* I =  1 */
(PID.TID 0000.0001)                 1.403701524205398E+05,      /* I =  2 */
(PID.TID 0000.0001)                 1.716197227386011E+05,      /* I =  3 */
(PID.TID 0000.0001)                 1.950254041626018E+05,      /* I =  4 */
(PID.TID 0000.0001)                 2.138410773065497E+05,      /* I =  5 */
(PID.TID 0000.0001)                 2.295958105911512E+05,      /* I =  6 */
(PID.TID 0000.0001)                 2.430829951739083E+05,      /* I =  7 */
(PID.TID 0000.0001)                 2.547526806712889E+05,      /* I =  8 */
(PID.TID 0000.0001)                 2.648750305193301E+05,      /* I =  9 */
(PID.TID 0000.0001)                 2.736173771018112E+05,      /* I = 10 */
(PID.TID 0000.0001)                 2.810845823202647E+05,      /* I = 11 */
(PID.TID 0000.0001)                 2.873420591008078E+05,      /* I = 12 */
(PID.TID 0000.0001)                 2.924298293668651E+05,      /* I = 13 */
(PID.TID 0000.0001)                 2.963715635865306E+05,      /* I = 14 */
(PID.TID 0000.0001)                 2.991805843171258E+05,      /* I = 15 */
(PID.TID 0000.0001)                 3.008638765647886E+05,      /* I = 16 */
(PID.TID 0000.0001)                 3.014246674484008E+05,      /* I = 17 */
(PID.TID 0000.0001)                 3.008638765647886E+05,      /* I = 18 */
(PID.TID 0000.0001)                 2.991805843171258E+05,      /* I = 19 */
(PID.TID 0000.0001)                 2.963715635865306E+05,      /* I = 20 */
(PID.TID 0000.0001)                 2.924298293668651E+05,      /* I = 21 */
(PID.TID 0000.0001)                 2.873420591008078E+05,      /* I = 22 */
(PID.TID 0000.0001)                 2.810845823202647E+05,      /* I = 23 */
(PID.TID 0000.0001)                 2.736173771018112E+05,      /* I = 24 */
(PID.TID 0000.0001)                 2.648750305193301E+05,      /* I = 25 */
(PID.TID 0000.0001)                 2.547526806712889E+05,      /* I = 26 */
(PID.TID 0000.0001)                 2.430829951739083E+05,      /* I = 27 */
(PID.TID 0000.0001)                 2.295958105911512E+05,      /* I = 28 */
(PID.TID 0000.0001)                 2.138410773065497E+05,      /* I = 29 */
(PID.TID 0000.0001)                 1.950254041626018E+05,      /* I = 30 */
(PID.TID 0000.0001)                 1.716197227386011E+05,      /* I = 31 */
(PID.TID 0000.0001)                 1.403701524205398E+05       /* I = 32 */
(PID.TID 0000.0001)     ;
(PID.TID 0000.0001) dyG =  /* dyG(1,:,1,:) ( units: m ) */
(PID.TID 0000.0001)                 1.009837800879055E+05,      /* J =  1 */
(PID.TID 0000.0001)                 1.534505834330338E+05,      /* J =  2 */
(PID.TID 0000.0001)                 1.823321598773926E+05,      /* J =  3 */
(PID.TID 0000.0001)                 2.038999045536999E+05,      /* J =  4 */
(PID.TID 0000.0001)                 2.213884732245467E+05,      /* J =  5 */
(PID.TID 0000.0001)                 2.361211699596122E+05,      /* J =  6 */
(PID.TID 0000.0001)                 2.487693460283865E+05,      /* J =  7 */
(PID.TID 0000.0001)                 2.597126963772147E+05,      /* J =  8 */
(PID.TID 0000.0001)                 2.691790288994575E+05,      /* J =  9 */
(PID.TID 0000.0001)                 2.773091043277394E+05,      /* J = 10 */
(PID.TID 0000.0001)                 2.841906470085516E+05,      /* J = 11 */
(PID.TID 0000.0001)                 2.898778860929753E+05,      /* J = 12 */
(PID.TID 0000.0001)                 2.944035815526416E+05,      /* J = 13 */
(PID.TID 0000.0001)                 2.977867909042096E+05,      /* J = 14 */
(PID.TID 0000.0001)                 3.000380090330854E+05,      /* J = 15 */
(PID.TID 0000.0001)     2 @  3.011625828699101E+05,             /* J = 16: 17 */
(PID.TID 0000.0001)                 3.000380090330854E+05,      /* J = 18 */
(PID.TID 0000.0001)                 2.977867909042096E+05,      /* J = 19 */
(PID.TID 0000.0001)                 2.944035815526416E+05,      /* J = 20 */
(PID.TID 0000.0001)                 2.898778860929753E+05,      /* J = 21 */
(PID.TID 0000.0001)                 2.841906470085516E+05,      /* J = 22 */
(PID.TID 0000.0001)                 2.773091043277394E+05,      /* J = 23 */
(PID.TID 0000.0001)                 2.691790288994575E+05,      /* J = 24 */
(PID.TID 0000.0001)                 2.597126963772147E+05,      /* J = 25 */
(PID.TID 0000.0001)                 2.487693460283865E+05,      /* J = 26 */
(PID.TID 0000.0001)                 2.361211699596122E+05,      /* J = 27 */
(PID.TID 0000.0001)                 2.213884732245467E+05,      /* J = 28 */
(PID.TID 0000.0001)                 2.038999045536999E+05,      /* J = 29 */
(PID.TID 0000.0001)                 1.823321598773926E+05,      /* J = 30 */
(PID.TID 0000.0001)                 1.534505834330338E+05,      /* J = 31 */
(PID.TID 0000.0001)                 1.009837800879055E+05       /* J = 32 */
(PID.TID 0000.0001)     ;
(PID.TID 0000.0001) dxC =  /* dxC(:,1,:,1) ( units: m ) */
(PID.TID 0000.0001)                 1.114203141013064E+05,      /* I =  1 */
(PID.TID 0000.0001)                 1.391343389937106E+05,      /* I =  2 */
(PID.TID 0000.0001)                 1.709574999026266E+05,      /* I =  3 */
(PID.TID 0000.0001)                 1.946503699269892E+05,      /* I =  4 */
(PID.TID 0000.0001)                 2.135964483342134E+05,      /* I =  5 */
(PID.TID 0000.0001)                 2.294195678257306E+05,      /* I =  6 */
(PID.TID 0000.0001)                 2.429464709770498E+05,      /* I =  7 */
(PID.TID 0000.0001)                 2.546408290696998E+05,      /* I =  8 */
(PID.TID 0000.0001)                 2.647791839299727E+05,      /* I =  9 */
(PID.TID 0000.0001)                 2.735321911346108E+05,      /* I = 10 */
(PID.TID 0000.0001)                 2.810065951609633E+05,      /* I = 11 */
(PID.TID 0000.0001)                 2.872689479506990E+05,      /* I = 12 */
(PID.TID 0000.0001)                 2.923599955312932E+05,      /* I = 13 */
(PID.TID 0000.0001)                 2.963038832565530E+05,      /* I = 14 */
(PID.TID 0000.0001)                 2.991142470004740E+05,      /* I = 15 */
(PID.TID 0000.0001)                 3.007982711627968E+05,      /* I = 16 */
(PID.TID 0000.0001)                 3.013593857228136E+05,      /* I = 17 */
(PID.TID 0000.0001)                 3.007982711627968E+05,      /* I = 18 */
(PID.TID 0000.0001)                 2.991142470004740E+05,      /* I = 19 */
(PID.TID 0000.0001)                 2.963038832565530E+05,      /* I = 20 */
(PID.TID 0000.0001)                 2.923599955312932E+05,      /* I = 21 */
(PID.TID 0000.0001)                 2.872689479506990E+05,      /* I = 22 */
(PID.TID 0000.0001)                 2.810065951609633E+05,      /* I = 23 */
(PID.TID 0000.0001)                 2.735321911346108E+05,      /* I = 24 */
(PID.TID 0000.0001)                 2.647791839299727E+05,      /* I = 25 */
(PID.TID 0000.0001)                 2.546408290696998E+05,      /* I = 26 */
(PID.TID 0000.0001)                 2.429464709770498E+05,      /* I = 27 */
(PID.TID 0000.0001)                 2.294195678257306E+05,      /* I = 28 */
(PID.TID 0000.0001)                 2.135964483342134E+05,      /* I = 29 */
(PID.TID 0000.0001)                 1.946503699269892E+05,      /* I = 30 */
(PID.TID 0000.0001)                 1.709574999026266E+05,      /* I = 31 */
(PID.TID 0000.0001)                 1.391343389937106E+05       /* I = 32 */
(PID.TID 0000.0001)     ;
(PID.TID 0000.0001) dxC =  /* dxC(1,:,1,:) ( units: m ) */
(PID.TID 0000.0001)                 1.114203141013064E+05,      /* J =  1 */
(PID.TID 0000.0001)                 1.549545757850771E+05,      /* J =  2 */
(PID.TID 0000.0001)                 1.829777599966776E+05,      /* J =  3 */
(PID.TID 0000.0001)                 2.042717761866506E+05,      /* J =  4 */
(PID.TID 0000.0001)                 2.216367828252819E+05,      /* J =  5 */
(PID.TID 0000.0001)                 2.363029564123586E+05,      /* J =  6 */
(PID.TID 0000.0001)                 2.489113743322025E+05,      /* J =  7 */
(PID.TID 0000.0001)                 2.598293319150326E+05,      /* J =  8 */
(PID.TID 0000.0001)                 2.692787333338535E+05,      /* J =  9 */
(PID.TID 0000.0001)                 2.773972106720365E+05,      /* J = 10 */
(PID.TID 0000.0001)                 2.842706922224557E+05,      /* J = 11 */
(PID.TID 0000.0001)                 2.899523122489403E+05,      /* J = 12 */
(PID.TID 0000.0001)                 2.944741346384699E+05,      /* J = 13 */
(PID.TID 0000.0001)                 2.978547649292580E+05,      /* J = 14 */
(PID.TID 0000.0001)                 3.001044073506459E+05,      /* J = 15 */
(PID.TID 0000.0001)     2 @  3.012281885409289E+05,             /* J = 16: 17 */
(PID.TID 0000.0001)                 3.001044073506459E+05,      /* J = 18 */
(PID.TID 0000.0001)                 2.978547649292580E+05,      /* J = 19 */
(PID.TID 0000.0001)                 2.944741346384699E+05,      /* J = 20 */
(PID.TID 0000.0001)                 2.899523122489403E+05,      /* J = 21 */
(PID.TID 0000.0001)                 2.842706922224557E+05,      /* J = 22 */
(PID.TID 0000.0001)                 2.773972106720365E+05,      /* J = 23 */
(PID.TID 0000.0001)                 2.692787333338535E+05,      /* J = 24 */
(PID.TID 0000.0001)                 2.598293319150326E+05,      /* J = 25 */
(PID.TID 0000.0001)                 2.489113743322025E+05,      /* J = 26 */
(PID.TID 0000.0001)                 2.363029564123586E+05,      /* J = 27 */
(PID.TID 0000.0001)                 2.216367828252819E+05,      /* J = 28 */
(PID.TID 0000.0001)                 2.042717761866506E+05,      /* J = 29 */
(PID.TID 0000.0001)                 1.829777599966776E+05,      /* J = 30 */
(PID.TID 0000.0001)                 1.549545757850771E+05,      /* J = 31 */
(PID.TID 0000.0001)                 1.114203141013064E+05       /* J = 32 */
(PID.TID 0000.0001)     ;
(PID.TID 0000.0001) dyC =  /* dyC(:,1,:,1) ( units: m ) */
(PID.TID 0000.0001)                 1.114203141013064E+05,      /* I =  1 */
(PID.TID 0000.0001)                 1.549545757850771E+05,      /* I =  2 */
(PID.TID 0000.0001)                 1.829777599966776E+05,      /* I =  3 */
(PID.TID 0000.0001)                 2.042717761866506E+05,      /* I =  4 */
(PID.TID 0000.0001)                 2.216367828252819E+05,      /* I =  5 */
(PID.TID 0000.0001)                 2.363029564123586E+05,      /* I =  6 */
(PID.TID 0000.0001)                 2.489113743322025E+05,      /* I =  7 */
(PID.TID 0000.0001)                 2.598293319150326E+05,      /* I =  8 */
(PID.TID 0000.0001)                 2.692787333338535E+05,      /* I =  9 */
(PID.TID 0000.0001)                 2.773972106720365E+05,      /* I = 10 */
(PID.TID 0000.0001)                 2.842706922224557E+05,      /* I = 11 */
(PID.TID 0000.0001)                 2.899523122489403E+05,      /* I = 12 */
(PID.TID 0000.0001)                 2.944741346384699E+05,      /* I = 13 */
(PID.TID 0000.0001)                 2.978547649292580E+05,      /* I = 14 */
(PID.TID 0000.0001)                 3.001044073506459E+05,      /* I = 15 */
(PID.TID 0000.0001)     2 @  3.012281885409289E+05,             /* I = 16: 17 */
(PID.TID 0000.0001)                 3.001044073506459E+05,      /* I = 18 */
(PID.TID 0000.0001)                 2.978547649292580E+05,      /* I = 19 */
(PID.TID 0000.0001)                 2.944741346384699E+05,      /* I = 20 */
(PID.TID 0000.0001)                 2.899523122489403E+05,      /* I = 21 */
(PID.TID 0000.0001)                 2.842706922224557E+05,      /* I = 22 */
(PID.TID 0000.0001)                 2.773972106720365E+05,      /* I = 23 */
(PID.TID 0000.0001)                 2.692787333338535E+05,      /* I = 24 */
(PID.TID 0000.0001)                 2.598293319150326E+05,      /* I = 25 */
(PID.TID 0000.0001)                 2.489113743322025E+05,      /* I = 26 */
(PID.TID 0000.0001)                 2.363029564123586E+05,      /* I = 27 */
(PID.TID 0000.0001)                 2.216367828252819E+05,      /* I = 28 */
(PID.TID 0000.0001)                 2.042717761866506E+05,      /* I = 29 */
(PID.TID 0000.0001)                 1.829777599966776E+05,      /* I = 30 */
(PID.TID 0000.0001)                 1.549545757850771E+05,      /* I = 31 */
(PID.TID 0000.0001)                 1.114203141013064E+05       /* I = 32 */
(PID.TID 0000.0001)     ;
(PID.TID 0000.0001) dyC =  /* dyC(1,:,1,:) ( units: m ) */
(PID.TID 0000.0001)                 1.114203141013064E+05,      /* J =  1 */
(PID.TID 0000.0001)                 1.391343389937106E+05,      /* J =  2 */
(PID.TID 0000.0001)                 1.709574999026266E+05,      /* J =  3 */
(PID.TID 0000.0001)                 1.946503699269892E+05,      /* J =  4 */
(PID.TID 0000.0001)                 2.135964483342134E+05,      /* J =  5 */
(PID.TID 0000.0001)                 2.294195678257306E+05,      /* J =  6 */
(PID.TID 0000.0001)                 2.429464709770498E+05,      /* J =  7 */
(PID.TID 0000.0001)                 2.546408290696998E+05,      /* J =  8 */
(PID.TID 0000.0001)                 2.647791839299727E+05,      /* J =  9 */
(PID.TID 0000.0001)                 2.735321911346108E+05,      /* J = 10 */
(PID.TID 0000.0001)                 2.810065951609633E+05,      /* J = 11 */
(PID.TID 0000.0001)                 2.872689479506990E+05,      /* J = 12 */
(PID.TID 0000.0001)                 2.923599955312932E+05,      /* J = 13 */
(PID.TID 0000.0001)                 2.963038832565530E+05,      /* J = 14 */
(PID.TID 0000.0001)                 2.991142470004740E+05,      /* J = 15 */
(PID.TID 0000.0001)                 3.007982711627968E+05,      /* J = 16 */
(PID.TID 0000.0001)                 3.013593857228136E+05,      /* J = 17 */
(PID.TID 0000.0001)                 3.007982711627968E+05,      /* J = 18 */
(PID.TID 0000.0001)                 2.991142470004740E+05,      /* J = 19 */
(PID.TID 0000.0001)                 2.963038832565530E+05,      /* J = 20 */
(PID.TID 0000.0001)                 2.923599955312932E+05,      /* J = 21 */
(PID.TID 0000.0001)                 2.872689479506990E+05,      /* J = 22 */
(PID.TID 0000.0001)                 2.810065951609633E+05,      /* J = 23 */
(PID.TID 0000.0001)                 2.735321911346108E+05,      /* J = 24 */
(PID.TID 0000.0001)                 2.647791839299727E+05,      /* J = 25 */
(PID.TID 0000.0001)                 2.546408290696998E+05,      /* J = 26 */
(PID.TID 0000.0001)                 2.429464709770498E+05,      /* J = 27 */
(PID.TID 0000.0001)                 2.294195678257306E+05,      /* J = 28 */
(PID.TID 0000.0001)                 2.135964483342134E+05,      /* J = 29 */
(PID.TID 0000.0001)                 1.946503699269892E+05,      /* J = 30 */
(PID.TID 0000.0001)                 1.709574999026266E+05,      /* J = 31 */
(PID.TID 0000.0001)                 1.391343389937106E+05       /* J = 32 */
(PID.TID 0000.0001)     ;
(PID.TID 0000.0001) dxV =  /* dxV(:,1,:,1) ( units: m ) */
(PID.TID 0000.0001)                 8.015229982413632E+04,      /* I =  1 */
(PID.TID 0000.0001)                 1.333130744933864E+05,      /* I =  2 */
(PID.TID 0000.0001)                 1.691744868129062E+05,      /* I =  3 */
(PID.TID 0000.0001)                 1.937548202849060E+05,      /* I =  4 */
(PID.TID 0000.0001)                 2.130490056267208E+05,      /* I =  5 */
(PID.TID 0000.0001)                 2.290479919481738E+05,      /* I =  6 */
(PID.TID 0000.0001)                 2.426774358027003E+05,      /* I =  7 */
(PID.TID 0000.0001)                 2.544372984215561E+05,      /* I =  8 */
(PID.TID 0000.0001)                 2.646201463834826E+05,      /* I =  9 */
(PID.TID 0000.0001)                 2.734046499619031E+05,      /* I = 10 */
(PID.TID 0000.0001)                 2.809019351693761E+05,      /* I = 11 */
(PID.TID 0000.0001)                 2.871811105274442E+05,      /* I = 12 */
(PID.TID 0000.0001)                 2.922844849381675E+05,      /* I = 13 */
(PID.TID 0000.0001)                 2.962371870847826E+05,      /* I = 14 */
(PID.TID 0000.0001)                 2.990534755671296E+05,      /* I = 15 */
(PID.TID 0000.0001)                 3.007409169495504E+05,      /* I = 16 */
(PID.TID 0000.0001)                 3.013031486919771E+05,      /* I = 17 */
(PID.TID 0000.0001)                 3.007409169495504E+05,      /* I = 18 */
(PID.TID 0000.0001)                 2.990534755671296E+05,      /* I = 19 */
(PID.TID 0000.0001)                 2.962371870847826E+05,      /* I = 20 */
(PID.TID 0000.0001)                 2.922844849381675E+05,      /* I = 21 */
(PID.TID 0000.0001)                 2.871811105274442E+05,      /* I = 22 */
(PID.TID 0000.0001)                 2.809019351693761E+05,      /* I = 23 */
(PID.TID 0000.0001)                 2.734046499619031E+05,      /* I = 24 */
(PID.TID 0000.0001)                 2.646201463834826E+05,      /* I = 25 */
(PID.TID 0000.0001)                 2.544372984215561E+05,      /* I = 26 */
(PID.TID 0000.0001)                 2.426774358027003E+05,      /* I = 27 */
(PID.TID 0000.0001)                 2.290479919481738E+05,      /* I = 28 */
(PID.TID 0000.0001)                 2.130490056267208E+05,      /* I = 29 */
(PID.TID 0000.0001)                 1.937548202849060E+05,      /* I = 30 */
(PID.TID 0000.0001)                 1.691744868129062E+05,      /* I = 31 */
(PID.TID 0000.0001)                 1.333130744933864E+05       /* I = 32 */
(PID.TID 0000.0001)     ;
(PID.TID 0000.0001) dxV =  /* dxV(1,:,1,:) ( units: m ) */
(PID.TID 0000.0001)                 8.015229982413632E+04,      /* J =  1 */
(PID.TID 0000.0001)                 1.362652340208229E+05,      /* J =  2 */
(PID.TID 0000.0001)                 1.701080315742101E+05,      /* J =  3 */
(PID.TID 0000.0001)                 1.942331448101592E+05,      /* J =  4 */
(PID.TID 0000.0001)                 2.133486626971531E+05,      /* J =  5 */
(PID.TID 0000.0001)                 2.292584591272880E+05,      /* J =  6 */
(PID.TID 0000.0001)                 2.428369969078989E+05,      /* J =  7 */
(PID.TID 0000.0001)                 2.545652950875683E+05,      /* J =  8 */
(PID.TID 0000.0001)                 2.647274964828301E+05,      /* J =  9 */
(PID.TID 0000.0001)                 2.734980225206389E+05,      /* J = 10 */
(PID.TID 0000.0001)                 2.809856491525217E+05,      /* J = 11 */
(PID.TID 0000.0001)                 2.872580915202295E+05,      /* J = 12 */
(PID.TID 0000.0001)                 2.923567890694162E+05,      /* J = 13 */
(PID.TID 0000.0001)                 2.963063101754721E+05,      /* J = 14 */
(PID.TID 0000.0001)                 2.991205495886625E+05,      /* J = 15 */
(PID.TID 0000.0001)                 3.008068453676764E+05,      /* J = 16 */
(PID.TID 0000.0001)                 3.013686170436881E+05,      /* J = 17 */
(PID.TID 0000.0001)                 3.008068453676764E+05,      /* J = 18 */
(PID.TID 0000.0001)                 2.991205495886625E+05,      /* J = 19 */
(PID.TID 0000.0001)                 2.963063101754721E+05,      /* J = 20 */
(PID.TID 0000.0001)                 2.923567890694162E+05,      /* J = 21 */
(PID.TID 0000.0001)                 2.872580915202295E+05,      /* J = 22 */
(PID.TID 0000.0001)                 2.809856491525217E+05,      /* J = 23 */
(PID.TID 0000.0001)                 2.734980225206389E+05,      /* J = 24 */
(PID.TID 0000.0001)                 2.647274964828301E+05,      /* J = 25 */
(PID.TID 0000.0001)                 2.545652950875683E+05,      /* J = 26 */
(PID.TID 0000.0001)                 2.428369969078989E+05,      /* J = 27 */
(PID.TID 0000.0001)                 2.292584591272880E+05,      /* J = 28 */
(PID.TID 0000.0001)                 2.133486626971531E+05,      /* J = 29 */
(PID.TID 0000.0001)                 1.942331448101592E+05,      /* J = 30 */
(PID.TID 0000.0001)                 1.701080315742101E+05,      /* J = 31 */
(PID.TID 0000.0001)                 1.362652340208229E+05       /* J = 32 */
(PID.TID 0000.0001)     ;
(PID.TID 0000.0001) dyU =  /* dyU(:,1,:,1) ( units: m ) */
(PID.TID 0000.0001)                 8.015229982413632E+04,      /* I =  1 */
(PID.TID 0000.0001)                 1.362652340208229E+05,      /* I =  2 */
(PID.TID 0000.0001)                 1.701080315742101E+05,      /* I =  3 */
(PID.TID 0000.0001)                 1.942331448101592E+05,      /* I =  4 */
(PID.TID 0000.0001)                 2.133486626971531E+05,      /* I =  5 */
(PID.TID 0000.0001)                 2.292584591272880E+05,      /* I =  6 */
(PID.TID 0000.0001)                 2.428369969078989E+05,      /* I =  7 */
(PID.TID 0000.0001)                 2.545652950875683E+05,      /* I =  8 */
(PID.TID 0000.0001)                 2.647274964828301E+05,      /* I =  9 */
(PID.TID 0000.0001)                 2.734980225206389E+05,      /* I = 10 */
(PID.TID 0000.0001)                 2.809856491525217E+05,      /* I = 11 */
(PID.TID 0000.0001)                 2.872580915202295E+05,      /* I = 12 */
(PID.TID 0000.0001)                 2.923567890694162E+05,      /* I = 13 */
(PID.TID 0000.0001)                 2.963063101754721E+05,      /* I = 14 */
(PID.TID 0000.0001)                 2.991205495886625E+05,      /* I = 15 */
(PID.TID 0000.0001)                 3.008068453676764E+05,      /* I = 16 */
(PID.TID 0000.0001)                 3.013686170436881E+05,      /* I = 17 */
(PID.TID 0000.0001)                 3.008068453676764E+05,      /* I = 18 */
(PID.TID 0000.0001)                 2.991205495886625E+05,      /* I = 19 */
(PID.TID 0000.0001)                 2.963063101754721E+05,      /* I = 20 */
(PID.TID 0000.0001)                 2.923567890694162E+05,      /* I = 21 */
(PID.TID 0000.0001)                 2.872580915202295E+05,      /* I = 22 */
(PID.TID 0000.0001)                 2.809856491525217E+05,      /* I = 23 */
(PID.TID 0000.0001)                 2.734980225206389E+05,      /* I = 24 */
(PID.TID 0000.0001)                 2.647274964828301E+05,      /* I = 25 */
(PID.TID 0000.0001)                 2.545652950875683E+05,      /* I = 26 */
(PID.TID 0000.0001)                 2.428369969078989E+05,      /* I = 27 */
(PID.TID 0000.0001)                 2.292584591272880E+05,      /* I = 28 */
(PID.TID 0000.0001)                 2.133486626971531E+05,      /* I = 29 */
(PID.TID 0000.0001)                 1.942331448101592E+05,      /* I = 30 */
(PID.TID 0000.0001)                 1.701080315742101E+05,      /* I = 31 */
(PID.TID 0000.0001)                 1.362652340208229E+05       /* I = 32 */
(PID.TID 0000.0001)     ;
(PID.TID 0000.0001) dyU =  /* dyU(1,:,1,:) ( units: m ) */
(PID.TID 0000.0001)                 8.015229982413632E+04,      /* J =  1 */
(PID.TID 0000.0001)                 1.333130744933864E+05,      /* J =  2 */
(PID.TID 0000.0001)                 1.691744868129062E+05,      /* J =  3 */
(PID.TID 0000.0001)                 1.937548202849060E+05,      /* J =  4 */
(PID.TID 0000.0001)                 2.130490056267208E+05,      /* J =  5 */
(PID.TID 0000.0001)                 2.290479919481738E+05,      /* J =  6 */
(PID.TID 0000.0001)                 2.426774358027003E+05,      /* J =  7 */
(PID.TID 0000.0001)                 2.544372984215561E+05,      /* J =  8 */
(PID.TID 0000.0001)                 2.646201463834826E+05,      /* J =  9 */
(PID.TID 0000.0001)                 2.734046499619031E+05,      /* J = 10 */
(PID.TID 0000.0001)                 2.809019351693761E+05,      /* J = 11 */
(PID.TID 0000.0001)                 2.871811105274442E+05,      /* J = 12 */
(PID.TID 0000.0001)                 2.922844849381675E+05,      /* J = 13 */
(PID.TID 0000.0001)                 2.962371870847826E+05,      /* J = 14 */
(PID.TID 0000.0001)                 2.990534755671296E+05,      /* J = 15 */
(PID.TID 0000.0001)                 3.007409169495504E+05,      /* J = 16 */
(PID.TID 0000.0001)                 3.013031486919771E+05,      /* J = 17 */
(PID.TID 0000.0001)                 3.007409169495504E+05,      /* J = 18 */
(PID.TID 0000.0001)                 2.990534755671296E+05,      /* J = 19 */
(PID.TID 0000.0001)                 2.962371870847826E+05,      /* J = 20 */
(PID.TID 0000.0001)                 2.922844849381675E+05,      /* J = 21 */
(PID.TID 0000.0001)                 2.871811105274442E+05,      /* J = 22 */
(PID.TID 0000.0001)                 2.809019351693761E+05,      /* J = 23 */
(PID.TID 0000.0001)                 2.734046499619031E+05,      /* J = 24 */
(PID.TID 0000.0001)                 2.646201463834826E+05,      /* J = 25 */
(PID.TID 0000.0001)                 2.544372984215561E+05,      /* J = 26 */
(PID.TID 0000.0001)                 2.426774358027003E+05,      /* J = 27 */
(PID.TID 0000.0001)                 2.290479919481738E+05,      /* J = 28 */
(PID.TID 0000.0001)                 2.130490056267208E+05,      /* J = 29 */
(PID.TID 0000.0001)                 1.937548202849060E+05,      /* J = 30 */
(PID.TID 0000.0001)                 1.691744868129062E+05,      /* J = 31 */
(PID.TID 0000.0001)                 1.333130744933864E+05       /* J = 32 */
(PID.TID 0000.0001)     ;
(PID.TID 0000.0001) rA  =  /* rA (:,1,:,1) ( units: m^2 ) */
(PID.TID 0000.0001)                 1.401900702255611E+10,      /* I =  1 */
(PID.TID 0000.0001)                 2.459906945574446E+10,      /* I =  2 */
(PID.TID 0000.0001)                 3.378518544307869E+10,      /* I =  3 */
(PID.TID 0000.0001)                 4.192037169898667E+10,      /* I =  4 */
(PID.TID 0000.0001)                 4.925938996118163E+10,      /* I =  5 */
(PID.TID 0000.0001)                 5.594154126607553E+10,      /* I =  6 */
(PID.TID 0000.0001)                 6.203683527772523E+10,      /* I =  7 */
(PID.TID 0000.0001)                 6.757541173817516E+10,      /* I =  8 */
(PID.TID 0000.0001)                 7.256353271748119E+10,      /* I =  9 */
(PID.TID 0000.0001)                 7.699293007098555E+10,      /* I = 10 */
(PID.TID 0000.0001)                 8.084683449728902E+10,      /* I = 11 */
(PID.TID 0000.0001)                 8.410423102796223E+10,      /* I = 12 */
(PID.TID 0000.0001)                 8.674306976737517E+10,      /* I = 13 */
(PID.TID 0000.0001)                 8.874277443041928E+10,      /* I = 14 */
(PID.TID 0000.0001)                 9.008620045350865E+10,      /* I = 15 */
(PID.TID 0000.0001)                 9.076111290418457E+10,      /* I = 16 */
(PID.TID 0000.0001)                 9.076111290422060E+10,      /* I = 17 */
(PID.TID 0000.0001)                 9.008620045354469E+10,      /* I = 18 */
(PID.TID 0000.0001)                 8.874277443041928E+10,      /* I = 19 */
(PID.TID 0000.0001)                 8.674306976741121E+10,      /* I = 20 */
(PID.TID 0000.0001)                 8.410423102799828E+10,      /* I = 21 */
(PID.TID 0000.0001)                 8.084683449728902E+10,      /* I = 22 */
(PID.TID 0000.0001)                 7.699293007098555E+10,      /* I = 23 */
(PID.TID 0000.0001)                 7.256353271748119E+10,      /* I = 24 */
(PID.TID 0000.0001)                 6.757541173817516E+10,      /* I = 25 */
(PID.TID 0000.0001)                 6.203683527772523E+10,      /* I = 26 */
(PID.TID 0000.0001)                 5.594154126611156E+10,      /* I = 27 */
(PID.TID 0000.0001)                 4.925938996118163E+10,      /* I = 28 */
(PID.TID 0000.0001)                 4.192037169898667E+10,      /* I = 29 */
(PID.TID 0000.0001)                 3.378518544304265E+10,      /* I = 30 */
(PID.TID 0000.0001)                 2.459906945574446E+10,      /* I = 31 */
(PID.TID 0000.0001)                 1.401900702259215E+10       /* I = 32 */
(PID.TID 0000.0001)     ;
(PID.TID 0000.0001) rA  =  /* rA (1,:,1,:) ( units: m^2 ) */
(PID.TID 0000.0001)                 1.401900702255611E+10,      /* J =  1 */
(PID.TID 0000.0001)                 2.459906945574446E+10,      /* J =  2 */
(PID.TID 0000.0001)                 3.378518544307869E+10,      /* J =  3 */
(PID.TID 0000.0001)                 4.192037169898667E+10,      /* J =  4 */
(PID.TID 0000.0001)                 4.925938996118163E+10,      /* J =  5 */
(PID.TID 0000.0001)                 5.594154126607553E+10,      /* J =  6 */
(PID.TID 0000.0001)                 6.203683527776127E+10,      /* J =  7 */
(PID.TID 0000.0001)                 6.757541173817516E+10,      /* J =  8 */
(PID.TID 0000.0001)                 7.256353271748119E+10,      /* J =  9 */
(PID.TID 0000.0001)                 7.699293007098555E+10,      /* J = 10 */
(PID.TID 0000.0001)                 8.084683449728902E+10,      /* J = 11 */
(PID.TID 0000.0001)                 8.410423102799828E+10,      /* J = 12 */
(PID.TID 0000.0001)                 8.674306976737517E+10,      /* J = 13 */
(PID.TID 0000.0001)                 8.874277443041928E+10,      /* J = 14 */
(PID.TID 0000.0001)                 9.008620045350865E+10,      /* J = 15 */
(PID.TID 0000.0001)                 9.076111290418457E+10,      /* J = 16 */
(PID.TID 0000.0001)                 9.076111290422060E+10,      /* J = 17 */
(PID.TID 0000.0001)                 9.008620045354469E+10,      /* J = 18 */
(PID.TID 0000.0001)                 8.874277443041928E+10,      /* J = 19 */
(PID.TID 0000.0001)                 8.674306976737517E+10,      /* J = 20 */
(PID.TID 0000.0001)                 8.410423102799828E+10,      /* J = 21 */
(PID.TID 0000.0001)                 8.084683449728902E+10,      /* J = 22 */
(PID.TID 0000.0001)                 7.699293007098555E+10,      /* J = 23 */
(PID.TID 0000.0001)                 7.256353271748119E+10,      /* J = 24 */
(PID.TID 0000.0001)                 6.757541173817516E+10,      /* J = 25 */
(PID.TID 0000.0001)                 6.203683527772523E+10,      /* J = 26 */
(PID.TID 0000.0001)                 5.594154126607553E+10,      /* J = 27 */
(PID.TID 0000.0001)                 4.925938996118163E+10,      /* J = 28 */
(PID.TID 0000.0001)                 4.192037169898667E+10,      /* J = 29 */
(PID.TID 0000.0001)                 3.378518544307869E+10,      /* J = 30 */
(PID.TID 0000.0001)                 2.459906945574446E+10,      /* J = 31 */
(PID.TID 0000.0001)                 1.401900702259215E+10       /* J = 32 */
(PID.TID 0000.0001)     ;
(PID.TID 0000.0001) rAw =  /* rAw(:,1,:,1) ( units: m^2 ) */
(PID.TID 0000.0001)                 1.216690346714270E+10,      /* I =  1 */
(PID.TID 0000.0001)                 1.974052138506315E+10,      /* I =  2 */
(PID.TID 0000.0001)                 2.943712825252015E+10,      /* I =  3 */
(PID.TID 0000.0001)                 3.801790263324359E+10,      /* I =  4 */
(PID.TID 0000.0001)                 4.571243814189866E+10,      /* I =  5 */
(PID.TID 0000.0001)                 5.269930713599979E+10,      /* I =  6 */
(PID.TID 0000.0001)                 5.907428494299063E+10,      /* I =  7 */
(PID.TID 0000.0001)                 6.488320895111514E+10,      /* I =  8 */
(PID.TID 0000.0001)                 7.014205907741882E+10,      /* I =  9 */
(PID.TID 0000.0001)                 7.484854821847499E+10,      /* I = 10 */
(PID.TID 0000.0001)                 7.898934631431560E+10,      /* I = 11 */
(PID.TID 0000.0001)                 8.254500894894537E+10,      /* I = 12 */
(PID.TID 0000.0001)                 8.549360686473492E+10,      /* I = 13 */
(PID.TID 0000.0001)                 8.781353403175085E+10,      /* I = 14 */
(PID.TID 0000.0001)                 8.948571540392021E+10,      /* I = 15 */
(PID.TID 0000.0001)                 9.049530583086168E+10,      /* I = 16 */
(PID.TID 0000.0001)                 9.083293515008307E+10,      /* I = 17 */
(PID.TID 0000.0001)                 9.049530583087070E+10,      /* I = 18 */
(PID.TID 0000.0001)                 8.948571540391121E+10,      /* I = 19 */
(PID.TID 0000.0001)                 8.781353403174185E+10,      /* I = 20 */
(PID.TID 0000.0001)                 8.549360686467184E+10,      /* I = 21 */
(PID.TID 0000.0001)                 8.254500894890933E+10,      /* I = 22 */
(PID.TID 0000.0001)                 7.898934631434262E+10,      /* I = 23 */
(PID.TID 0000.0001)                 7.484854821844795E+10,      /* I = 24 */
(PID.TID 0000.0001)                 7.014205907742783E+10,      /* I = 25 */
(PID.TID 0000.0001)                 6.488320895111514E+10,      /* I = 26 */
(PID.TID 0000.0001)                 5.907428494299063E+10,      /* I = 27 */
(PID.TID 0000.0001)                 5.269930713599078E+10,      /* I = 28 */
(PID.TID 0000.0001)                 4.571243814190767E+10,      /* I = 29 */
(PID.TID 0000.0001)                 3.801790263325260E+10,      /* I = 30 */
(PID.TID 0000.0001)                 2.943712825251114E+10,      /* I = 31 */
(PID.TID 0000.0001)                 1.974052138509018E+10       /* I = 32 */
(PID.TID 0000.0001)     ;
(PID.TID 0000.0001) rAw =  /* rAw(1,:,1,:) ( units: m^2 ) */
(PID.TID 0000.0001)                 1.216690346714270E+10,      /* J =  1 */
(PID.TID 0000.0001)                 2.390126200743558E+10,      /* J =  2 */
(PID.TID 0000.0001)                 3.341968103208270E+10,      /* J =  3 */
(PID.TID 0000.0001)                 4.168532893152940E+10,      /* J =  4 */
(PID.TID 0000.0001)                 4.909074590409593E+10,      /* J =  5 */
(PID.TID 0000.0001)                 5.581203765722643E+10,      /* J =  6 */
(PID.TID 0000.0001)                 6.193257577506788E+10,      /* J =  7 */
(PID.TID 0000.0001)                 6.748840226738273E+10,      /* J =  8 */
(PID.TID 0000.0001)                 7.248875782324815E+10,      /* J =  9 */
(PID.TID 0000.0001)                 7.692702995909871E+10,      /* J = 10 */
(PID.TID 0000.0001)                 8.078743937057304E+10,      /* J = 11 */
(PID.TID 0000.0001)                 8.404959656062837E+10,      /* J = 12 */
(PID.TID 0000.0001)                 8.669186205742538E+10,      /* J = 13 */
(PID.TID 0000.0001)                 8.869393350723613E+10,      /* J = 14 */
(PID.TID 0000.0001)                 9.003884657168852E+10,      /* J = 15 */
(PID.TID 0000.0001)     2 @  9.071447638299399E+10,             /* J = 16: 17 */
(PID.TID 0000.0001)                 9.003884657168852E+10,      /* J = 18 */
(PID.TID 0000.0001)                 8.869393350723613E+10,      /* J = 19 */
(PID.TID 0000.0001)                 8.669186205742538E+10,      /* J = 20 */
(PID.TID 0000.0001)                 8.404959656062837E+10,      /* J = 21 */
(PID.TID 0000.0001)                 8.078743937057304E+10,      /* J = 22 */
(PID.TID 0000.0001)                 7.692702995909871E+10,      /* J = 23 */
(PID.TID 0000.0001)                 7.248875782324815E+10,      /* J = 24 */
(PID.TID 0000.0001)                 6.748840226738273E+10,      /* J = 25 */
(PID.TID 0000.0001)                 6.193257577506788E+10,      /* J = 26 */
(PID.TID 0000.0001)                 5.581203765722643E+10,      /* J = 27 */
(PID.TID 0000.0001)                 4.909074590409593E+10,      /* J = 28 */
(PID.TID 0000.0001)                 4.168532893152940E+10,      /* J = 29 */
(PID.TID 0000.0001)                 3.341968103208270E+10,      /* J = 30 */
(PID.TID 0000.0001)                 2.390126200743558E+10,      /* J = 31 */
(PID.TID 0000.0001)                 1.216690346714270E+10       /* J = 32 */
(PID.TID 0000.0001)     ;
(PID.TID 0000.0001) rAs =  /* rAs(:,1,:,1) ( units: m^2 ) */
(PID.TID 0000.0001)                 1.216690346714270E+10,      /* I =  1 */
(PID.TID 0000.0001)                 2.390126200743558E+10,      /* I =  2 */
(PID.TID 0000.0001)                 3.341968103208270E+10,      /* I =  3 */
(PID.TID 0000.0001)                 4.168532893152940E+10,      /* I =  4 */
(PID.TID 0000.0001)                 4.909074590409593E+10,      /* I =  5 */
(PID.TID 0000.0001)                 5.581203765722643E+10,      /* I =  6 */
(PID.TID 0000.0001)                 6.193257577506788E+10,      /* I =  7 */
(PID.TID 0000.0001)                 6.748840226738273E+10,      /* I =  8 */
(PID.TID 0000.0001)                 7.248875782324815E+10,      /* I =  9 */
(PID.TID 0000.0001)                 7.692702995909871E+10,      /* I = 10 */
(PID.TID 0000.0001)                 8.078743937057304E+10,      /* I = 11 */
(PID.TID 0000.0001)                 8.404959656062837E+10,      /* I = 12 */
(PID.TID 0000.0001)                 8.669186205742538E+10,      /* I = 13 */
(PID.TID 0000.0001)                 8.869393350723613E+10,      /* I = 14 */
(PID.TID 0000.0001)                 9.003884657168852E+10,      /* I = 15 */
(PID.TID 0000.0001)     2 @  9.071447638299399E+10,             /* I = 16: 17 */
(PID.TID 0000.0001)                 9.003884657168852E+10,      /* I = 18 */
(PID.TID 0000.0001)                 8.869393350723613E+10,      /* I = 19 */
(PID.TID 0000.0001)                 8.669186205742538E+10,      /* I = 20 */
(PID.TID 0000.0001)                 8.404959656062837E+10,      /* I = 21 */
(PID.TID 0000.0001)                 8.078743937057304E+10,      /* I = 22 */
(PID.TID 0000.0001)                 7.692702995909871E+10,      /* I = 23 */
(PID.TID 0000.0001)                 7.248875782324815E+10,      /* I = 24 */
(PID.TID 0000.0001)                 6.748840226738273E+10,      /* I = 25 */
(PID.TID 0000.0001)                 6.193257577506788E+10,      /* I = 26 */
(PID.TID 0000.0001)                 5.581203765722643E+10,      /* I = 27 */
(PID.TID 0000.0001)                 4.909074590409593E+10,      /* I = 28 */
(PID.TID 0000.0001)                 4.168532893152940E+10,      /* I = 29 */
(PID.TID 0000.0001)                 3.341968103208270E+10,      /* I = 30 */
(PID.TID 0000.0001)                 2.390126200743558E+10,      /* I = 31 */
(PID.TID 0000.0001)                 1.216690346714270E+10       /* I = 32 */
(PID.TID 0000.0001)     ;
(PID.TID 0000.0001) rAs =  /* rAs(1,:,1,:) ( units: m^2 ) */
(PID.TID 0000.0001)                 1.216690346714270E+10,      /* J =  1 */
(PID.TID 0000.0001)                 1.974052138506315E+10,      /* J =  2 */
(PID.TID 0000.0001)                 2.943712825252015E+10,      /* J =  3 */
(PID.TID 0000.0001)                 3.801790263324359E+10,      /* J =  4 */
(PID.TID 0000.0001)                 4.571243814189866E+10,      /* J =  5 */
(PID.TID 0000.0001)                 5.269930713599979E+10,      /* J =  6 */
(PID.TID 0000.0001)                 5.907428494299063E+10,      /* J =  7 */
(PID.TID 0000.0001)                 6.488320895111514E+10,      /* J =  8 */
(PID.TID 0000.0001)                 7.014205907741882E+10,      /* J =  9 */
(PID.TID 0000.0001)                 7.484854821847499E+10,      /* J = 10 */
(PID.TID 0000.0001)                 7.898934631431560E+10,      /* J = 11 */
(PID.TID 0000.0001)                 8.254500894894537E+10,      /* J = 12 */
(PID.TID 0000.0001)                 8.549360686473492E+10,      /* J = 13 */
(PID.TID 0000.0001)                 8.781353403175085E+10,      /* J = 14 */
(PID.TID 0000.0001)                 8.948571540392021E+10,      /* J = 15 */
(PID.TID 0000.0001)                 9.049530583086168E+10,      /* J = 16 */
(PID.TID 0000.0001)                 9.083293515008307E+10,      /* J = 17 */
(PID.TID 0000.0001)                 9.049530583087070E+10,      /* J = 18 */
(PID.TID 0000.0001)                 8.948571540391121E+10,      /* J = 19 */
(PID.TID 0000.0001)                 8.781353403174185E+10,      /* J = 20 */
(PID.TID 0000.0001)                 8.549360686467184E+10,      /* J = 21 */
(PID.TID 0000.0001)                 8.254500894890933E+10,      /* J = 22 */
(PID.TID 0000.0001)                 7.898934631434262E+10,      /* J = 23 */
(PID.TID 0000.0001)                 7.484854821844795E+10,      /* J = 24 */
(PID.TID 0000.0001)                 7.014205907742783E+10,      /* J = 25 */
(PID.TID 0000.0001)                 6.488320895111514E+10,      /* J = 26 */
(PID.TID 0000.0001)                 5.907428494299063E+10,      /* J = 27 */
(PID.TID 0000.0001)                 5.269930713599078E+10,      /* J = 28 */
(PID.TID 0000.0001)                 4.571243814190767E+10,      /* J = 29 */
(PID.TID 0000.0001)                 3.801790263325260E+10,      /* J = 30 */
(PID.TID 0000.0001)                 2.943712825251114E+10,      /* J = 31 */
(PID.TID 0000.0001)                 1.974052138509018E+10       /* J = 32 */
(PID.TID 0000.0001)     ;
(PID.TID 0000.0001) globalArea = /* Integrated horizontal Area (m^2) */
(PID.TID 0000.0001)                 3.638867375081598E+14
(PID.TID 0000.0001)     ;
(PID.TID 0000.0001) hasWetCSCorners = /* Domain contains CS corners (True/False) */
(PID.TID 0000.0001)                   T
(PID.TID 0000.0001)     ;
(PID.TID 0000.0001) // =======================================================
(PID.TID 0000.0001) // End of Model config. summary
(PID.TID 0000.0001) // =======================================================
(PID.TID 0000.0001) 
(PID.TID 0000.0001) == Packages configuration : Check & print summary ==
(PID.TID 0000.0001) 
(PID.TID 0000.0001) KPP_CHECK: #define ALLOW_KPP
(PID.TID 0000.0001)  kpp_freq = /* frequency of KPP calculation */
(PID.TID 0000.0001)                 9.000000000000000E+02
(PID.TID 0000.0001)     ;
(PID.TID 0000.0001) KPP_ghatUseTotalDiffus= /* non-local term fct of total diffus */
(PID.TID 0000.0001)                   F
(PID.TID 0000.0001)     ;
(PID.TID 0000.0001) KPPuseDoubleDiff = /* include double diffusive contrib */
(PID.TID 0000.0001)                   F
(PID.TID 0000.0001)     ;
(PID.TID 0000.0001) LimitHblStable = /* limits depth of hbl if stable cond.*/
(PID.TID 0000.0001)                   T
(PID.TID 0000.0001)     ;
(PID.TID 0000.0001)  minKPPhbl = /* minimum KPPhbl value [m] */
(PID.TID 0000.0001)                 2.500000000000000E+01
(PID.TID 0000.0001)     ;
(PID.TID 0000.0001)  epsln     = /* constant [-] */
(PID.TID 0000.0001)                 9.999999999999999E-21
(PID.TID 0000.0001)     ;
(PID.TID 0000.0001)  phepsi    = /* constant [-] */
(PID.TID 0000.0001)                 1.000000000000000E-10
(PID.TID 0000.0001)     ;
(PID.TID 0000.0001)  epsilon   = /* constant [-] */
(PID.TID 0000.0001)                 1.000000000000000E-01
(PID.TID 0000.0001)     ;
(PID.TID 0000.0001)  vonk      = /* Von Karmans constant [-] */
(PID.TID 0000.0001)                 4.000000000000000E-01
(PID.TID 0000.0001)     ;
(PID.TID 0000.0001)  dB_dz     = /* maximum N^2 in mixed layer [s^-2] */
(PID.TID 0000.0001)                 5.200000000000000E-05
(PID.TID 0000.0001)     ;
(PID.TID 0000.0001)  conc1     = /* scalar constant [-] */
(PID.TID 0000.0001)                 5.000000000000000E+00
(PID.TID 0000.0001)     ;
(PID.TID 0000.0001)  conam     = /* scalar constant [-] */
(PID.TID 0000.0001)                 1.257000000000000E+00
(PID.TID 0000.0001)     ;
(PID.TID 0000.0001)  concm     = /* scalar constant [-] */
(PID.TID 0000.0001)                 8.380000000000001E+00
(PID.TID 0000.0001)     ;
(PID.TID 0000.0001)  conc2     = /* scalar constant [-] */
(PID.TID 0000.0001)                 1.600000000000000E+01
(PID.TID 0000.0001)     ;
(PID.TID 0000.0001)  conas     = /* scalar constant [-] */
(PID.TID 0000.0001)                -2.886000000000000E+01
(PID.TID 0000.0001)     ;
(PID.TID 0000.0001)  concs     = /* scalar constant [-] */
(PID.TID 0000.0001)                 9.895999999999999E+01
(PID.TID 0000.0001)     ;
(PID.TID 0000.0001)  conc3     = /* scalar constant [-] */
(PID.TID 0000.0001)                 1.600000000000000E+01
(PID.TID 0000.0001)     ;
(PID.TID 0000.0001)  zetam     = /* scalar constant [-] */
(PID.TID 0000.0001)                -2.000000000000000E-01
(PID.TID 0000.0001)     ;
(PID.TID 0000.0001)  zetas     = /* scalar constant [-] */
(PID.TID 0000.0001)                -1.000000000000000E+00
(PID.TID 0000.0001)     ;
(PID.TID 0000.0001)  Ricr      = /* critical bulk Richardson Number [-] */
(PID.TID 0000.0001)                 3.559000000000000E-01
(PID.TID 0000.0001)     ;
(PID.TID 0000.0001)  cekman    = /* coeff for Ekman depth [-] */
(PID.TID 0000.0001)                 7.000000000000000E-01
(PID.TID 0000.0001)     ;
(PID.TID 0000.0001)  cmonob    = /* coeff for Monin-Obukhov depth [-] */
(PID.TID 0000.0001)                 1.000000000000000E+00
(PID.TID 0000.0001)     ;
(PID.TID 0000.0001)  concv     = /* buoyancy freq ratio [-] */
(PID.TID 0000.0001)                 1.800000000000000E+00
(PID.TID 0000.0001)     ;
(PID.TID 0000.0001)  hbf       = /* solar radiation depth ratio [-] */
(PID.TID 0000.0001)                 1.000000000000000E+00
(PID.TID 0000.0001)     ;
(PID.TID 0000.0001)  zmin      = /* minimum for zehat in table [m3/s3] */
(PID.TID 0000.0001)                -4.000000000000000E-07
(PID.TID 0000.0001)     ;
(PID.TID 0000.0001)  zmax      = /* maximum for zehat in table [m3/s3] */
(PID.TID 0000.0001)                 0.000000000000000E+00
(PID.TID 0000.0001)     ;
(PID.TID 0000.0001)  umin      = /* minimum for ustar in table [m/s] */
(PID.TID 0000.0001)                 0.000000000000000E+00
(PID.TID 0000.0001)     ;
(PID.TID 0000.0001)  umax      = /* maximum for ustar in table [m/s] */
(PID.TID 0000.0001)                 4.000000000000000E-02
(PID.TID 0000.0001)     ;
(PID.TID 0000.0001) num_v_smooth_Ri = /* number of vertical smoothing */
(PID.TID 0000.0001)                       0
(PID.TID 0000.0001)     ;
(PID.TID 0000.0001)  Riinfty   = /* shear instability Ri number limit [-] */
(PID.TID 0000.0001)                 6.998000000000000E-01
(PID.TID 0000.0001)     ;
(PID.TID 0000.0001)  BVSQcon   = /* Brunt-Vaisala squared (=N^2) [s^-2] */
(PID.TID 0000.0001)                -2.000000000000000E-05
(PID.TID 0000.0001)     ;
(PID.TID 0000.0001)  difm0     = /* max viscosity from shear instab. [m2/s] */
(PID.TID 0000.0001)                 5.000000000000000E-03
(PID.TID 0000.0001)     ;
(PID.TID 0000.0001)  difs0     = /* max diffusiv. from shear instab. [m2/s] */
(PID.TID 0000.0001)                 5.000000000000000E-03
(PID.TID 0000.0001)     ;
(PID.TID 0000.0001)  dift0     = /* max diffusiv. from shear instab. [m2/s] */
(PID.TID 0000.0001)                 5.000000000000000E-03
(PID.TID 0000.0001)     ;
(PID.TID 0000.0001)  difmcon   = /* convective viscosity [m2/s] */
(PID.TID 0000.0001)                 1.000000000000000E-01
(PID.TID 0000.0001)     ;
(PID.TID 0000.0001)  difscon   = /* convective diffusiv. [m2/s] */
(PID.TID 0000.0001)                 1.000000000000000E-01
(PID.TID 0000.0001)     ;
(PID.TID 0000.0001)  diftcon   = /* convective diffusiv. [m2/s] */
(PID.TID 0000.0001)                 1.000000000000000E-01
(PID.TID 0000.0001)     ;
(PID.TID 0000.0001)  Rrho0     = /* double diffusion density ratio [-] */
(PID.TID 0000.0001)                 1.900000000000000E+00
(PID.TID 0000.0001)     ;
(PID.TID 0000.0001)  dsfmax    = /* max diffusiv. for salt fingering [m2/s] */
(PID.TID 0000.0001)                 1.000000000000000E-02
(PID.TID 0000.0001)     ;
(PID.TID 0000.0001)  cstar     = /* coeff for non-locak transport [-] */
(PID.TID 0000.0001)                 1.000000000000000E+01
(PID.TID 0000.0001)     ;
(PID.TID 0000.0001) KPPwriteState = /* write KPP fields to file */
(PID.TID 0000.0001)                   F
(PID.TID 0000.0001)     ;
(PID.TID 0000.0001)  kpp_dumpFreq = /* dump freq of KPP output */
(PID.TID 0000.0001)                 0.000000000000000E+00
(PID.TID 0000.0001)     ;
(PID.TID 0000.0001)  kpp_taveFreq = /* time-averaging freq of KPP output */
(PID.TID 0000.0001)                 0.000000000000000E+00
(PID.TID 0000.0001)     ;
(PID.TID 0000.0001) 
(PID.TID 0000.0001) SEAICE_CHECK: #define ALLOW_SEAICE
(PID.TID 0000.0001) GAD_CHECK: #define ALLOW_GENERIC_ADVDIFF
(PID.TID 0000.0001) // =======================================================
(PID.TID 0000.0001) // Check Model config. (CONFIG_CHECK):
(PID.TID 0000.0001) // CONFIG_CHECK : Normal End
(PID.TID 0000.0001) // =======================================================
(PID.TID 0000.0001) 
(PID.TID 0000.0001) // =======================================================
(PID.TID 0000.0001) // Model current state
(PID.TID 0000.0001) // =======================================================
(PID.TID 0000.0001) 
(PID.TID 0000.0001) // =======================================================
(PID.TID 0000.0001) // Begin MONITOR dynamic field statistics
(PID.TID 0000.0001) // =======================================================
(PID.TID 0000.0001) %MON time_tsnumber                =                 72000
(PID.TID 0000.0001) %MON time_secondsf                =   6.4800000000000E+07
(PID.TID 0000.0001) %MON dynstat_eta_max              =   9.2249308874653E-01
(PID.TID 0000.0001) %MON dynstat_eta_min              =  -1.6181619580030E+00
(PID.TID 0000.0001) %MON dynstat_eta_mean             =   1.4427566214562E-14
(PID.TID 0000.0001) %MON dynstat_eta_sd               =   5.9907976973986E-01
(PID.TID 0000.0001) %MON dynstat_eta_del2             =   7.8581345364806E-04
(PID.TID 0000.0001) %MON dynstat_uvel_max             =   1.8639442347386E-01
(PID.TID 0000.0001) %MON dynstat_uvel_min             =  -2.8803502100767E-01
(PID.TID 0000.0001) %MON dynstat_uvel_mean            =  -4.8902341682382E-04
(PID.TID 0000.0001) %MON dynstat_uvel_sd              =   1.2019174325066E-02
(PID.TID 0000.0001) %MON dynstat_uvel_del2            =   5.1319164728944E-05
(PID.TID 0000.0001) %MON dynstat_vvel_max             =   1.7346247050018E-01
(PID.TID 0000.0001) %MON dynstat_vvel_min             =  -2.2519444280963E-01
(PID.TID 0000.0001) %MON dynstat_vvel_mean            =  -4.0369555007072E-04
(PID.TID 0000.0001) %MON dynstat_vvel_sd              =   1.2636238251488E-02
(PID.TID 0000.0001) %MON dynstat_vvel_del2            =   5.0785056175085E-05
(PID.TID 0000.0001) %MON dynstat_wvel_max             =   1.0116238872727E-04
(PID.TID 0000.0001) %MON dynstat_wvel_min             =  -2.0420736500850E-04
(PID.TID 0000.0001) %MON dynstat_wvel_mean            =  -5.8719527671858E-23
(PID.TID 0000.0001) %MON dynstat_wvel_sd              =   3.9369853827989E-06
(PID.TID 0000.0001) %MON dynstat_wvel_del2            =   2.8535203727532E-08
(PID.TID 0000.0001) %MON dynstat_theta_max            =   3.0925958904704E+01
(PID.TID 0000.0001) %MON dynstat_theta_min            =  -2.0226009727838E+00
(PID.TID 0000.0001) %MON dynstat_theta_mean           =   3.9079287062875E+00
(PID.TID 0000.0001) %MON dynstat_theta_sd             =   4.5703336804364E+00
(PID.TID 0000.0001) %MON dynstat_theta_del2           =   2.6645916801740E-03
(PID.TID 0000.0001) %MON dynstat_salt_max             =   4.1386265990462E+01
(PID.TID 0000.0001) %MON dynstat_salt_min             =   1.8383410676806E+01
(PID.TID 0000.0001) %MON dynstat_salt_mean            =   3.4772064936762E+01
(PID.TID 0000.0001) %MON dynstat_salt_sd              =   5.3181279838496E-01
(PID.TID 0000.0001) %MON dynstat_salt_del2            =   8.1089014265752E-04
(PID.TID 0000.0001) %MON dynstat_sst_max              =   3.0925958904704E+01
(PID.TID 0000.0001) %MON dynstat_sst_min              =  -1.9648692042086E+00
(PID.TID 0000.0001) %MON dynstat_sst_mean             =   1.8113137824165E+01
(PID.TID 0000.0001) %MON dynstat_sst_sd               =   9.7982972159706E+00
(PID.TID 0000.0001) %MON dynstat_sst_del2             =   1.5454157826167E-02
(PID.TID 0000.0001) %MON dynstat_sss_max              =   4.1386265990462E+01
(PID.TID 0000.0001) %MON dynstat_sss_min              =   1.8383410676806E+01
(PID.TID 0000.0001) %MON dynstat_sss_mean             =   3.4632078412677E+01
(PID.TID 0000.0001) %MON dynstat_sss_sd               =   1.4684189495322E+00
(PID.TID 0000.0001) %MON dynstat_sss_del2             =   8.0812048509615E-03
(PID.TID 0000.0001) %MON forcing_qnet_max             =   0.0000000000000E+00
(PID.TID 0000.0001) %MON forcing_qnet_min             =   0.0000000000000E+00
(PID.TID 0000.0001) %MON forcing_qnet_mean            =   0.0000000000000E+00
(PID.TID 0000.0001) %MON forcing_qnet_sd              =   0.0000000000000E+00
(PID.TID 0000.0001) %MON forcing_qnet_del2            =   0.0000000000000E+00
(PID.TID 0000.0001) %MON forcing_qsw_max              =   0.0000000000000E+00
(PID.TID 0000.0001) %MON forcing_qsw_min              =   0.0000000000000E+00
(PID.TID 0000.0001) %MON forcing_qsw_mean             =   0.0000000000000E+00
(PID.TID 0000.0001) %MON forcing_qsw_sd               =   0.0000000000000E+00
(PID.TID 0000.0001) %MON forcing_qsw_del2             =   0.0000000000000E+00
(PID.TID 0000.0001) %MON forcing_empmr_max            =   0.0000000000000E+00
(PID.TID 0000.0001) %MON forcing_empmr_min            =   0.0000000000000E+00
(PID.TID 0000.0001) %MON forcing_empmr_mean           =   0.0000000000000E+00
(PID.TID 0000.0001) %MON forcing_empmr_sd             =   0.0000000000000E+00
(PID.TID 0000.0001) %MON forcing_empmr_del2           =   0.0000000000000E+00
(PID.TID 0000.0001) %MON forcing_fu_max               =   0.0000000000000E+00
(PID.TID 0000.0001) %MON forcing_fu_min               =   0.0000000000000E+00
(PID.TID 0000.0001) %MON forcing_fu_mean              =   0.0000000000000E+00
(PID.TID 0000.0001) %MON forcing_fu_sd                =   0.0000000000000E+00
(PID.TID 0000.0001) %MON forcing_fu_del2              =   0.0000000000000E+00
(PID.TID 0000.0001) %MON forcing_fv_max               =   0.0000000000000E+00
(PID.TID 0000.0001) %MON forcing_fv_min               =   0.0000000000000E+00
(PID.TID 0000.0001) %MON forcing_fv_mean              =   0.0000000000000E+00
(PID.TID 0000.0001) %MON forcing_fv_sd                =   0.0000000000000E+00
(PID.TID 0000.0001) %MON forcing_fv_del2              =   0.0000000000000E+00
(PID.TID 0000.0001) %MON trAdv_CFL_u_max              =   0.0000000000000E+00
(PID.TID 0000.0001) %MON trAdv_CFL_v_max              =   0.0000000000000E+00
(PID.TID 0000.0001) %MON trAdv_CFL_w_max              =   0.0000000000000E+00
(PID.TID 0000.0001) %MON advcfl_uvel_max              =   8.5096037087284E-04
(PID.TID 0000.0001) %MON advcfl_vvel_max              =   7.8760257411030E-04
(PID.TID 0000.0001) %MON advcfl_wvel_max              =   6.9353444719867E-04
(PID.TID 0000.0001) %MON advcfl_W_hf_max              =   7.6577761878186E-04
(PID.TID 0000.0001) %MON pe_b_mean                    =   4.7795760187413E-04
(PID.TID 0000.0001) %MON ke_max                       =   4.0700605717495E-02
(PID.TID 0000.0001) %MON ke_mean                      =   1.4063245014589E-04
(PID.TID 0000.0001) %MON ke_vol                       =   1.3402480188952E+18
(PID.TID 0000.0001) %MON vort_r_min                   =  -1.1843904755479E-06
(PID.TID 0000.0001) %MON vort_r_max                   =   1.2148454936551E-06
(PID.TID 0000.0001) %MON vort_a_mean                  =  -2.0478886471421E-05
(PID.TID 0000.0001) %MON vort_a_sd                    =   7.5252156619213E-05
(PID.TID 0000.0001) %MON vort_p_mean                  =  -2.4400300928341E-05
(PID.TID 0000.0001) %MON vort_p_sd                    =   1.1323522490933E-04
(PID.TID 0000.0001) %MON surfExpan_theta_mean         =   4.3314128011483E-08
(PID.TID 0000.0001) %MON surfExpan_salt_mean          =   1.2230139548330E-08
(PID.TID 0000.0001) // =======================================================
(PID.TID 0000.0001) // End MONITOR dynamic field statistics
(PID.TID 0000.0001) // =======================================================
(PID.TID 0000.0001) // =======================================================
(PID.TID 0000.0001) // Begin MONITOR SEAICE statistics
(PID.TID 0000.0001) // =======================================================
(PID.TID 0000.0001) %MON seaice_tsnumber              =                 72000
(PID.TID 0000.0001) %MON seaice_time_sec              =   6.4800000000000E+07
(PID.TID 0000.0001) %MON seaice_uice_max              =   4.0000000000000E-01
(PID.TID 0000.0001) %MON seaice_uice_min              =  -4.0000000000000E-01
(PID.TID 0000.0001) %MON seaice_uice_mean             =  -1.4584960473672E-02
(PID.TID 0000.0001) %MON seaice_uice_sd               =   1.4252324186947E-01
(PID.TID 0000.0001) %MON seaice_uice_del2             =   7.2720843677207E-04
(PID.TID 0000.0001) %MON seaice_vice_max              =   3.7441285697502E-01
(PID.TID 0000.0001) %MON seaice_vice_min              =  -4.0000000000000E-01
(PID.TID 0000.0001) %MON seaice_vice_mean             =  -3.7542841261047E-02
(PID.TID 0000.0001) %MON seaice_vice_sd               =   1.5635165386930E-01
(PID.TID 0000.0001) %MON seaice_vice_del2             =   7.0861834440520E-04
(PID.TID 0000.0001) %MON seaice_area_max              =   1.0000000000000E+00
(PID.TID 0000.0001) %MON seaice_area_min              =   0.0000000000000E+00
(PID.TID 0000.0001) %MON seaice_area_mean             =   4.7593115319309E-02
(PID.TID 0000.0001) %MON seaice_area_sd               =   1.9132919249415E-01
(PID.TID 0000.0001) %MON seaice_area_del2             =   1.7116012833979E-03
(PID.TID 0000.0001) %MON seaice_heff_max              =   5.2000132254738E+00
(PID.TID 0000.0001) %MON seaice_heff_min              =   0.0000000000000E+00
(PID.TID 0000.0001) %MON seaice_heff_mean             =   8.4334854083991E-02
(PID.TID 0000.0001) %MON seaice_heff_sd               =   3.9995427486652E-01
(PID.TID 0000.0001) %MON seaice_heff_del2             =   2.4797179641400E-03
(PID.TID 0000.0001) %MON seaice_hsnow_max             =   0.0000000000000E+00
(PID.TID 0000.0001) %MON seaice_hsnow_min             =   0.0000000000000E+00
(PID.TID 0000.0001) %MON seaice_hsnow_mean            =   0.0000000000000E+00
(PID.TID 0000.0001) %MON seaice_hsnow_sd              =   0.0000000000000E+00
(PID.TID 0000.0001) %MON seaice_hsnow_del2            =   0.0000000000000E+00
(PID.TID 0000.0001) // =======================================================
(PID.TID 0000.0001) // End MONITOR SEAICE statistics
(PID.TID 0000.0001) // =======================================================
(PID.TID 0000.0001) // =======================================================
(PID.TID 0000.0001) // Begin MONITOR dynamic field statistics
(PID.TID 0000.0001) // =======================================================
(PID.TID 0000.0001) %MON time_tsnumber                =                 72001
(PID.TID 0000.0001) %MON time_secondsf                =   6.4800900000000E+07
(PID.TID 0000.0001) %MON dynstat_eta_max              =   8.3314015853559E+00
(PID.TID 0000.0001) %MON dynstat_eta_min              =  -2.4597195223295E+00
(PID.TID 0000.0001) %MON dynstat_eta_mean             =   8.3252467150905E-03
(PID.TID 0000.0001) %MON dynstat_eta_sd               =   6.4543298577390E-01
(PID.TID 0000.0001) %MON dynstat_eta_del2             =   8.0951763379882E-03
(PID.TID 0000.0001) %MON dynstat_uvel_max             =   3.2814694191470E-01
(PID.TID 0000.0001) %MON dynstat_uvel_min             =  -2.8962549625559E-01
(PID.TID 0000.0001) %MON dynstat_uvel_mean            =  -6.9065699361787E-04
(PID.TID 0000.0001) %MON dynstat_uvel_sd              =   1.2241037787333E-02
(PID.TID 0000.0001) %MON dynstat_uvel_del2            =   6.4209325776403E-05
(PID.TID 0000.0001) %MON dynstat_vvel_max             =   2.4721190636206E-01
(PID.TID 0000.0001) %MON dynstat_vvel_min             =  -2.6731848443176E-01
(PID.TID 0000.0001) %MON dynstat_vvel_mean            =  -3.3638231996824E-04
(PID.TID 0000.0001) %MON dynstat_vvel_sd              =   1.2532336155675E-02
(PID.TID 0000.0001) %MON dynstat_vvel_del2            =   7.5790945484674E-05
(PID.TID 0000.0001) %MON dynstat_wvel_max             =   7.0071324082439E-04
(PID.TID 0000.0001) %MON dynstat_wvel_min             =  -1.0713739362070E-03
(PID.TID 0000.0001) %MON dynstat_wvel_mean            =   6.8114652099355E-22
(PID.TID 0000.0001) %MON dynstat_wvel_sd              =   2.4430365954355E-05
(PID.TID 0000.0001) %MON dynstat_wvel_del2            =   3.5989503994821E-07
(PID.TID 0000.0001) %MON dynstat_theta_max            =   3.0925528354367E+01
(PID.TID 0000.0001) %MON dynstat_theta_min            =  -2.0092023777314E+00
(PID.TID 0000.0001) %MON dynstat_theta_mean           =   3.9077146344501E+00
(PID.TID 0000.0001) %MON dynstat_theta_sd             =   4.3799698748053E+00
(PID.TID 0000.0001) %MON dynstat_theta_del2           =   9.6561735522721E-03
(PID.TID 0000.0001) %MON dynstat_salt_max             =   4.1379418237883E+01
(PID.TID 0000.0001) %MON dynstat_salt_min             =   1.8730578215855E+01
(PID.TID 0000.0001) %MON dynstat_salt_mean            =   3.4772202603915E+01
(PID.TID 0000.0001) %MON dynstat_salt_sd              =   5.1852076512425E-01
(PID.TID 0000.0001) %MON dynstat_salt_del2            =   1.0987518750488E-03
(PID.TID 0000.0001) %MON dynstat_sst_max              =   3.0925528354367E+01
(PID.TID 0000.0001) %MON dynstat_sst_min              =  -1.9452545196634E+00
(PID.TID 0000.0001) %MON dynstat_sst_mean             =   1.6370152479133E+01
(PID.TID 0000.0001) %MON dynstat_sst_sd               =   9.7803348650371E+00
(PID.TID 0000.0001) %MON dynstat_sst_del2             =   6.3478466544740E-02
(PID.TID 0000.0001) %MON dynstat_sss_max              =   4.1379418237883E+01
(PID.TID 0000.0001) %MON dynstat_sss_min              =   1.8730578215855E+01
(PID.TID 0000.0001) %MON dynstat_sss_mean             =   3.4708527061622E+01
(PID.TID 0000.0001) %MON dynstat_sss_sd               =   1.3037908586180E+00
(PID.TID 0000.0001) %MON dynstat_sss_del2             =   1.0259236137579E-02
(PID.TID 0000.0001) %MON forcing_qnet_max             =   3.7691021875000E+05
(PID.TID 0000.0001) %MON forcing_qnet_min             =  -8.4035695312500E+04
(PID.TID 0000.0001) %MON forcing_qnet_mean            =   3.5052970590364E+03
(PID.TID 0000.0001) %MON forcing_qnet_sd              =   1.3699239540218E+04
(PID.TID 0000.0001) %MON forcing_qnet_del2            =   3.3650827207272E+02
(PID.TID 0000.0001) %MON forcing_qsw_max              =   0.0000000000000E+00
(PID.TID 0000.0001) %MON forcing_qsw_min              =   0.0000000000000E+00
(PID.TID 0000.0001) %MON forcing_qsw_mean             =   0.0000000000000E+00
(PID.TID 0000.0001) %MON forcing_qsw_sd               =   0.0000000000000E+00
(PID.TID 0000.0001) %MON forcing_qsw_del2             =   0.0000000000000E+00
(PID.TID 0000.0001) %MON forcing_empmr_max            =   1.2515954971313E+00
(PID.TID 0000.0001) %MON forcing_empmr_min            =  -9.8578329086304E+00
(PID.TID 0000.0001) %MON forcing_empmr_mean           =  -9.5046566663790E-03
(PID.TID 0000.0001) %MON forcing_empmr_sd             =   2.8328311641076E-01
(PID.TID 0000.0001) %MON forcing_empmr_del2           =   9.3906213441816E-03
(PID.TID 0000.0001) %MON forcing_fu_max               =   5.0394418218178E-01
(PID.TID 0000.0001) %MON forcing_fu_min               =  -4.7713168277919E-01
(PID.TID 0000.0001) %MON forcing_fu_mean              =  -5.5433041455270E-03
(PID.TID 0000.0001) %MON forcing_fu_sd                =   7.2842510315477E-02
(PID.TID 0000.0001) %MON forcing_fu_del2              =   7.2788451576662E-04
(PID.TID 0000.0001) %MON forcing_fv_max               =   2.7803807634013E-01
(PID.TID 0000.0001) %MON forcing_fv_min               =  -5.2780278664931E-01
(PID.TID 0000.0001) %MON forcing_fv_mean              =  -1.4513600518600E-02
(PID.TID 0000.0001) %MON forcing_fv_sd                =   6.9302962606527E-02
(PID.TID 0000.0001) %MON forcing_fv_del2              =   6.1886447764868E-04
(PID.TID 0000.0001) %MON trAdv_CFL_u_max              =   1.1296752511924E-03
(PID.TID 0000.0001) %MON trAdv_CFL_v_max              =   1.5012826464133E-03
(PID.TID 0000.0001) %MON trAdv_CFL_w_max              =   1.8759979080153E-02
(PID.TID 0000.0001) %MON advcfl_uvel_max              =   1.1513857980944E-03
(PID.TID 0000.0001) %MON advcfl_vvel_max              =   8.0674262600698E-04
(PID.TID 0000.0001) %MON advcfl_wvel_max              =   3.8569461703452E-02
(PID.TID 0000.0001) %MON advcfl_W_hf_max              =   1.8759979080153E-02
(PID.TID 0000.0001) %MON pe_b_mean                    =   5.8957599061011E-04
(PID.TID 0000.0001) %MON ke_max                       =   4.8383731002840E-02
(PID.TID 0000.0001) %MON ke_mean                      =   1.4197840048383E-04
(PID.TID 0000.0001) %MON ke_vol                       =   1.3402480188952E+18
(PID.TID 0000.0001) %MON vort_r_min                   =  -1.2129329376156E-06
(PID.TID 0000.0001) %MON vort_r_max                   =   1.2554214849377E-06
(PID.TID 0000.0001) %MON vort_a_mean                  =  -2.0478889410646E-05
(PID.TID 0000.0001) %MON vort_a_sd                    =   7.5252183119928E-05
(PID.TID 0000.0001) %MON vort_p_mean                  =  -2.4400304430385E-05
(PID.TID 0000.0001) %MON vort_p_sd                    =   1.1323504027749E-04
(PID.TID 0000.0001) %MON surfExpan_theta_mean         =   5.7550501092141E-06
(PID.TID 0000.0001) %MON surfExpan_salt_mean          =  -3.7007178243348E-07
(PID.TID 0000.0001) // =======================================================
(PID.TID 0000.0001) // End MONITOR dynamic field statistics
(PID.TID 0000.0001) // =======================================================
(PID.TID 0000.0001) // =======================================================
(PID.TID 0000.0001) // Begin MONITOR SEAICE statistics
(PID.TID 0000.0001) // =======================================================
(PID.TID 0000.0001) %MON seaice_tsnumber              =                 72001
(PID.TID 0000.0001) %MON seaice_time_sec              =   6.4800900000000E+07
(PID.TID 0000.0001) %MON seaice_uice_max              =   2.2807615552149E-01
(PID.TID 0000.0001) %MON seaice_uice_min              =  -2.8803502188239E-01
(PID.TID 0000.0001) %MON seaice_uice_mean             =  -6.8016600074953E-03
(PID.TID 0000.0001) %MON seaice_uice_sd               =   5.4494161013733E-02
(PID.TID 0000.0001) %MON seaice_uice_del2             =   6.1399121792843E-04
(PID.TID 0000.0001) %MON seaice_vice_max              =   3.2956013809791E-01
(PID.TID 0000.0001) %MON seaice_vice_min              =  -3.3813175356425E-01
(PID.TID 0000.0001) %MON seaice_vice_mean             =  -9.4872926346215E-03
(PID.TID 0000.0001) %MON seaice_vice_sd               =   5.7662820406968E-02
(PID.TID 0000.0001) %MON seaice_vice_del2             =   6.3310278339203E-04
(PID.TID 0000.0001) %MON seaice_area_max              =   1.0000021489581E+00
(PID.TID 0000.0001) %MON seaice_area_min              =   0.0000000000000E+00
(PID.TID 0000.0001) %MON seaice_area_mean             =   6.8671638244160E-02
(PID.TID 0000.0001) %MON seaice_area_sd               =   2.3594109845164E-01
(PID.TID 0000.0001) %MON seaice_area_del2             =   1.8050109446263E-03
(PID.TID 0000.0001) %MON seaice_heff_max              =   8.4352858841245E+00
(PID.TID 0000.0001) %MON seaice_heff_min              =   0.0000000000000E+00
(PID.TID 0000.0001) %MON seaice_heff_mean             =   2.0562763895980E-01
(PID.TID 0000.0001) %MON seaice_heff_sd               =   9.7632192221393E-01
(PID.TID 0000.0001) %MON seaice_heff_del2             =   6.2262688890714E-03
(PID.TID 0000.0001) %MON seaice_hsnow_max             =   2.0310843124287E+00
(PID.TID 0000.0001) %MON seaice_hsnow_min             =   0.0000000000000E+00
(PID.TID 0000.0001) %MON seaice_hsnow_mean            =   2.2782747031626E-02
(PID.TID 0000.0001) %MON seaice_hsnow_sd              =   1.1957342962536E-01
(PID.TID 0000.0001) %MON seaice_hsnow_del2            =   1.4654207753992E-03
(PID.TID 0000.0001) // =======================================================
(PID.TID 0000.0001) // End MONITOR SEAICE statistics
(PID.TID 0000.0001) // =======================================================
(PID.TID 0000.0001) // =======================================================
(PID.TID 0000.0001) // Begin MONITOR dynamic field statistics
(PID.TID 0000.0001) // =======================================================
(PID.TID 0000.0001) %MON time_tsnumber                =                 72002
(PID.TID 0000.0001) %MON time_secondsf                =   6.4801800000000E+07
(PID.TID 0000.0001) %MON dynstat_eta_max              =   8.0658539111873E+00
(PID.TID 0000.0001) %MON dynstat_eta_min              =  -3.7183615848764E+00
(PID.TID 0000.0001) %MON dynstat_eta_mean             =   8.7962640456111E-03
(PID.TID 0000.0001) %MON dynstat_eta_sd               =   6.4784130534820E-01
(PID.TID 0000.0001) %MON dynstat_eta_del2             =   8.3857109725797E-03
(PID.TID 0000.0001) %MON dynstat_uvel_max             =   6.0703894648693E-01
(PID.TID 0000.0001) %MON dynstat_uvel_min             =  -2.8986508416217E-01
(PID.TID 0000.0001) %MON dynstat_uvel_mean            =  -8.4023429845416E-04
(PID.TID 0000.0001) %MON dynstat_uvel_sd              =   1.3556490913728E-02
(PID.TID 0000.0001) %MON dynstat_uvel_del2            =   8.9603288232684E-05
(PID.TID 0000.0001) %MON dynstat_vvel_max             =   5.0079432369081E-01
(PID.TID 0000.0001) %MON dynstat_vvel_min             =  -5.0057069901442E-01
(PID.TID 0000.0001) %MON dynstat_vvel_mean            =  -3.5441299150637E-04
(PID.TID 0000.0001) %MON dynstat_vvel_sd              =   1.3591659767665E-02
(PID.TID 0000.0001) %MON dynstat_vvel_del2            =   1.1002076926397E-04
(PID.TID 0000.0001) %MON dynstat_wvel_max             =   7.3736542510496E-04
(PID.TID 0000.0001) %MON dynstat_wvel_min             =  -1.4422970863930E-03
(PID.TID 0000.0001) %MON dynstat_wvel_mean            =  -6.1068308778732E-22
(PID.TID 0000.0001) %MON dynstat_wvel_sd              =   4.0579643937759E-05
(PID.TID 0000.0001) %MON dynstat_wvel_del2            =   5.6184124147510E-07
(PID.TID 0000.0001) %MON dynstat_theta_max            =   3.0925127330377E+01
(PID.TID 0000.0001) %MON dynstat_theta_min            =  -1.9923625434412E+00
(PID.TID 0000.0001) %MON dynstat_theta_mean           =   3.9077272156338E+00
(PID.TID 0000.0001) %MON dynstat_theta_sd             =   4.3798631227399E+00
(PID.TID 0000.0001) %MON dynstat_theta_del2           =   9.6544126343441E-03
(PID.TID 0000.0001) %MON dynstat_salt_max             =   4.1377350970462E+01
(PID.TID 0000.0001) %MON dynstat_salt_min             =   1.8737882327877E+01
(PID.TID 0000.0001) %MON dynstat_salt_mean            =   3.4772194011699E+01
(PID.TID 0000.0001) %MON dynstat_salt_sd              =   5.1852445894376E-01
(PID.TID 0000.0001) %MON dynstat_salt_del2            =   1.0984182102679E-03
(PID.TID 0000.0001) %MON dynstat_sst_max              =   3.0925127330377E+01
(PID.TID 0000.0001) %MON dynstat_sst_min              =  -1.9442775223606E+00
(PID.TID 0000.0001) %MON dynstat_sst_mean             =   1.6371585504539E+01
(PID.TID 0000.0001) %MON dynstat_sst_sd               =   9.7807201318069E+00
(PID.TID 0000.0001) %MON dynstat_sst_del2             =   6.3441069313365E-02
(PID.TID 0000.0001) %MON dynstat_sss_max              =   4.1377350970462E+01
(PID.TID 0000.0001) %MON dynstat_sss_min              =   1.8737882327877E+01
(PID.TID 0000.0001) %MON dynstat_sss_mean             =   3.4707901393142E+01
(PID.TID 0000.0001) %MON dynstat_sss_sd               =   1.3040531176284E+00
(PID.TID 0000.0001) %MON dynstat_sss_del2             =   1.0256492334522E-02
(PID.TID 0000.0001) %MON forcing_qnet_max             =   5.7980406250000E+04
(PID.TID 0000.0001) %MON forcing_qnet_min             =  -2.5033326171875E+04
(PID.TID 0000.0001) %MON forcing_qnet_mean            =  -5.9445111590936E+02
(PID.TID 0000.0001) %MON forcing_qnet_sd              =   2.0171075543994E+03
(PID.TID 0000.0001) %MON forcing_qnet_del2            =   5.9173753807179E+01
(PID.TID 0000.0001) %MON forcing_qsw_max              =   0.0000000000000E+00
(PID.TID 0000.0001) %MON forcing_qsw_min              =   0.0000000000000E+00
(PID.TID 0000.0001) %MON forcing_qsw_mean             =   0.0000000000000E+00
(PID.TID 0000.0001) %MON forcing_qsw_sd               =   0.0000000000000E+00
(PID.TID 0000.0001) %MON forcing_qsw_del2             =   0.0000000000000E+00
(PID.TID 0000.0001) %MON forcing_empmr_max            =   7.8137055039406E-02
(PID.TID 0000.0001) %MON forcing_empmr_min            =  -2.6676216721535E-01
(PID.TID 0000.0001) %MON forcing_empmr_mean           =  -5.3774478567738E-04
(PID.TID 0000.0001) %MON forcing_empmr_sd             =   1.0622901846522E-02
(PID.TID 0000.0001) %MON forcing_empmr_del2           =   4.1825317625756E-04
(PID.TID 0000.0001) %MON forcing_fu_max               =   5.2687632422885E-01
(PID.TID 0000.0001) %MON forcing_fu_min               =  -4.7123632865759E-01
(PID.TID 0000.0001) %MON forcing_fu_mean              =  -5.5976081825252E-03
(PID.TID 0000.0001) %MON forcing_fu_sd                =   7.4524768872029E-02
(PID.TID 0000.0001) %MON forcing_fu_del2              =   7.5276421763712E-04
(PID.TID 0000.0001) %MON forcing_fv_max               =   3.1848988610834E-01
(PID.TID 0000.0001) %MON forcing_fv_min               =  -5.1686253227907E-01
(PID.TID 0000.0001) %MON forcing_fv_mean              =  -1.4142029644335E-02
(PID.TID 0000.0001) %MON forcing_fv_sd                =   7.1494313782246E-02
(PID.TID 0000.0001) %MON forcing_fv_del2              =   6.3187773744916E-04
(PID.TID 0000.0001) %MON trAdv_CFL_u_max              =   1.9901701248535E-03
(PID.TID 0000.0001) %MON trAdv_CFL_v_max              =   2.9386499495909E-03
(PID.TID 0000.0001) %MON trAdv_CFL_w_max              =   2.3875009006029E-02
(PID.TID 0000.0001) %MON advcfl_uvel_max              =   2.0243332236586E-03
(PID.TID 0000.0001) %MON advcfl_vvel_max              =   1.6342745530711E-03
(PID.TID 0000.0001) %MON advcfl_wvel_max              =   5.1922695110149E-02
(PID.TID 0000.0001) %MON advcfl_W_hf_max              =   2.3875009006029E-02
(PID.TID 0000.0001) %MON pe_b_mean                    =   5.6907660099710E-04
(PID.TID 0000.0001) %MON ke_max                       =   1.7594910909099E-01
(PID.TID 0000.0001) %MON ke_mean                      =   1.7051795612120E-04
(PID.TID 0000.0001) %MON ke_vol                       =   1.3402480188952E+18
(PID.TID 0000.0001) %MON vort_r_min                   =  -1.6659147409001E-06
(PID.TID 0000.0001) %MON vort_r_max                   =   1.7163607861228E-06
(PID.TID 0000.0001) %MON vort_a_mean                  =  -2.0478889410647E-05
(PID.TID 0000.0001) %MON vort_a_sd                    =   7.5252205538705E-05
(PID.TID 0000.0001) %MON vort_p_mean                  =  -2.4400304430385E-05
(PID.TID 0000.0001) %MON vort_p_sd                    =   1.1323478708232E-04
(PID.TID 0000.0001) %MON surfExpan_theta_mean         =   8.2409091692780E-05
(PID.TID 0000.0001) %MON surfExpan_salt_mean          =  -9.7957250786671E-07
(PID.TID 0000.0001) // =======================================================
(PID.TID 0000.0001) // End MONITOR dynamic field statistics
(PID.TID 0000.0001) // =======================================================
(PID.TID 0000.0001) // =======================================================
(PID.TID 0000.0001) // Begin MONITOR SEAICE statistics
(PID.TID 0000.0001) // =======================================================
(PID.TID 0000.0001) %MON seaice_tsnumber              =                 72002
(PID.TID 0000.0001) %MON seaice_time_sec              =   6.4801800000000E+07
(PID.TID 0000.0001) %MON seaice_uice_max              =   3.3030501563131E-01
(PID.TID 0000.0001) %MON seaice_uice_min              =  -2.8962549625556E-01
(PID.TID 0000.0001) %MON seaice_uice_mean             =  -6.6502167959036E-03
(PID.TID 0000.0001) %MON seaice_uice_sd               =   5.2257562025740E-02
(PID.TID 0000.0001) %MON seaice_uice_del2             =   6.5411470347870E-04
(PID.TID 0000.0001) %MON seaice_vice_max              =   3.2227154175436E-01
(PID.TID 0000.0001) %MON seaice_vice_min              =  -2.5013121990653E-01
(PID.TID 0000.0001) %MON seaice_vice_mean             =  -8.7241968826409E-03
(PID.TID 0000.0001) %MON seaice_vice_sd               =   5.0242492738947E-02
(PID.TID 0000.0001) %MON seaice_vice_del2             =   7.0181545991992E-04
(PID.TID 0000.0001) %MON seaice_area_max              =   1.0001323591640E+00
(PID.TID 0000.0001) %MON seaice_area_min              =   0.0000000000000E+00
(PID.TID 0000.0001) %MON seaice_area_mean             =   6.8846714820559E-02
(PID.TID 0000.0001) %MON seaice_area_sd               =   2.3656997142879E-01
(PID.TID 0000.0001) %MON seaice_area_del2             =   1.8012201100092E-03
(PID.TID 0000.0001) %MON seaice_heff_max              =   8.4386767090861E+00
(PID.TID 0000.0001) %MON seaice_heff_min              =   0.0000000000000E+00
(PID.TID 0000.0001) %MON seaice_heff_mean             =   2.0565986781548E-01
(PID.TID 0000.0001) %MON seaice_heff_sd               =   9.7645591150845E-01
(PID.TID 0000.0001) %MON seaice_heff_del2             =   6.2207173630672E-03
(PID.TID 0000.0001) %MON seaice_hsnow_max             =   2.0296439431642E+00
(PID.TID 0000.0001) %MON seaice_hsnow_min             =   0.0000000000000E+00
(PID.TID 0000.0001) %MON seaice_hsnow_mean            =   2.2785479604811E-02
(PID.TID 0000.0001) %MON seaice_hsnow_sd              =   1.1956046160960E-01
(PID.TID 0000.0001) %MON seaice_hsnow_del2            =   1.4637600380556E-03
(PID.TID 0000.0001) // =======================================================
(PID.TID 0000.0001) // End MONITOR SEAICE statistics
(PID.TID 0000.0001) // =======================================================
(PID.TID 0000.0001) // =======================================================
(PID.TID 0000.0001) // Begin MONITOR dynamic field statistics
(PID.TID 0000.0001) // =======================================================
(PID.TID 0000.0001) %MON time_tsnumber                =                 72003
(PID.TID 0000.0001) %MON time_secondsf                =   6.4802700000000E+07
(PID.TID 0000.0001) %MON dynstat_eta_max              =   7.6757494366863E+00
(PID.TID 0000.0001) %MON dynstat_eta_min              =  -4.7519451186835E+00
(PID.TID 0000.0001) %MON dynstat_eta_mean             =   9.2842993192124E-03
(PID.TID 0000.0001) %MON dynstat_eta_sd               =   6.5434587264185E-01
(PID.TID 0000.0001) %MON dynstat_eta_del2             =   8.7282439939432E-03
(PID.TID 0000.0001) %MON dynstat_uvel_max             =   8.8270672099170E-01
(PID.TID 0000.0001) %MON dynstat_uvel_min             =  -3.2531049194623E-01
(PID.TID 0000.0001) %MON dynstat_uvel_mean            =  -9.5807147107598E-04
(PID.TID 0000.0001) %MON dynstat_uvel_sd              =   1.5185400741110E-02
(PID.TID 0000.0001) %MON dynstat_uvel_del2            =   1.1669030741473E-04
(PID.TID 0000.0001) %MON dynstat_vvel_max             =   7.3338642357786E-01
(PID.TID 0000.0001) %MON dynstat_vvel_min             =  -7.1612951808635E-01
(PID.TID 0000.0001) %MON dynstat_vvel_mean            =  -4.0101128889153E-04
(PID.TID 0000.0001) %MON dynstat_vvel_sd              =   1.4689823803775E-02
(PID.TID 0000.0001) %MON dynstat_vvel_del2            =   1.4295492610894E-04
(PID.TID 0000.0001) %MON dynstat_wvel_max             =   9.1496581390445E-04
(PID.TID 0000.0001) %MON dynstat_wvel_min             =  -1.7507497897227E-03
(PID.TID 0000.0001) %MON dynstat_wvel_mean            =   5.1673184351235E-22
(PID.TID 0000.0001) %MON dynstat_wvel_sd              =   4.7688201968811E-05
(PID.TID 0000.0001) %MON dynstat_wvel_del2            =   5.9690701292892E-07
(PID.TID 0000.0001) %MON dynstat_theta_max            =   3.0924865452056E+01
(PID.TID 0000.0001) %MON dynstat_theta_min            =  -1.9789381882612E+00
(PID.TID 0000.0001) %MON dynstat_theta_mean           =   3.9077275533996E+00
(PID.TID 0000.0001) %MON dynstat_theta_sd             =   4.3798602102654E+00
(PID.TID 0000.0001) %MON dynstat_theta_del2           =   9.6502462883342E-03
(PID.TID 0000.0001) %MON dynstat_salt_max             =   4.1376899911201E+01
(PID.TID 0000.0001) %MON dynstat_salt_min             =   1.8738331746914E+01
(PID.TID 0000.0001) %MON dynstat_salt_mean            =   3.4772185675555E+01
(PID.TID 0000.0001) %MON dynstat_salt_sd              =   5.1853474025318E-01
(PID.TID 0000.0001) %MON dynstat_salt_del2            =   1.0986053284832E-03
(PID.TID 0000.0001) %MON dynstat_sst_max              =   3.0924865452056E+01
(PID.TID 0000.0001) %MON dynstat_sst_min              =  -1.9433980870983E+00
(PID.TID 0000.0001) %MON dynstat_sst_mean             =   1.6373201421601E+01
(PID.TID 0000.0001) %MON dynstat_sst_sd               =   9.7806067647426E+00
(PID.TID 0000.0001) %MON dynstat_sst_del2             =   6.3392011667196E-02
(PID.TID 0000.0001) %MON dynstat_sss_max              =   4.1376899911201E+01
(PID.TID 0000.0001) %MON dynstat_sss_min              =   1.8738331746914E+01
(PID.TID 0000.0001) %MON dynstat_sss_mean             =   3.4707299863882E+01
(PID.TID 0000.0001) %MON dynstat_sss_sd               =   1.3044080355886E+00
(PID.TID 0000.0001) %MON dynstat_sss_del2             =   1.0262358708924E-02
(PID.TID 0000.0001) %MON forcing_qnet_max             =   3.2287039062500E+04
(PID.TID 0000.0001) %MON forcing_qnet_min             =  -1.7065156250000E+04
(PID.TID 0000.0001) %MON forcing_qnet_mean            =  -5.1077108071110E+02
(PID.TID 0000.0001) %MON forcing_qnet_sd              =   1.4442401488352E+03
(PID.TID 0000.0001) %MON forcing_qnet_del2            =   4.6501637107207E+01
(PID.TID 0000.0001) %MON forcing_qsw_max              =   0.0000000000000E+00
(PID.TID 0000.0001) %MON forcing_qsw_min              =   0.0000000000000E+00
(PID.TID 0000.0001) %MON forcing_qsw_mean             =   0.0000000000000E+00
(PID.TID 0000.0001) %MON forcing_qsw_sd               =   0.0000000000000E+00
(PID.TID 0000.0001) %MON forcing_qsw_del2             =   0.0000000000000E+00
(PID.TID 0000.0001) %MON forcing_empmr_max            =   9.6348516643047E-02
(PID.TID 0000.0001) %MON forcing_empmr_min            =  -1.9407987594604E-01
(PID.TID 0000.0001) %MON forcing_empmr_mean           =  -5.5717360402783E-04
(PID.TID 0000.0001) %MON forcing_empmr_sd             =   8.2590329595103E-03
(PID.TID 0000.0001) %MON forcing_empmr_del2           =   3.2676775096964E-04
(PID.TID 0000.0001) %MON forcing_fu_max               =   5.5446580087613E-01
(PID.TID 0000.0001) %MON forcing_fu_min               =  -4.8978092808437E-01
(PID.TID 0000.0001) %MON forcing_fu_mean              =  -5.2910272693139E-03
(PID.TID 0000.0001) %MON forcing_fu_sd                =   7.5371911793280E-02
(PID.TID 0000.0001) %MON forcing_fu_del2              =   7.6937492498052E-04
(PID.TID 0000.0001) %MON forcing_fv_max               =   3.3842724560907E-01
(PID.TID 0000.0001) %MON forcing_fv_min               =  -5.0021246273728E-01
(PID.TID 0000.0001) %MON forcing_fv_mean              =  -1.3817791394860E-02
(PID.TID 0000.0001) %MON forcing_fv_sd                =   7.2345746449874E-02
(PID.TID 0000.0001) %MON forcing_fv_del2              =   6.4910589362601E-04
(PID.TID 0000.0001) %MON trAdv_CFL_u_max              =   2.8939437169423E-03
(PID.TID 0000.0001) %MON trAdv_CFL_v_max              =   4.1630472570530E-03
(PID.TID 0000.0001) %MON trAdv_CFL_w_max              =   2.8646490705897E-02
(PID.TID 0000.0001) %MON advcfl_uvel_max              =   2.9436209198625E-03
(PID.TID 0000.0001) %MON advcfl_vvel_max              =   2.3933074176797E-03
(PID.TID 0000.0001) %MON advcfl_wvel_max              =   6.3026992430016E-02
(PID.TID 0000.0001) %MON advcfl_W_hf_max              =   2.8646490705897E-02
(PID.TID 0000.0001) %MON pe_b_mean                    =   5.5022754910980E-04
(PID.TID 0000.0001) %MON ke_max                       =   3.6596382554834E-01
(PID.TID 0000.0001) %MON ke_mean                      =   2.0654499995321E-04
(PID.TID 0000.0001) %MON ke_vol                       =   1.3402480188952E+18
(PID.TID 0000.0001) %MON vort_r_min                   =  -2.5019761756237E-06
(PID.TID 0000.0001) %MON vort_r_max                   =   2.4495414989924E-06
(PID.TID 0000.0001) %MON vort_a_mean                  =  -2.0478889410647E-05
(PID.TID 0000.0001) %MON vort_a_sd                    =   7.5252220290872E-05
(PID.TID 0000.0001) %MON vort_p_mean                  =  -2.4400304430385E-05
(PID.TID 0000.0001) %MON vort_p_sd                    =   1.1323458314659E-04
(PID.TID 0000.0001) %MON surfExpan_theta_mean         =   1.1003278703539E-04
(PID.TID 0000.0001) %MON surfExpan_salt_mean          =  -1.6469252737105E-06
(PID.TID 0000.0001) // =======================================================
(PID.TID 0000.0001) // End MONITOR dynamic field statistics
(PID.TID 0000.0001) // =======================================================
(PID.TID 0000.0001) // =======================================================
(PID.TID 0000.0001) // Begin MONITOR SEAICE statistics
(PID.TID 0000.0001) // =======================================================
(PID.TID 0000.0001) %MON seaice_tsnumber              =                 72003
(PID.TID 0000.0001) %MON seaice_time_sec              =   6.4802700000000E+07
(PID.TID 0000.0001) %MON seaice_uice_max              =   5.9919910062871E-01
(PID.TID 0000.0001) %MON seaice_uice_min              =  -3.1537112498072E-01
(PID.TID 0000.0001) %MON seaice_uice_mean             =  -6.8312784914306E-03
(PID.TID 0000.0001) %MON seaice_uice_sd               =   5.4384911346434E-02
(PID.TID 0000.0001) %MON seaice_uice_del2             =   7.9729495929622E-04
(PID.TID 0000.0001) %MON seaice_vice_max              =   4.9275763755705E-01
(PID.TID 0000.0001) %MON seaice_vice_min              =  -4.6784229249498E-01
(PID.TID 0000.0001) %MON seaice_vice_mean             =  -9.0864616911267E-03
(PID.TID 0000.0001) %MON seaice_vice_sd               =   5.1880565387425E-02
(PID.TID 0000.0001) %MON seaice_vice_del2             =   9.8566081885198E-04
(PID.TID 0000.0001) %MON seaice_area_max              =   1.0001682151557E+00
(PID.TID 0000.0001) %MON seaice_area_min              =   0.0000000000000E+00
(PID.TID 0000.0001) %MON seaice_area_mean             =   6.8865042599411E-02
(PID.TID 0000.0001) %MON seaice_area_sd               =   2.3661278783659E-01
(PID.TID 0000.0001) %MON seaice_area_del2             =   1.7966003266553E-03
(PID.TID 0000.0001) %MON seaice_heff_max              =   8.4388331463196E+00
(PID.TID 0000.0001) %MON seaice_heff_min              =   0.0000000000000E+00
(PID.TID 0000.0001) %MON seaice_heff_mean             =   2.0565776251637E-01
(PID.TID 0000.0001) %MON seaice_heff_sd               =   9.7639993673963E-01
(PID.TID 0000.0001) %MON seaice_heff_del2             =   6.2127342746700E-03
(PID.TID 0000.0001) %MON seaice_hsnow_max             =   2.0272909134745E+00
(PID.TID 0000.0001) %MON seaice_hsnow_min             =   0.0000000000000E+00
(PID.TID 0000.0001) %MON seaice_hsnow_mean            =   2.2787018684902E-02
(PID.TID 0000.0001) %MON seaice_hsnow_sd              =   1.1953767539848E-01
(PID.TID 0000.0001) %MON seaice_hsnow_del2            =   1.4616087375445E-03
(PID.TID 0000.0001) // =======================================================
(PID.TID 0000.0001) // End MONITOR SEAICE statistics
(PID.TID 0000.0001) // =======================================================
(PID.TID 0000.0001) // =======================================================
(PID.TID 0000.0001) // Begin MONITOR dynamic field statistics
(PID.TID 0000.0001) // =======================================================
(PID.TID 0000.0001) %MON time_tsnumber                =                 72004
(PID.TID 0000.0001) %MON time_secondsf                =   6.4803600000000E+07
(PID.TID 0000.0001) %MON dynstat_eta_max              =   7.1754588467911E+00
(PID.TID 0000.0001) %MON dynstat_eta_min              =  -5.3473232128015E+00
(PID.TID 0000.0001) %MON dynstat_eta_mean             =   9.7683630203999E-03
(PID.TID 0000.0001) %MON dynstat_eta_sd               =   6.6336575226045E-01
(PID.TID 0000.0001) %MON dynstat_eta_del2             =   8.8012561961736E-03
(PID.TID 0000.0001) %MON dynstat_uvel_max             =   1.1385698460693E+00
(PID.TID 0000.0001) %MON dynstat_uvel_min             =  -3.6923138954039E-01
(PID.TID 0000.0001) %MON dynstat_uvel_mean            =  -1.0412900803918E-03
(PID.TID 0000.0001) %MON dynstat_uvel_sd              =   1.6808256607571E-02
(PID.TID 0000.0001) %MON dynstat_uvel_del2            =   1.4320574900913E-04
(PID.TID 0000.0001) %MON dynstat_vvel_max             =   9.3973837149753E-01
(PID.TID 0000.0001) %MON dynstat_vvel_min             =  -9.0590147666114E-01
(PID.TID 0000.0001) %MON dynstat_vvel_mean            =  -4.6569736370153E-04
(PID.TID 0000.0001) %MON dynstat_vvel_sd              =   1.5667622805620E-02
(PID.TID 0000.0001) %MON dynstat_vvel_del2            =   1.7177120293289E-04
(PID.TID 0000.0001) %MON dynstat_wvel_max             =   1.3795000773189E-03
(PID.TID 0000.0001) %MON dynstat_wvel_min             =  -1.7857779554878E-03
(PID.TID 0000.0001) %MON dynstat_wvel_mean            =  -1.8790248854995E-22
(PID.TID 0000.0001) %MON dynstat_wvel_sd              =   5.4893033343733E-05
(PID.TID 0000.0001) %MON dynstat_wvel_del2            =   7.1659409382635E-07
(PID.TID 0000.0001) %MON dynstat_theta_max            =   3.0924607980331E+01
(PID.TID 0000.0001) %MON dynstat_theta_min            =  -1.9715913237550E+00
(PID.TID 0000.0001) %MON dynstat_theta_mean           =   3.9077245079838E+00
(PID.TID 0000.0001) %MON dynstat_theta_sd             =   4.3798546307077E+00
(PID.TID 0000.0001) %MON dynstat_theta_del2           =   9.6461856956929E-03
(PID.TID 0000.0001) %MON dynstat_salt_max             =   4.1376410019518E+01
(PID.TID 0000.0001) %MON dynstat_salt_min             =   1.8738381569314E+01
(PID.TID 0000.0001) %MON dynstat_salt_mean            =   3.4772177744301E+01
(PID.TID 0000.0001) %MON dynstat_salt_sd              =   5.1854574088590E-01
(PID.TID 0000.0001) %MON dynstat_salt_del2            =   1.0991828480230E-03
(PID.TID 0000.0001) %MON dynstat_sst_max              =   3.0924607980331E+01
(PID.TID 0000.0001) %MON dynstat_sst_min              =  -1.9425721697189E+00
(PID.TID 0000.0001) %MON dynstat_sst_mean             =   1.6374588534796E+01
(PID.TID 0000.0001) %MON dynstat_sst_sd               =   9.7803872860899E+00
(PID.TID 0000.0001) %MON dynstat_sst_del2             =   6.3341123656140E-02
(PID.TID 0000.0001) %MON dynstat_sss_max              =   4.1376410019518E+01
(PID.TID 0000.0001) %MON dynstat_sss_min              =   1.8738381569314E+01
(PID.TID 0000.0001) %MON dynstat_sss_mean             =   3.4706718874478E+01
(PID.TID 0000.0001) %MON dynstat_sss_sd               =   1.3047743307075E+00
(PID.TID 0000.0001) %MON dynstat_sss_del2             =   1.0274332334253E-02
(PID.TID 0000.0001) %MON forcing_qnet_max             =   1.4841487304688E+04
(PID.TID 0000.0001) %MON forcing_qnet_min             =  -9.6047021484375E+03
(PID.TID 0000.0001) %MON forcing_qnet_mean            =  -4.4453930255660E+02
(PID.TID 0000.0001) %MON forcing_qnet_sd              =   1.1340940339122E+03
(PID.TID 0000.0001) %MON forcing_qnet_del2            =   3.3796144941945E+01
(PID.TID 0000.0001) %MON forcing_qsw_max              =   0.0000000000000E+00
(PID.TID 0000.0001) %MON forcing_qsw_min              =   0.0000000000000E+00
(PID.TID 0000.0001) %MON forcing_qsw_mean             =   0.0000000000000E+00
(PID.TID 0000.0001) %MON forcing_qsw_sd               =   0.0000000000000E+00
(PID.TID 0000.0001) %MON forcing_qsw_del2             =   0.0000000000000E+00
(PID.TID 0000.0001) %MON forcing_empmr_max            =   6.5039679408073E-02
(PID.TID 0000.0001) %MON forcing_empmr_min            =  -1.7200219631195E-01
(PID.TID 0000.0001) %MON forcing_empmr_mean           =  -5.5263939218937E-04
(PID.TID 0000.0001) %MON forcing_empmr_sd             =   8.0180325016527E-03
(PID.TID 0000.0001) %MON forcing_empmr_del2           =   3.2009015197171E-04
(PID.TID 0000.0001) %MON forcing_fu_max               =   5.7029495530236E-01
(PID.TID 0000.0001) %MON forcing_fu_min               =  -4.8542014323257E-01
(PID.TID 0000.0001) %MON forcing_fu_mean              =  -4.9797466505187E-03
(PID.TID 0000.0001) %MON forcing_fu_sd                =   7.5340834946400E-02
(PID.TID 0000.0001) %MON forcing_fu_del2              =   7.8433710096554E-04
(PID.TID 0000.0001) %MON forcing_fv_max               =   3.5801801843782E-01
(PID.TID 0000.0001) %MON forcing_fv_min               =  -4.6744181039573E-01
(PID.TID 0000.0001) %MON forcing_fv_mean              =  -1.3496707661270E-02
(PID.TID 0000.0001) %MON forcing_fv_sd                =   7.2498511294761E-02
(PID.TID 0000.0001) %MON forcing_fv_del2              =   6.6299443715639E-04
(PID.TID 0000.0001) %MON trAdv_CFL_u_max              =   3.7327879962558E-03
(PID.TID 0000.0001) %MON trAdv_CFL_v_max              =   5.2477579711076E-03
(PID.TID 0000.0001) %MON trAdv_CFL_w_max              =   2.9233335105996E-02
(PID.TID 0000.0001) %MON advcfl_uvel_max              =   3.7968647319790E-03
(PID.TID 0000.0001) %MON advcfl_vvel_max              =   3.0667090947921E-03
(PID.TID 0000.0001) %MON advcfl_wvel_max              =   6.4288006397561E-02
(PID.TID 0000.0001) %MON advcfl_W_hf_max              =   2.9233335105996E-02
(PID.TID 0000.0001) %MON pe_b_mean                    =   5.3492712999866E-04
(PID.TID 0000.0001) %MON ke_max                       =   5.8603853447186E-01
(PID.TID 0000.0001) %MON ke_mean                      =   2.4426399149303E-04
(PID.TID 0000.0001) %MON ke_vol                       =   1.3402480188952E+18
(PID.TID 0000.0001) %MON vort_r_min                   =  -3.2473037984666E-06
(PID.TID 0000.0001) %MON vort_r_max                   =   3.0684960943003E-06
(PID.TID 0000.0001) %MON vort_a_mean                  =  -2.0478889410647E-05
(PID.TID 0000.0001) %MON vort_a_sd                    =   7.5252227284485E-05
(PID.TID 0000.0001) %MON vort_p_mean                  =  -2.4400304430385E-05
(PID.TID 0000.0001) %MON vort_p_sd                    =   1.1323440934196E-04
(PID.TID 0000.0001) %MON surfExpan_theta_mean         =   1.0781578547742E-04
(PID.TID 0000.0001) %MON surfExpan_salt_mean          =  -2.1188986828822E-06
(PID.TID 0000.0001) // =======================================================
(PID.TID 0000.0001) // End MONITOR dynamic field statistics
(PID.TID 0000.0001) // =======================================================
(PID.TID 0000.0001) // =======================================================
(PID.TID 0000.0001) // Begin MONITOR SEAICE statistics
(PID.TID 0000.0001) // =======================================================
(PID.TID 0000.0001) %MON seaice_tsnumber              =                 72004
(PID.TID 0000.0001) %MON seaice_time_sec              =   6.4803600000000E+07
(PID.TID 0000.0001) %MON seaice_uice_max              =   8.7498697375558E-01
(PID.TID 0000.0001) %MON seaice_uice_min              =  -3.5981092194652E-01
(PID.TID 0000.0001) %MON seaice_uice_mean             =  -7.0204474378591E-03
(PID.TID 0000.0001) %MON seaice_uice_sd               =   5.7595321690038E-02
(PID.TID 0000.0001) %MON seaice_uice_del2             =   9.8397741154750E-04
(PID.TID 0000.0001) %MON seaice_vice_max              =   7.2823982137196E-01
(PID.TID 0000.0001) %MON seaice_vice_min              =  -6.9136397959933E-01
(PID.TID 0000.0001) %MON seaice_vice_mean             =  -9.3549045586631E-03
(PID.TID 0000.0001) %MON seaice_vice_sd               =   5.4950897091615E-02
(PID.TID 0000.0001) %MON seaice_vice_del2             =   1.2947016587114E-03
(PID.TID 0000.0001) %MON seaice_area_max              =   1.0003089353346E+00
(PID.TID 0000.0001) %MON seaice_area_min              =   0.0000000000000E+00
(PID.TID 0000.0001) %MON seaice_area_mean             =   6.8882450513858E-02
(PID.TID 0000.0001) %MON seaice_area_sd               =   2.3665108276027E-01
(PID.TID 0000.0001) %MON seaice_area_del2             =   1.7910534053514E-03
(PID.TID 0000.0001) %MON seaice_heff_max              =   8.4388289329740E+00
(PID.TID 0000.0001) %MON seaice_heff_min              =   0.0000000000000E+00
(PID.TID 0000.0001) %MON seaice_heff_mean             =   2.0565474285405E-01
(PID.TID 0000.0001) %MON seaice_heff_sd               =   9.7632782754564E-01
(PID.TID 0000.0001) %MON seaice_heff_del2             =   6.2032301976127E-03
(PID.TID 0000.0001) %MON seaice_hsnow_max             =   2.0243727915375E+00
(PID.TID 0000.0001) %MON seaice_hsnow_min             =   0.0000000000000E+00
(PID.TID 0000.0001) %MON seaice_hsnow_mean            =   2.2787918503390E-02
(PID.TID 0000.0001) %MON seaice_hsnow_sd              =   1.1950887780368E-01
(PID.TID 0000.0001) %MON seaice_hsnow_del2            =   1.4592006462595E-03
(PID.TID 0000.0001) // =======================================================
(PID.TID 0000.0001) // End MONITOR SEAICE statistics
(PID.TID 0000.0001) // =======================================================
(PID.TID 0000.0001) // =======================================================
(PID.TID 0000.0001) // Begin MONITOR dynamic field statistics
(PID.TID 0000.0001) // =======================================================
(PID.TID 0000.0001) %MON time_tsnumber                =                 72005
(PID.TID 0000.0001) %MON time_secondsf                =   6.4804500000000E+07
(PID.TID 0000.0001) %MON dynstat_eta_max              =   6.6881499713887E+00
(PID.TID 0000.0001) %MON dynstat_eta_min              =  -6.0723589406560E+00
(PID.TID 0000.0001) %MON dynstat_eta_mean             =   1.0248308637794E-02
(PID.TID 0000.0001) %MON dynstat_eta_sd               =   6.7285901133503E-01
(PID.TID 0000.0001) %MON dynstat_eta_del2             =   8.6227191641248E-03
(PID.TID 0000.0001) %MON dynstat_uvel_max             =   1.3703152470654E+00
(PID.TID 0000.0001) %MON dynstat_uvel_min             =  -4.3562950521067E-01
(PID.TID 0000.0001) %MON dynstat_uvel_mean            =  -1.0900641982507E-03
(PID.TID 0000.0001) %MON dynstat_uvel_sd              =   1.8396369038218E-02
(PID.TID 0000.0001) %MON dynstat_uvel_del2            =   1.6823325337577E-04
(PID.TID 0000.0001) %MON dynstat_vvel_max             =   1.1174896995288E+00
(PID.TID 0000.0001) %MON dynstat_vvel_min             =  -1.0641898013967E+00
(PID.TID 0000.0001) %MON dynstat_vvel_mean            =  -5.3585571449545E-04
(PID.TID 0000.0001) %MON dynstat_vvel_sd              =   1.6526671658046E-02
(PID.TID 0000.0001) %MON dynstat_vvel_del2            =   1.9570236987539E-04
(PID.TID 0000.0001) %MON dynstat_wvel_max             =   1.8406861060184E-03
(PID.TID 0000.0001) %MON dynstat_wvel_min             =  -1.8641109532284E-03
(PID.TID 0000.0001) %MON dynstat_wvel_mean            =   8.4556119847476E-22
(PID.TID 0000.0001) %MON dynstat_wvel_sd              =   6.5008867364038E-05
(PID.TID 0000.0001) %MON dynstat_wvel_del2            =   9.0859489430351E-07
(PID.TID 0000.0001) %MON dynstat_theta_max            =   3.0924343213388E+01
(PID.TID 0000.0001) %MON dynstat_theta_min            =  -1.9699860966906E+00
(PID.TID 0000.0001) %MON dynstat_theta_mean           =   3.9077243037423E+00
(PID.TID 0000.0001) %MON dynstat_theta_sd             =   4.3798513654547E+00
(PID.TID 0000.0001) %MON dynstat_theta_del2           =   9.6421443720288E-03
(PID.TID 0000.0001) %MON dynstat_salt_max             =   4.1375826951074E+01
(PID.TID 0000.0001) %MON dynstat_salt_min             =   1.8738387255526E+01
(PID.TID 0000.0001) %MON dynstat_salt_mean            =   3.4772170060508E+01
(PID.TID 0000.0001) %MON dynstat_salt_sd              =   5.1855677573521E-01
(PID.TID 0000.0001) %MON dynstat_salt_del2            =   1.0999785121488E-03
(PID.TID 0000.0001) %MON dynstat_sst_max              =   3.0924343213388E+01
(PID.TID 0000.0001) %MON dynstat_sst_min              =  -1.9417654730628E+00
(PID.TID 0000.0001) %MON dynstat_sst_mean             =   1.6375965211312E+01
(PID.TID 0000.0001) %MON dynstat_sst_sd               =   9.7801207129413E+00
(PID.TID 0000.0001) %MON dynstat_sst_del2             =   6.3285883595677E-02
(PID.TID 0000.0001) %MON dynstat_sss_max              =   4.1375826951074E+01
(PID.TID 0000.0001) %MON dynstat_sss_min              =   1.8738387255526E+01
(PID.TID 0000.0001) %MON dynstat_sss_mean             =   3.4706156764428E+01
(PID.TID 0000.0001) %MON dynstat_sss_sd               =   1.3051420914998E+00
(PID.TID 0000.0001) %MON dynstat_sss_del2             =   1.0290143395371E-02
(PID.TID 0000.0001) %MON forcing_qnet_max             =   1.3368135243384E+04
(PID.TID 0000.0001) %MON forcing_qnet_min             =  -1.5662061523438E+04
(PID.TID 0000.0001) %MON forcing_qnet_mean            =  -4.3192713354686E+02
(PID.TID 0000.0001) %MON forcing_qnet_sd              =   1.0592344820354E+03
(PID.TID 0000.0001) %MON forcing_qnet_del2            =   3.4130857499172E+01
(PID.TID 0000.0001) %MON forcing_qsw_max              =   0.0000000000000E+00
(PID.TID 0000.0001) %MON forcing_qsw_min              =  -1.0504611655567E+02
(PID.TID 0000.0001) %MON forcing_qsw_mean             =  -2.2076084704491E+01
(PID.TID 0000.0001) %MON forcing_qsw_sd               =   3.0015067162992E+01
(PID.TID 0000.0001) %MON forcing_qsw_del2             =   1.5618819998488E-01
(PID.TID 0000.0001) %MON forcing_empmr_max            =   4.6345490962267E-02
(PID.TID 0000.0001) %MON forcing_empmr_min            =  -1.6304305195808E-01
(PID.TID 0000.0001) %MON forcing_empmr_mean           =  -5.4793791319148E-04
(PID.TID 0000.0001) %MON forcing_empmr_sd             =   7.7998006823098E-03
(PID.TID 0000.0001) %MON forcing_empmr_del2           =   3.1411037591416E-04
(PID.TID 0000.0001) %MON forcing_fu_max               =   5.8850857691493E-01
(PID.TID 0000.0001) %MON forcing_fu_min               =  -4.6732868585626E-01
(PID.TID 0000.0001) %MON forcing_fu_mean              =  -4.7582823979989E-03
(PID.TID 0000.0001) %MON forcing_fu_sd                =   7.5188417990114E-02
(PID.TID 0000.0001) %MON forcing_fu_del2              =   8.0354260873121E-04
(PID.TID 0000.0001) %MON forcing_fv_max               =   3.6684095388108E-01
(PID.TID 0000.0001) %MON forcing_fv_min               =  -4.3022787298210E-01
(PID.TID 0000.0001) %MON forcing_fv_mean              =  -1.3258621819966E-02
(PID.TID 0000.0001) %MON forcing_fv_sd                =   7.2469098175426E-02
(PID.TID 0000.0001) %MON forcing_fv_del2              =   6.7794717287205E-04
(PID.TID 0000.0001) %MON trAdv_CFL_u_max              =   4.4925625977108E-03
(PID.TID 0000.0001) %MON trAdv_CFL_v_max              =   6.1350073995245E-03
(PID.TID 0000.0001) %MON trAdv_CFL_w_max              =   2.6188849931023E-02
(PID.TID 0000.0001) %MON advcfl_uvel_max              =   4.5696815625655E-03
(PID.TID 0000.0001) %MON advcfl_vvel_max              =   3.6467765165535E-03
(PID.TID 0000.0001) %MON advcfl_wvel_max              =   5.7548893525977E-02
(PID.TID 0000.0001) %MON advcfl_W_hf_max              =   2.6188849931023E-02
(PID.TID 0000.0001) %MON pe_b_mean                    =   5.2224276263638E-04
(PID.TID 0000.0001) %MON ke_max                       =   8.0587204532168E-01
(PID.TID 0000.0001) %MON ke_mean                      =   2.8284863290593E-04
(PID.TID 0000.0001) %MON ke_vol                       =   1.3402480188952E+18
(PID.TID 0000.0001) %MON vort_r_min                   =  -3.8768941159918E-06
(PID.TID 0000.0001) %MON vort_r_max                   =   3.6485273658446E-06
(PID.TID 0000.0001) %MON vort_a_mean                  =  -2.0478889410646E-05
(PID.TID 0000.0001) %MON vort_a_sd                    =   7.5252227486786E-05
(PID.TID 0000.0001) %MON vort_p_mean                  =  -2.4400304430385E-05
(PID.TID 0000.0001) %MON vort_p_sd                    =   1.1323426359254E-04
(PID.TID 0000.0001) %MON surfExpan_theta_mean         =   9.3235520407287E-05
(PID.TID 0000.0001) %MON surfExpan_salt_mean          =  -2.3091998096215E-06
(PID.TID 0000.0001) // =======================================================
(PID.TID 0000.0001) // End MONITOR dynamic field statistics
(PID.TID 0000.0001) // =======================================================
(PID.TID 0000.0001) // =======================================================
(PID.TID 0000.0001) // Begin MONITOR SEAICE statistics
(PID.TID 0000.0001) // =======================================================
(PID.TID 0000.0001) %MON seaice_tsnumber              =                 72005
(PID.TID 0000.0001) %MON seaice_time_sec              =   6.4804500000000E+07
(PID.TID 0000.0001) %MON seaice_uice_max              =   1.1340458897036E+00
(PID.TID 0000.0001) %MON seaice_uice_min              =  -3.9946964442598E-01
(PID.TID 0000.0001) %MON seaice_uice_mean             =  -7.2186340107216E-03
(PID.TID 0000.0001) %MON seaice_uice_sd               =   6.1284425492272E-02
(PID.TID 0000.0001) %MON seaice_uice_del2             =   1.1745011637942E-03
(PID.TID 0000.0001) %MON seaice_vice_max              =   9.3560092222315E-01
(PID.TID 0000.0001) %MON seaice_vice_min              =  -8.9474513288706E-01
(PID.TID 0000.0001) %MON seaice_vice_mean             =  -9.6236282420119E-03
(PID.TID 0000.0001) %MON seaice_vice_sd               =   5.8569418150489E-02
(PID.TID 0000.0001) %MON seaice_vice_del2             =   1.5727661542332E-03
(PID.TID 0000.0001) %MON seaice_area_max              =   1.0004457091121E+00
(PID.TID 0000.0001) %MON seaice_area_min              =   0.0000000000000E+00
(PID.TID 0000.0001) %MON seaice_area_mean             =   6.8898933567938E-02
(PID.TID 0000.0001) %MON seaice_area_sd               =   2.3668550755200E-01
(PID.TID 0000.0001) %MON seaice_area_del2             =   1.7847605949946E-03
(PID.TID 0000.0001) %MON seaice_heff_max              =   8.4386749390617E+00
(PID.TID 0000.0001) %MON seaice_heff_min              =   0.0000000000000E+00
(PID.TID 0000.0001) %MON seaice_heff_mean             =   2.0565088861020E-01
(PID.TID 0000.0001) %MON seaice_heff_sd               =   9.7624325078064E-01
(PID.TID 0000.0001) %MON seaice_heff_del2             =   6.1926954343185E-03
(PID.TID 0000.0001) %MON seaice_hsnow_max             =   2.0212421610809E+00
(PID.TID 0000.0001) %MON seaice_hsnow_min             =   0.0000000000000E+00
(PID.TID 0000.0001) %MON seaice_hsnow_mean            =   2.2788471740947E-02
(PID.TID 0000.0001) %MON seaice_hsnow_sd              =   1.1947779729900E-01
(PID.TID 0000.0001) %MON seaice_hsnow_del2            =   1.4567953672477E-03
(PID.TID 0000.0001) // =======================================================
(PID.TID 0000.0001) // End MONITOR SEAICE statistics
(PID.TID 0000.0001) // =======================================================
(PID.TID 0000.0001) // =======================================================
(PID.TID 0000.0001) // Begin MONITOR dynamic field statistics
(PID.TID 0000.0001) // =======================================================
(PID.TID 0000.0001) %MON time_tsnumber                =                 72006
(PID.TID 0000.0001) %MON time_secondsf                =   6.4805400000000E+07
(PID.TID 0000.0001) %MON dynstat_eta_max              =   6.1718885388035E+00
(PID.TID 0000.0001) %MON dynstat_eta_min              =  -6.9909552756292E+00
(PID.TID 0000.0001) %MON dynstat_eta_mean             =   1.0720615968027E-02
(PID.TID 0000.0001) %MON dynstat_eta_sd               =   6.8196059719937E-01
(PID.TID 0000.0001) %MON dynstat_eta_del2             =   8.3655909436263E-03
(PID.TID 0000.0001) %MON dynstat_uvel_max             =   1.5755555590628E+00
(PID.TID 0000.0001) %MON dynstat_uvel_min             =  -4.8676910766628E-01
(PID.TID 0000.0001) %MON dynstat_uvel_mean            =  -1.1065487778624E-03
(PID.TID 0000.0001) %MON dynstat_uvel_sd              =   1.9953027241248E-02
(PID.TID 0000.0001) %MON dynstat_uvel_del2            =   1.9129936892853E-04
(PID.TID 0000.0001) %MON dynstat_vvel_max             =   1.2652014407699E+00
(PID.TID 0000.0001) %MON dynstat_vvel_min             =  -1.1879455948949E+00
(PID.TID 0000.0001) %MON dynstat_vvel_mean            =  -6.0026137177015E-04
(PID.TID 0000.0001) %MON dynstat_vvel_sd              =   1.7298936096779E-02
(PID.TID 0000.0001) %MON dynstat_vvel_del2            =   2.1479332140034E-04
(PID.TID 0000.0001) %MON dynstat_wvel_max             =   2.2989103283043E-03
(PID.TID 0000.0001) %MON dynstat_wvel_min             =  -2.3244758614837E-03
(PID.TID 0000.0001) %MON dynstat_wvel_mean            =  -2.8185373282492E-22
(PID.TID 0000.0001) %MON dynstat_wvel_sd              =   7.6454404374037E-05
(PID.TID 0000.0001) %MON dynstat_wvel_del2            =   1.1130965507533E-06
(PID.TID 0000.0001) %MON dynstat_theta_max            =   3.0924071558341E+01
(PID.TID 0000.0001) %MON dynstat_theta_min            =  -1.9699850952941E+00
(PID.TID 0000.0001) %MON dynstat_theta_mean           =   3.9077265738007E+00
(PID.TID 0000.0001) %MON dynstat_theta_sd             =   4.3798485431590E+00
(PID.TID 0000.0001) %MON dynstat_theta_del2           =   9.6377146681266E-03
(PID.TID 0000.0001) %MON dynstat_salt_max             =   4.1375155127196E+01
(PID.TID 0000.0001) %MON dynstat_salt_min             =   1.8738392489430E+01
(PID.TID 0000.0001) %MON dynstat_salt_mean            =   3.4772162565754E+01
(PID.TID 0000.0001) %MON dynstat_salt_sd              =   5.1856783326347E-01
(PID.TID 0000.0001) %MON dynstat_salt_del2            =   1.1008357006267E-03
(PID.TID 0000.0001) %MON dynstat_sst_max              =   3.0924071558341E+01
(PID.TID 0000.0001) %MON dynstat_sst_min              =  -1.9409611851163E+00
(PID.TID 0000.0001) %MON dynstat_sst_mean             =   1.6377260659813E+01
(PID.TID 0000.0001) %MON dynstat_sst_sd               =   9.7797921043814E+00
(PID.TID 0000.0001) %MON dynstat_sst_del2             =   6.3225758102391E-02
(PID.TID 0000.0001) %MON dynstat_sss_max              =   4.1375155127196E+01
(PID.TID 0000.0001) %MON dynstat_sss_min              =   1.8738392489430E+01
(PID.TID 0000.0001) %MON dynstat_sss_mean             =   3.4705611176534E+01
(PID.TID 0000.0001) %MON dynstat_sss_sd               =   1.3055104898700E+00
(PID.TID 0000.0001) %MON dynstat_sss_del2             =   1.0308379069751E-02
(PID.TID 0000.0001) %MON forcing_qnet_max             =   1.1716758789062E+04
(PID.TID 0000.0001) %MON forcing_qnet_min             =  -3.3541972656250E+04
(PID.TID 0000.0001) %MON forcing_qnet_mean            =  -4.0346193628701E+02
(PID.TID 0000.0001) %MON forcing_qnet_sd              =   1.0325483853147E+03
(PID.TID 0000.0001) %MON forcing_qnet_del2            =   3.7757316954919E+01
(PID.TID 0000.0001) %MON forcing_qsw_max              =   0.0000000000000E+00
(PID.TID 0000.0001) %MON forcing_qsw_min              =  -1.0457485977868E+02
(PID.TID 0000.0001) %MON forcing_qsw_mean             =  -2.2115139291470E+01
(PID.TID 0000.0001) %MON forcing_qsw_sd               =   3.0031365966988E+01
(PID.TID 0000.0001) %MON forcing_qsw_del2             =   1.5752775356825E-01
(PID.TID 0000.0001) %MON forcing_empmr_max            =   4.6598598361015E-02
(PID.TID 0000.0001) %MON forcing_empmr_min            =  -1.6364638507366E-01
(PID.TID 0000.0001) %MON forcing_empmr_mean           =  -5.3921753534927E-04
(PID.TID 0000.0001) %MON forcing_empmr_sd             =   7.6086839721346E-03
(PID.TID 0000.0001) %MON forcing_empmr_del2           =   3.0907286922470E-04
(PID.TID 0000.0001) %MON forcing_fu_max               =   6.1044212328867E-01
(PID.TID 0000.0001) %MON forcing_fu_min               =  -4.4179816016119E-01
(PID.TID 0000.0001) %MON forcing_fu_mean              =  -4.5936485852238E-03
(PID.TID 0000.0001) %MON forcing_fu_sd                =   7.5079017819776E-02
(PID.TID 0000.0001) %MON forcing_fu_del2              =   8.2750633673821E-04
(PID.TID 0000.0001) %MON forcing_fv_max               =   3.6698018401996E-01
(PID.TID 0000.0001) %MON forcing_fv_min               =  -3.9400543803654E-01
(PID.TID 0000.0001) %MON forcing_fv_mean              =  -1.3102769609701E-02
(PID.TID 0000.0001) %MON forcing_fv_sd                =   7.2434600197397E-02
(PID.TID 0000.0001) %MON forcing_fv_del2              =   6.9381772351829E-04
(PID.TID 0000.0001) %MON trAdv_CFL_u_max              =   5.1654405731958E-03
(PID.TID 0000.0001) %MON trAdv_CFL_v_max              =   6.8194598771371E-03
(PID.TID 0000.0001) %MON trAdv_CFL_w_max              =   2.0621532780731E-02
(PID.TID 0000.0001) %MON advcfl_uvel_max              =   5.2541101067547E-03
(PID.TID 0000.0001) %MON advcfl_vvel_max              =   4.1288138090713E-03
(PID.TID 0000.0001) %MON advcfl_wvel_max              =   4.5247931652958E-02
(PID.TID 0000.0001) %MON advcfl_W_hf_max              =   2.0621532780731E-02
(PID.TID 0000.0001) %MON pe_b_mean                    =   5.1155158854700E-04
(PID.TID 0000.0001) %MON ke_max                       =   1.0210975224920E+00
(PID.TID 0000.0001) %MON ke_mean                      =   3.2242800746442E-04
(PID.TID 0000.0001) %MON ke_vol                       =   1.3402480188952E+18
(PID.TID 0000.0001) %MON vort_r_min                   =  -4.3848175813093E-06
(PID.TID 0000.0001) %MON vort_r_max                   =   4.1145713877256E-06
(PID.TID 0000.0001) %MON vort_a_mean                  =  -2.0478889410647E-05
(PID.TID 0000.0001) %MON vort_a_sd                    =   7.5252222277326E-05
(PID.TID 0000.0001) %MON vort_p_mean                  =  -2.4400304430385E-05
(PID.TID 0000.0001) %MON vort_p_sd                    =   1.1323414596886E-04
(PID.TID 0000.0001) %MON surfExpan_theta_mean         =   7.6391716995231E-05
(PID.TID 0000.0001) %MON surfExpan_salt_mean          =  -2.2597109526893E-06
(PID.TID 0000.0001) // =======================================================
(PID.TID 0000.0001) // End MONITOR dynamic field statistics
(PID.TID 0000.0001) // =======================================================
(PID.TID 0000.0001) // =======================================================
(PID.TID 0000.0001) // Begin MONITOR SEAICE statistics
(PID.TID 0000.0001) // =======================================================
(PID.TID 0000.0001) %MON seaice_tsnumber              =                 72006
(PID.TID 0000.0001) %MON seaice_time_sec              =   6.4805400000000E+07
(PID.TID 0000.0001) %MON seaice_uice_max              =   1.3697977134914E+00
(PID.TID 0000.0001) %MON seaice_uice_min              =  -4.3013190423457E-01
(PID.TID 0000.0001) %MON seaice_uice_mean             =  -7.3905304996864E-03
(PID.TID 0000.0001) %MON seaice_uice_sd               =   6.4818179420820E-02
(PID.TID 0000.0001) %MON seaice_uice_del2             =   1.3456377864522E-03
(PID.TID 0000.0001) %MON seaice_vice_max              =   1.1134404929017E+00
(PID.TID 0000.0001) %MON seaice_vice_min              =  -1.0715254377588E+00
(PID.TID 0000.0001) %MON seaice_vice_mean             =  -9.8165761278062E-03
(PID.TID 0000.0001) %MON seaice_vice_sd               =   6.2014266208575E-02
(PID.TID 0000.0001) %MON seaice_vice_del2             =   1.8000194224150E-03
(PID.TID 0000.0001) %MON seaice_area_max              =   1.0005736664367E+00
(PID.TID 0000.0001) %MON seaice_area_min              =   0.0000000000000E+00
(PID.TID 0000.0001) %MON seaice_area_mean             =   6.8909915881541E-02
(PID.TID 0000.0001) %MON seaice_area_sd               =   2.3669859071870E-01
(PID.TID 0000.0001) %MON seaice_area_del2             =   1.7780197482621E-03
(PID.TID 0000.0001) %MON seaice_heff_max              =   8.4383562337494E+00
(PID.TID 0000.0001) %MON seaice_heff_min              =   0.0000000000000E+00
(PID.TID 0000.0001) %MON seaice_heff_mean             =   2.0564623012793E-01
(PID.TID 0000.0001) %MON seaice_heff_sd               =   9.7614912598154E-01
(PID.TID 0000.0001) %MON seaice_heff_del2             =   6.1814711680990E-03
(PID.TID 0000.0001) %MON seaice_hsnow_max             =   2.0182174956864E+00
(PID.TID 0000.0001) %MON seaice_hsnow_min             =   0.0000000000000E+00
(PID.TID 0000.0001) %MON seaice_hsnow_mean            =   2.2788759287679E-02
(PID.TID 0000.0001) %MON seaice_hsnow_sd              =   1.1944668650696E-01
(PID.TID 0000.0001) %MON seaice_hsnow_del2            =   1.4545511101383E-03
(PID.TID 0000.0001) // =======================================================
(PID.TID 0000.0001) // End MONITOR SEAICE statistics
(PID.TID 0000.0001) // =======================================================
(PID.TID 0000.0001) // =======================================================
(PID.TID 0000.0001) // Begin MONITOR dynamic field statistics
(PID.TID 0000.0001) // =======================================================
(PID.TID 0000.0001) %MON time_tsnumber                =                 72007
(PID.TID 0000.0001) %MON time_secondsf                =   6.4806300000000E+07
(PID.TID 0000.0001) %MON dynstat_eta_max              =   5.6172048865090E+00
(PID.TID 0000.0001) %MON dynstat_eta_min              =  -7.7228176006757E+00
(PID.TID 0000.0001) %MON dynstat_eta_mean             =   1.1184499384874E-02
(PID.TID 0000.0001) %MON dynstat_eta_sd               =   6.9031879313032E-01
(PID.TID 0000.0001) %MON dynstat_eta_del2             =   8.1478782281810E-03
(PID.TID 0000.0001) %MON dynstat_uvel_max             =   1.7534777614888E+00
(PID.TID 0000.0001) %MON dynstat_uvel_min             =  -5.2171358034093E-01
(PID.TID 0000.0001) %MON dynstat_uvel_mean            =  -1.0944104140085E-03
(PID.TID 0000.0001) %MON dynstat_uvel_sd              =   2.1483273052954E-02
(PID.TID 0000.0001) %MON dynstat_uvel_del2            =   2.1274763054561E-04
(PID.TID 0000.0001) %MON dynstat_vvel_max             =   1.3820809787766E+00
(PID.TID 0000.0001) %MON dynstat_vvel_min             =  -1.2766272610479E+00
(PID.TID 0000.0001) %MON dynstat_vvel_mean            =  -6.5071560983555E-04
(PID.TID 0000.0001) %MON dynstat_vvel_sd              =   1.8029367923828E-02
(PID.TID 0000.0001) %MON dynstat_vvel_del2            =   2.2983242374304E-04
(PID.TID 0000.0001) %MON dynstat_wvel_max             =   2.7488127298674E-03
(PID.TID 0000.0001) %MON dynstat_wvel_min             =  -2.7782114466246E-03
(PID.TID 0000.0001) %MON dynstat_wvel_mean            =   7.5160995419978E-22
(PID.TID 0000.0001) %MON dynstat_wvel_sd              =   8.8239169291695E-05
(PID.TID 0000.0001) %MON dynstat_wvel_del2            =   1.3186763838286E-06
(PID.TID 0000.0001) %MON dynstat_theta_max            =   3.0923796111228E+01
(PID.TID 0000.0001) %MON dynstat_theta_min            =  -1.9699592906672E+00
(PID.TID 0000.0001) %MON dynstat_theta_mean           =   3.9077310340993E+00
(PID.TID 0000.0001) %MON dynstat_theta_sd             =   4.3798475880949E+00
(PID.TID 0000.0001) %MON dynstat_theta_del2           =   9.6332609038846E-03
(PID.TID 0000.0001) %MON dynstat_salt_max             =   4.1374402171783E+01
(PID.TID 0000.0001) %MON dynstat_salt_min             =   1.8738400174743E+01
(PID.TID 0000.0001) %MON dynstat_salt_mean            =   3.4772155171666E+01
(PID.TID 0000.0001) %MON dynstat_salt_sd              =   5.1857939813653E-01
(PID.TID 0000.0001) %MON dynstat_salt_del2            =   1.1023242573774E-03
(PID.TID 0000.0001) %MON dynstat_sst_max              =   3.0923796111228E+01
(PID.TID 0000.0001) %MON dynstat_sst_min              =  -1.9401557475708E+00
(PID.TID 0000.0001) %MON dynstat_sst_mean             =   1.6378511761652E+01
(PID.TID 0000.0001) %MON dynstat_sst_sd               =   9.7794092158159E+00
(PID.TID 0000.0001) %MON dynstat_sst_del2             =   6.3168777234962E-02
(PID.TID 0000.0001) %MON dynstat_sss_max              =   4.1374402171783E+01
(PID.TID 0000.0001) %MON dynstat_sss_min              =   1.8738400174743E+01
(PID.TID 0000.0001) %MON dynstat_sss_mean             =   3.4705083595279E+01
(PID.TID 0000.0001) %MON dynstat_sss_sd               =   1.3058858355199E+00
(PID.TID 0000.0001) %MON dynstat_sss_del2             =   1.0335610854328E-02
(PID.TID 0000.0001) %MON forcing_qnet_max             =   2.4291671875000E+04
(PID.TID 0000.0001) %MON forcing_qnet_min             =  -9.7005126953125E+03
(PID.TID 0000.0001) %MON forcing_qnet_mean            =  -3.7806758360116E+02
(PID.TID 0000.0001) %MON forcing_qnet_sd              =   9.5241726155631E+02
(PID.TID 0000.0001) %MON forcing_qnet_del2            =   2.9406114106306E+01
(PID.TID 0000.0001) %MON forcing_qsw_max              =   0.0000000000000E+00
(PID.TID 0000.0001) %MON forcing_qsw_min              =  -1.0511936742683E+02
(PID.TID 0000.0001) %MON forcing_qsw_mean             =  -2.2077875898002E+01
(PID.TID 0000.0001) %MON forcing_qsw_sd               =   2.9998609497198E+01
(PID.TID 0000.0001) %MON forcing_qsw_del2             =   1.5879258097112E-01
(PID.TID 0000.0001) %MON forcing_empmr_max            =   4.5080300420523E-02
(PID.TID 0000.0001) %MON forcing_empmr_min            =  -1.6262814402580E-01
(PID.TID 0000.0001) %MON forcing_empmr_mean           =  -5.2960023423391E-04
(PID.TID 0000.0001) %MON forcing_empmr_sd             =   7.4329450996850E-03
(PID.TID 0000.0001) %MON forcing_empmr_del2           =   3.0392432853238E-04
(PID.TID 0000.0001) %MON forcing_fu_max               =   6.3680969913739E-01
(PID.TID 0000.0001) %MON forcing_fu_min               =  -4.1181812220369E-01
(PID.TID 0000.0001) %MON forcing_fu_mean              =  -4.5065888534641E-03
(PID.TID 0000.0001) %MON forcing_fu_sd                =   7.5144377085786E-02
(PID.TID 0000.0001) %MON forcing_fu_del2              =   8.5293631940777E-04
(PID.TID 0000.0001) %MON forcing_fv_max               =   3.6205807874765E-01
(PID.TID 0000.0001) %MON forcing_fv_min               =  -3.6232012857956E-01
(PID.TID 0000.0001) %MON forcing_fv_mean              =  -1.2949597337113E-02
(PID.TID 0000.0001) %MON forcing_fv_sd                =   7.2387011782319E-02
(PID.TID 0000.0001) %MON forcing_fv_del2              =   7.0864076681377E-04
(PID.TID 0000.0001) %MON trAdv_CFL_u_max              =   5.7487564442213E-03
(PID.TID 0000.0001) %MON trAdv_CFL_v_max              =   7.3076578210892E-03
(PID.TID 0000.0001) %MON trAdv_CFL_w_max              =   1.3693867503886E-02
(PID.TID 0000.0001) %MON advcfl_uvel_max              =   5.8474391306698E-03
(PID.TID 0000.0001) %MON advcfl_vvel_max              =   4.5102343757649E-03
(PID.TID 0000.0001) %MON advcfl_wvel_max              =   3.3487812601372E-02
(PID.TID 0000.0001) %MON advcfl_W_hf_max              =   1.3693867503886E-02
(PID.TID 0000.0001) %MON pe_b_mean                    =   5.0250079422232E-04
(PID.TID 0000.0001) %MON ke_max                       =   1.2461153449666E+00
(PID.TID 0000.0001) %MON ke_mean                      =   3.6352745150162E-04
(PID.TID 0000.0001) %MON ke_vol                       =   1.3402480188952E+18
(PID.TID 0000.0001) %MON vort_r_min                   =  -4.7719497188527E-06
(PID.TID 0000.0001) %MON vort_r_max                   =   4.4644516528271E-06
(PID.TID 0000.0001) %MON vort_a_mean                  =  -2.0478889410647E-05
(PID.TID 0000.0001) %MON vort_a_sd                    =   7.5252213020153E-05
(PID.TID 0000.0001) %MON vort_p_mean                  =  -2.4400304430385E-05
(PID.TID 0000.0001) %MON vort_p_sd                    =   1.1323405627477E-04
(PID.TID 0000.0001) %MON surfExpan_theta_mean         =   6.1470264829862E-05
(PID.TID 0000.0001) %MON surfExpan_salt_mean          =  -2.0504503349293E-06
(PID.TID 0000.0001) // =======================================================
(PID.TID 0000.0001) // End MONITOR dynamic field statistics
(PID.TID 0000.0001) // =======================================================
(PID.TID 0000.0001) // =======================================================
(PID.TID 0000.0001) // Begin MONITOR SEAICE statistics
(PID.TID 0000.0001) // =======================================================
(PID.TID 0000.0001) %MON seaice_tsnumber              =                 72007
(PID.TID 0000.0001) %MON seaice_time_sec              =   6.4806300000000E+07
(PID.TID 0000.0001) %MON seaice_uice_max              =   1.5798584636879E+00
(PID.TID 0000.0001) %MON seaice_uice_min              =  -4.9254878238709E-01
(PID.TID 0000.0001) %MON seaice_uice_mean             =  -7.5743251956142E-03
(PID.TID 0000.0001) %MON seaice_uice_sd               =   6.8677544736161E-02
(PID.TID 0000.0001) %MON seaice_uice_del2             =   1.4969102561331E-03
(PID.TID 0000.0001) %MON seaice_vice_max              =   1.2605043839923E+00
(PID.TID 0000.0001) %MON seaice_vice_min              =  -1.2192242306515E+00
(PID.TID 0000.0001) %MON seaice_vice_mean             =  -1.0032953534814E-02
(PID.TID 0000.0001) %MON seaice_vice_sd               =   6.5254034635662E-02
(PID.TID 0000.0001) %MON seaice_vice_del2             =   1.9757984714321E-03
(PID.TID 0000.0001) %MON seaice_area_max              =   1.0006891789638E+00
(PID.TID 0000.0001) %MON seaice_area_min              =   0.0000000000000E+00
(PID.TID 0000.0001) %MON seaice_area_mean             =   6.8919484419628E-02
(PID.TID 0000.0001) %MON seaice_area_sd               =   2.3670687243991E-01
(PID.TID 0000.0001) %MON seaice_area_del2             =   1.7709628795033E-03
(PID.TID 0000.0001) %MON seaice_heff_max              =   8.4378797394894E+00
(PID.TID 0000.0001) %MON seaice_heff_min              =   0.0000000000000E+00
(PID.TID 0000.0001) %MON seaice_heff_mean             =   2.0564078993355E-01
(PID.TID 0000.0001) %MON seaice_heff_sd               =   9.7604794335848E-01
(PID.TID 0000.0001) %MON seaice_heff_del2             =   6.1698643425185E-03
(PID.TID 0000.0001) %MON seaice_hsnow_max             =   2.0155562297190E+00
(PID.TID 0000.0001) %MON seaice_hsnow_min             =   0.0000000000000E+00
(PID.TID 0000.0001) %MON seaice_hsnow_mean            =   2.2788895551588E-02
(PID.TID 0000.0001) %MON seaice_hsnow_sd              =   1.1941728095997E-01
(PID.TID 0000.0001) %MON seaice_hsnow_del2            =   1.4525706062600E-03
(PID.TID 0000.0001) // =======================================================
(PID.TID 0000.0001) // End MONITOR SEAICE statistics
(PID.TID 0000.0001) // =======================================================
(PID.TID 0000.0001) // =======================================================
(PID.TID 0000.0001) // Begin MONITOR dynamic field statistics
(PID.TID 0000.0001) // =======================================================
(PID.TID 0000.0001) %MON time_tsnumber                =                 72008
(PID.TID 0000.0001) %MON time_secondsf                =   6.4807200000000E+07
(PID.TID 0000.0001) %MON dynstat_eta_max              =   5.0380656401105E+00
(PID.TID 0000.0001) %MON dynstat_eta_min              =  -8.2268659355707E+00
(PID.TID 0000.0001) %MON dynstat_eta_mean             =   1.1640177717553E-02
(PID.TID 0000.0001) %MON dynstat_eta_sd               =   6.9769999570457E-01
(PID.TID 0000.0001) %MON dynstat_eta_del2             =   8.0021477124778E-03
(PID.TID 0000.0001) %MON dynstat_uvel_max             =   1.9043728340725E+00
(PID.TID 0000.0001) %MON dynstat_uvel_min             =  -5.4058170816914E-01
(PID.TID 0000.0001) %MON dynstat_uvel_mean            =  -1.0582980487997E-03
(PID.TID 0000.0001) %MON dynstat_uvel_sd              =   2.2993703242264E-02
(PID.TID 0000.0001) %MON dynstat_uvel_del2            =   2.3326126799360E-04
(PID.TID 0000.0001) %MON dynstat_vvel_max             =   1.4678338394496E+00
(PID.TID 0000.0001) %MON dynstat_vvel_min             =  -1.3316753885512E+00
(PID.TID 0000.0001) %MON dynstat_vvel_mean            =  -6.8252090000946E-04
(PID.TID 0000.0001) %MON dynstat_vvel_sd              =   1.8761780319980E-02
(PID.TID 0000.0001) %MON dynstat_vvel_del2            =   2.4190677042405E-04
(PID.TID 0000.0001) %MON dynstat_wvel_max             =   3.1869861033444E-03
(PID.TID 0000.0001) %MON dynstat_wvel_min             =  -3.2248594401349E-03
(PID.TID 0000.0001) %MON dynstat_wvel_mean            =  -9.3951244274973E-23
(PID.TID 0000.0001) %MON dynstat_wvel_sd              =   1.0014908695293E-04
(PID.TID 0000.0001) %MON dynstat_wvel_del2            =   1.5251507556042E-06
(PID.TID 0000.0001) %MON dynstat_theta_max            =   3.0923415475897E+01
(PID.TID 0000.0001) %MON dynstat_theta_min            =  -1.9699179580182E+00
(PID.TID 0000.0001) %MON dynstat_theta_mean           =   3.9077370376771E+00
(PID.TID 0000.0001) %MON dynstat_theta_sd             =   4.3798484464445E+00
(PID.TID 0000.0001) %MON dynstat_theta_del2           =   9.6281431056703E-03
(PID.TID 0000.0001) %MON dynstat_salt_max             =   4.1373578502946E+01
(PID.TID 0000.0001) %MON dynstat_salt_min             =   1.8738413104375E+01
(PID.TID 0000.0001) %MON dynstat_salt_mean            =   3.4772147863378E+01
(PID.TID 0000.0001) %MON dynstat_salt_sd              =   5.1859167707734E-01
(PID.TID 0000.0001) %MON dynstat_salt_del2            =   1.1040743306623E-03
(PID.TID 0000.0001) %MON dynstat_sst_max              =   3.0923415475897E+01
(PID.TID 0000.0001) %MON dynstat_sst_min              =  -1.9393461175660E+00
(PID.TID 0000.0001) %MON dynstat_sst_mean             =   1.6379701091551E+01
(PID.TID 0000.0001) %MON dynstat_sst_sd               =   9.7789904947971E+00
(PID.TID 0000.0001) %MON dynstat_sst_del2             =   6.3109505562385E-02
(PID.TID 0000.0001) %MON dynstat_sss_max              =   4.1373578502946E+01
(PID.TID 0000.0001) %MON dynstat_sss_min              =   1.8738413104375E+01
(PID.TID 0000.0001) %MON dynstat_sss_mean             =   3.4704561791156E+01
(PID.TID 0000.0001) %MON dynstat_sss_sd               =   1.3062789789015E+00
(PID.TID 0000.0001) %MON dynstat_sss_del2             =   1.0367472959127E-02
(PID.TID 0000.0001) %MON forcing_qnet_max             =   3.2650576171875E+04
(PID.TID 0000.0001) %MON forcing_qnet_min             =  -9.8143486328125E+03
(PID.TID 0000.0001) %MON forcing_qnet_mean            =  -3.5406255807701E+02
(PID.TID 0000.0001) %MON forcing_qnet_sd              =   9.9968846274457E+02
(PID.TID 0000.0001) %MON forcing_qnet_del2            =   3.3326021805550E+01
(PID.TID 0000.0001) %MON forcing_qsw_max              =   0.0000000000000E+00
(PID.TID 0000.0001) %MON forcing_qsw_min              =  -1.0521806155807E+02
(PID.TID 0000.0001) %MON forcing_qsw_mean             =  -2.1969815157640E+01
(PID.TID 0000.0001) %MON forcing_qsw_sd               =   2.9912929451724E+01
(PID.TID 0000.0001) %MON forcing_qsw_del2             =   1.5994948623451E-01
(PID.TID 0000.0001) %MON forcing_empmr_max            =   4.1852395981550E-02
(PID.TID 0000.0001) %MON forcing_empmr_min            =  -1.5897059440613E-01
(PID.TID 0000.0001) %MON forcing_empmr_mean           =  -5.2023276314170E-04
(PID.TID 0000.0001) %MON forcing_empmr_sd             =   7.2794689747014E-03
(PID.TID 0000.0001) %MON forcing_empmr_del2           =   2.9843076015949E-04
(PID.TID 0000.0001) %MON forcing_fu_max               =   6.5953663178237E-01
(PID.TID 0000.0001) %MON forcing_fu_min               =  -3.9599485261546E-01
(PID.TID 0000.0001) %MON forcing_fu_mean              =  -4.4857430739812E-03
(PID.TID 0000.0001) %MON forcing_fu_sd                =   7.5222401801469E-02
(PID.TID 0000.0001) %MON forcing_fu_del2              =   8.7227391551634E-04
(PID.TID 0000.0001) %MON forcing_fv_max               =   3.5657423711348E-01
(PID.TID 0000.0001) %MON forcing_fv_min               =  -3.3700185711067E-01
(PID.TID 0000.0001) %MON forcing_fv_mean              =  -1.2790007275951E-02
(PID.TID 0000.0001) %MON forcing_fv_sd                =   7.2373082354340E-02
(PID.TID 0000.0001) %MON forcing_fv_del2              =   7.2005361987756E-04
(PID.TID 0000.0001) %MON trAdv_CFL_u_max              =   6.2434641844439E-03
(PID.TID 0000.0001) %MON trAdv_CFL_v_max              =   7.6133402872699E-03
(PID.TID 0000.0001) %MON trAdv_CFL_w_max              =   9.3683680587306E-03
(PID.TID 0000.0001) %MON advcfl_uvel_max              =   6.3506389838016E-03
(PID.TID 0000.0001) %MON advcfl_vvel_max              =   4.7900772402327E-03
(PID.TID 0000.0001) %MON advcfl_wvel_max              =   3.2976172479136E-02
(PID.TID 0000.0001) %MON advcfl_W_hf_max              =   9.3683680587306E-03
(PID.TID 0000.0001) %MON pe_b_mean                    =   4.9477561416201E-04
(PID.TID 0000.0001) %MON ke_max                       =   1.4445194666042E+00
(PID.TID 0000.0001) %MON ke_mean                      =   4.0685241077738E-04
(PID.TID 0000.0001) %MON ke_vol                       =   1.3402480188952E+18
(PID.TID 0000.0001) %MON vort_r_min                   =  -5.1009915506081E-06
(PID.TID 0000.0001) %MON vort_r_max                   =   4.6978454274161E-06
(PID.TID 0000.0001) %MON vort_a_mean                  =  -2.0478889410646E-05
(PID.TID 0000.0001) %MON vort_a_sd                    =   7.5252200859103E-05
(PID.TID 0000.0001) %MON vort_p_mean                  =  -2.4400304430385E-05
(PID.TID 0000.0001) %MON vort_p_sd                    =   1.1323399425797E-04
(PID.TID 0000.0001) %MON surfExpan_theta_mean         =   4.9499962134699E-05
(PID.TID 0000.0001) %MON surfExpan_salt_mean          =  -1.7442288799176E-06
(PID.TID 0000.0001) // =======================================================
(PID.TID 0000.0001) // End MONITOR dynamic field statistics
(PID.TID 0000.0001) // =======================================================
(PID.TID 0000.0001) // =======================================================
(PID.TID 0000.0001) // Begin MONITOR SEAICE statistics
(PID.TID 0000.0001) // =======================================================
(PID.TID 0000.0001) %MON seaice_tsnumber              =                 72008
(PID.TID 0000.0001) %MON seaice_time_sec              =   6.4807200000000E+07
(PID.TID 0000.0001) %MON seaice_uice_max              =   1.7631324229742E+00
(PID.TID 0000.0001) %MON seaice_uice_min              =  -5.4182727444590E-01
(PID.TID 0000.0001) %MON seaice_uice_mean             =  -7.7639533655129E-03
(PID.TID 0000.0001) %MON seaice_uice_sd               =   7.2435685163092E-02
(PID.TID 0000.0001) %MON seaice_uice_del2             =   1.6246375203078E-03
(PID.TID 0000.0001) %MON seaice_vice_max              =   1.3766028176619E+00
(PID.TID 0000.0001) %MON seaice_vice_min              =  -1.3336782047552E+00
(PID.TID 0000.0001) %MON seaice_vice_mean             =  -1.0239558330402E-02
(PID.TID 0000.0001) %MON seaice_vice_sd               =   6.8026149603269E-02
(PID.TID 0000.0001) %MON seaice_vice_del2             =   2.0993817211723E-03
(PID.TID 0000.0001) %MON seaice_area_max              =   1.0007897202904E+00
(PID.TID 0000.0001) %MON seaice_area_min              =   0.0000000000000E+00
(PID.TID 0000.0001) %MON seaice_area_mean             =   6.8927694494747E-02
(PID.TID 0000.0001) %MON seaice_area_sd               =   2.3671117466299E-01
(PID.TID 0000.0001) %MON seaice_area_del2             =   1.7638034552633E-03
(PID.TID 0000.0001) %MON seaice_heff_max              =   8.4372989197362E+00
(PID.TID 0000.0001) %MON seaice_heff_min              =   0.0000000000000E+00
(PID.TID 0000.0001) %MON seaice_heff_mean             =   2.0563461611823E-01
(PID.TID 0000.0001) %MON seaice_heff_sd               =   9.7594193743584E-01
(PID.TID 0000.0001) %MON seaice_heff_del2             =   6.1581139594950E-03
(PID.TID 0000.0001) %MON seaice_hsnow_max             =   2.0134515130998E+00
(PID.TID 0000.0001) %MON seaice_hsnow_min             =   0.0000000000000E+00
(PID.TID 0000.0001) %MON seaice_hsnow_mean            =   2.2788835817403E-02
(PID.TID 0000.0001) %MON seaice_hsnow_sd              =   1.1939058962978E-01
(PID.TID 0000.0001) %MON seaice_hsnow_del2            =   1.4508694286775E-03
(PID.TID 0000.0001) // =======================================================
(PID.TID 0000.0001) // End MONITOR SEAICE statistics
(PID.TID 0000.0001) // =======================================================
(PID.TID 0000.0001) DIAGSTATS_CLOSE_IO: close file: dynStDiag.0000072000.txt , unit=    37
(PID.TID 0000.0001) DIAGSTATS_CLOSE_IO: close file: iceStDiag.0000072000.txt , unit=    38
(PID.TID 0000.0001) %CHECKPOINT     72008 0000072008
