(PID.TID 0000.0001) 
(PID.TID 0000.0001) // ======================================================
(PID.TID 0000.0001) //                      MITgcm UV
(PID.TID 0000.0001) //                      =========
(PID.TID 0000.0001) // ======================================================
(PID.TID 0000.0001) // execution environment starting up...
(PID.TID 0000.0001) 
(PID.TID 0000.0001) // MITgcmUV version:  checkpoint67f
(PID.TID 0000.0001) // Build user:        estrobac
(PID.TID 0000.0001) // Build host:        discover31
(PID.TID 0000.0001) // Build date:        Fri Dec 14 17:48:33 EST 2018
(PID.TID 0000.0001) 
(PID.TID 0000.0001) // =======================================================
(PID.TID 0000.0001) // Execution Environment parameter file "eedata"
(PID.TID 0000.0001) // =======================================================
(PID.TID 0000.0001) ># Example "eedata" file
(PID.TID 0000.0001) ># Lines beginning "#" are comments
(PID.TID 0000.0001) ># nTx - No. threads per process in X
(PID.TID 0000.0001) ># nTy - No. threads per process in Y
(PID.TID 0000.0001) > &EEPARMS
(PID.TID 0000.0001) > useCubedSphereExchange=.TRUE.,
(PID.TID 0000.0001) > nTx=1,
(PID.TID 0000.0001) > nTy=1,
(PID.TID 0000.0001) >#debugMode=.TRUE.,
(PID.TID 0000.0001) > &
(PID.TID 0000.0001) ># Note: Some systems use & as the namelist terminator (as shown here).
(PID.TID 0000.0001) >#       Other systems use a / character.
(PID.TID 0000.0001) 
(PID.TID 0000.0001) // =======================================================
(PID.TID 0000.0001) // Computational Grid Specification ( see files "SIZE.h" )
(PID.TID 0000.0001) //                                  ( and "eedata"       )
(PID.TID 0000.0001) // =======================================================
(PID.TID 0000.0001)      nPx =  360 ; /* No. processes in X */
(PID.TID 0000.0001)      nPy =    1 ; /* No. processes in Y */
(PID.TID 0000.0001)      nSx =    1 ; /* No. tiles in X per process */
(PID.TID 0000.0001)      nSy =    1 ; /* No. tiles in Y per process */
(PID.TID 0000.0001)      sNx =   15 ; /* Tile size in X */
(PID.TID 0000.0001)      sNy =   15 ; /* Tile size in Y */
(PID.TID 0000.0001)      OLx =    4 ; /* Tile overlap distance in X */
(PID.TID 0000.0001)      OLy =    4 ; /* Tile overlap distance in Y */
(PID.TID 0000.0001)      nTx =    1 ; /* No. threads in X per process */
(PID.TID 0000.0001)      nTy =    1 ; /* No. threads in Y per process */
(PID.TID 0000.0001)       Nr =   50 ; /* No. levels in the vertical   */
(PID.TID 0000.0001)       Nx = 5400 ; /* Total domain size in X ( = nPx*nSx*sNx ) */
(PID.TID 0000.0001)       Ny =   15 ; /* Total domain size in Y ( = nPy*nSy*sNy ) */
(PID.TID 0000.0001)   nTiles =    1 ; /* Total no. tiles per process ( = nSx*nSy ) */
(PID.TID 0000.0001)   nProcs =  360 ; /* Total no. processes ( = nPx*nPy ) */
(PID.TID 0000.0001) nThreads =    1 ; /* Total no. threads per process ( = nTx*nTy ) */
(PID.TID 0000.0001) usingMPI =    T ; /* Flag used to control whether MPI is in use */
(PID.TID 0000.0001)                   /*  note: To execute a program with MPI calls */
(PID.TID 0000.0001)                   /*  it must be launched appropriately e.g     */
(PID.TID 0000.0001)                   /*  "mpirun -np 64 ......"                    */
(PID.TID 0000.0001) useCoupler=    F ;/* Flag used to control communications with   */
(PID.TID 0000.0001)                   /*  other model components, through a coupler */
(PID.TID 0000.0001) useNest2W_parent =    F ;/* Control 2-W Nesting comm */
(PID.TID 0000.0001) useNest2W_child  =    F ;/* Control 2-W Nesting comm */
(PID.TID 0000.0001) debugMode =    F ; /* print debug msg. (sequence of S/R calls)  */
(PID.TID 0000.0001) printMapIncludesZeros=    F ; /* print zeros in Std.Output maps */
(PID.TID 0000.0001) maxLengthPrt1D=   65 /* maxLength of 1D array printed to StdOut */
(PID.TID 0000.0001) 
(PID.TID 0000.0001) ======= Starting MPI parallel Run =========
(PID.TID 0000.0001)  My Processor Name (len:  8 ) = borgr052
(PID.TID 0000.0001)  Located at (  0,  0) on processor grid (0:359,0:  0)
(PID.TID 0000.0001)  Origin at  (     1,     1) on global grid (1:  5400,1:    15)
(PID.TID 0000.0001)  North neighbor = processor 0000
(PID.TID 0000.0001)  South neighbor = processor 0000
(PID.TID 0000.0001)   East neighbor = processor 0001
(PID.TID 0000.0001)   West neighbor = processor 0359
(PID.TID 0000.0001) // ======================================================
(PID.TID 0000.0001) // Mapping of tiles to threads
(PID.TID 0000.0001) // ======================================================
(PID.TID 0000.0001) // -o- Thread   1, tiles (   1:   1,   1:   1)
(PID.TID 0000.0001) 
(PID.TID 0000.0001) W2_READPARMS: opening data.exch2
(PID.TID 0000.0001)  OPEN_COPY_DATA_FILE: opening file data.exch2
(PID.TID 0000.0001) // =======================================================
(PID.TID 0000.0001) // Parameter file "data.exch2"
(PID.TID 0000.0001) // =======================================================
(PID.TID 0000.0001) ># EXCH2 Package: Wrapper-2 User Choice
(PID.TID 0000.0001) >#--------------------
(PID.TID 0000.0001) >#  preDefTopol   :: pre-defined Topology selector:
(PID.TID 0000.0001) >#                :: = 0 : topology defined from processing "data.exch2";
(PID.TID 0000.0001) >#                :: = 1 : simple, single facet topology;
(PID.TID 0000.0001) >#                :: = 2 : customized topology (w2_set_myown_facets)
(PID.TID 0000.0001) >#                :: = 3 : 6-facet Cube (3 face-dims: nRed, nGreen, nBlue).
(PID.TID 0000.0001) >#  dimsFacets    :: facet pair of dimensions (n1x,n1y, n2x,n2y ...)
(PID.TID 0000.0001) >#  facetEdgeLink :: Face-Edge connectivity map:
(PID.TID 0000.0001) >#    facetEdgeLink(i,j)=XX.1 : face(j)-edge(i) (i=1,2,3,4 <==> N,S,E,W)
(PID.TID 0000.0001) >#    is connected to Northern edge of face "XX" ; similarly,
(PID.TID 0000.0001) >#    = XX.2 : to Southern.E, XX.3 = Eastern.E, XX.4 = Western.E of face "XX"
(PID.TID 0000.0001) >#  blankList     :: List of "blank" tiles
(PID.TID 0000.0001) >#  W2_mapIO      :: global map IO selector (-1 = old type ; 0 = 1 long line in X
(PID.TID 0000.0001) >#                :: 1 = compact, mostly in Y dir)
(PID.TID 0000.0001) >#  W2_printMsg   :: option for information messages printing
(PID.TID 0000.0001) >#                :: <0 : write to log file ; =0 : minimum print ;
(PID.TID 0000.0001) >#                :: =1 : no duplicated print ; =2 : all processes do print
(PID.TID 0000.0001) >#--------------------
(PID.TID 0000.0001) > &W2_EXCH2_PARM01
(PID.TID 0000.0001) ># W2_printMsg= 0,
(PID.TID 0000.0001) >  W2_mapIO   = 1,
(PID.TID 0000.0001) >#
(PID.TID 0000.0001) >  preDefTopol=0,
(PID.TID 0000.0001) >#-- 5 facets llc_120 topology (drop facet 6 and its connection):
(PID.TID 0000.0001) >  dimsFacets(1:10) = 90, 270, 90, 270, 90, 90, 270, 90, 270, 90,
(PID.TID 0000.0001) >  facetEdgeLink(1:4,1)= 3.4, 0. , 2.4, 5.1,
(PID.TID 0000.0001) >  facetEdgeLink(1:4,2)= 3.2, 0. , 4.2, 1.3,
(PID.TID 0000.0001) >  facetEdgeLink(1:4,3)= 5.4, 2.1, 4.4, 1.1,
(PID.TID 0000.0001) >  facetEdgeLink(1:4,4)= 5.2, 2.3, 0. , 3.3,
(PID.TID 0000.0001) >  facetEdgeLink(1:4,5)= 1.4, 4.1, 0. , 3.1,
(PID.TID 0000.0001) >#-- full 6 facets llc_120 topology (equivalent to default preDefTopol=3):
(PID.TID 0000.0001) ># dimsFacets(1:12) = 120, 360, 120, 360, 120, 120, 360, 120, 360, 120, 120, 120,
(PID.TID 0000.0001) ># facetEdgeLink(1:4,1)= 3.4, 6.1, 2.4, 5.1,
(PID.TID 0000.0001) ># facetEdgeLink(1:4,2)= 3.2, 6.3, 4.2, 1.3,
(PID.TID 0000.0001) ># facetEdgeLink(1:4,3)= 5.4, 2.1, 4.4, 1.1,
(PID.TID 0000.0001) ># facetEdgeLink(1:4,4)= 5.2, 2.3, 6.2, 3.3,
(PID.TID 0000.0001) ># facetEdgeLink(1:4,5)= 1.4, 4.1, 6.4, 3.1,
(PID.TID 0000.0001) ># facetEdgeLink(1:4,6)= 1.2, 4.3, 2.2, 5.3,
(PID.TID 0000.0001) >#
(PID.TID 0000.0001) >#90x30   nprocs = 36
(PID.TID 0000.0001) ># blankList(1:3)=1,10,11,
(PID.TID 0000.0001) >#30x90
(PID.TID 0000.0001) >#
(PID.TID 0000.0001) >#45x30   nprocs = 72
(PID.TID 0000.0001) ># blankList(1:6)=1,2,19,20,21,22
(PID.TID 0000.0001) >#30x45   nprocs = 68
(PID.TID 0000.0001) ># blankList(1:10)=2,3,19,20,21,35,51,60,69,78
(PID.TID 0000.0001) >#45x45   nprocs = 48
(PID.TID 0000.0001) ># blankList(1:4)=2,13,14,23
(PID.TID 0000.0001) >#30x30   nprocs = 96
(PID.TID 0000.0001) ># blankList(1:21)=1,2,3,5,6,28,29,30,31,32,33,49,50,52,53,72,81,90,99,108,117
(PID.TID 0000.0001) >#30x30   nprocs = 112
(PID.TID 0000.0001) ># blankList(1:5)=2,3,28,29,30
(PID.TID 0000.0001) >#15x30   nprocs = 192
(PID.TID 0000.0001) ># blankList(1:42)=1,2,3,4,5,6,9,10,11,12,55,56,57,58,59,60,61,62,63,64,65,66,
(PID.TID 0000.0001) >#            97,98,99,100,103,104,105,106,143,144,
(PID.TID 0000.0001) >#            161,162,179,180,197,198,215,216,233,234
(PID.TID 0000.0001) >#15x15   nprocs = 360
(PID.TID 0000.0001) > blankList(1:108)=1,2,3,4,5,6,7,8,9,10,11,12,14,15,16,17,18,21,22,23,24,
(PID.TID 0000.0001) >  65,71,75,76,90,95,96,101,102,109,110,111,112,113,114,115,116,117,118,119,
(PID.TID 0000.0001) >  120,121,122,123,124,125,126,127,128,129,130,131,132,
(PID.TID 0000.0001) >  188,189,190,193,194,195,196,199,
(PID.TID 0000.0001) >  200,201,202,203,205,206,207,208,209,211,212,213,214,215,216,242,247,253,
(PID.TID 0000.0001) >  267,268,269,270,287,288,305,306,323,324,341,342,359,360,362,376,377,378,
(PID.TID 0000.0001) >  380,381,382,395,396,400,412,413,414,430,
(PID.TID 0000.0001) >#note: it seems that 8 of the followig 9 tiles could be added to 15x15 blank
(PID.TID 0000.0001) >#  list to reach 352=22*16 cores : 431 432 440 441 448 449 450 467 468
(PID.TID 0000.0001) > &
(PID.TID 0000.0001) 
(PID.TID 0000.0001) W2_READPARMS: finished reading data.exch2
(PID.TID 0000.0001) W2_useE2ioLayOut=    T ;/* T: use Exch2 glob IO map; F: use model default */
(PID.TID 0000.0001) W2_mapIO        =   1 ; /* select option for Exch2 global-IO map */
(PID.TID 0000.0001) W2_printMsg     =  -1 ; /* select option for printing information */
(PID.TID 0000.0001) ===== Start setting W2 TOPOLOGY:
(PID.TID 0000.0001)  write to log-file: w2_tile_topology.0000.log
(PID.TID 0000.0001) =====       setting W2 TOPOLOGY: Done
(PID.TID 0000.0001) 
(PID.TID 0000.0001)  INI_PARMS: opening model parameter file "data"
(PID.TID 0000.0001)  OPEN_COPY_DATA_FILE: opening file data
(PID.TID 0000.0001) // =======================================================
(PID.TID 0000.0001) // Parameter file "data"
(PID.TID 0000.0001) // =======================================================
(PID.TID 0000.0001) ># ====================
(PID.TID 0000.0001) ># | Model parameters |
(PID.TID 0000.0001) ># ====================
(PID.TID 0000.0001) >#
(PID.TID 0000.0001) ># Continuous equation parameters
(PID.TID 0000.0001) > &PARM01
(PID.TID 0000.0001) > tRef               = 3*23.,3*22.,21.,2*20.,19.,2*18.,17.,2*16.,15.,14.,13.,
(PID.TID 0000.0001) >                      12.,11.,2*9.,8.,7.,2*6.,2*5.,3*4.,3*3.,4*2.,12*1.,
(PID.TID 0000.0001) > sRef               = 50*34.5,
(PID.TID 0000.0001) > viscAr= 5.6614e-04,
(PID.TID 0000.0001) > no_slip_sides = .FALSE.,
(PID.TID 0000.0001) > no_slip_bottom = .TRUE.,
(PID.TID 0000.0001) > diffKrT=5.44e-7,
(PID.TID 0000.0001) > diffKrS=5.44e-7,
(PID.TID 0000.0001) > rhonil=1027.5,
(PID.TID 0000.0001) > rhoConstFresh=999.8,
(PID.TID 0000.0001) > eosType='JMD95Z',
(PID.TID 0000.0001) > hFacMin=0.3,
(PID.TID 0000.0001) > hFacInf=0.1,
(PID.TID 0000.0001) > hFacSup=5.,
(PID.TID 0000.0001) > implicitDiffusion=.TRUE.,
(PID.TID 0000.0001) > implicitViscosity=.TRUE.,
(PID.TID 0000.0001) > viscC4Leith=2.0,
(PID.TID 0000.0001) > viscC4Leithd=2.0,
(PID.TID 0000.0001) > useAreaViscLength=.TRUE.,
(PID.TID 0000.0001) > sideDragFactor=0.,
(PID.TID 0000.0001) > highOrderVorticity  = .TRUE.,
(PID.TID 0000.0001) > bottomDragQuadratic = 0.0021,
(PID.TID 0000.0001) > tempAdvScheme=77,
(PID.TID 0000.0001) > saltAdvScheme=77,
(PID.TID 0000.0001) > StaggerTimeStep=.TRUE.,
(PID.TID 0000.0001) > multiDimAdvection=.TRUE.,
(PID.TID 0000.0001) > vectorInvariantMomentum=.TRUE.,
(PID.TID 0000.0001) > implicitFreeSurface=.TRUE.,
(PID.TID 0000.0001) > exactConserv=.TRUE.,
(PID.TID 0000.0001) > debuglevel=-1,
(PID.TID 0000.0001) > convertFW2Salt=-1
(PID.TID 0000.0001) > useRealFreshWaterFlux=.TRUE.,
(PID.TID 0000.0001) > useSingleCPUio=.TRUE.,
(PID.TID 0000.0001) > globalFiles=.TRUE.,
(PID.TID 0000.0001) > readBinaryPrec=32,
(PID.TID 0000.0001) > writeBinaryPrec=32,
(PID.TID 0000.0001) > temp_EvPrRn=0.,
(PID.TID 0000.0001) > &
(PID.TID 0000.0001) >
(PID.TID 0000.0001) ># Elliptic solver parameters
(PID.TID 0000.0001) > &PARM02
(PID.TID 0000.0001) > cg2dMaxIters = 100,
(PID.TID 0000.0001) > cg2dTargetResidual = 1.E-5,
(PID.TID 0000.0001) > &
(PID.TID 0000.0001) >
(PID.TID 0000.0001) ># Time stepping parameters
(PID.TID 0000.0001) > &PARM03
(PID.TID 0000.0001) > nIter0=174588,
(PID.TID 0000.0001) > nTimeSteps       = 384,
(PID.TID 0000.0001) > deltaT = 450.,
(PID.TID 0000.0001) > abEps = 0.1,
(PID.TID 0000.0001) > forcing_In_AB=.FALSE.,
(PID.TID 0000.0001) > momDissip_In_AB=.FALSE.,
(PID.TID 0000.0001) > pChkptFreq        = 172800.0,
(PID.TID 0000.0001) > chkptFreq        = 172800.0,
(PID.TID 0000.0001) > dumpfreq = 3600.,
(PID.TID 0000.0001) > monitorFreq = 60.,
(PID.TID 0000.0001) > dumpInitAndLast=.TRUE.,
(PID.TID 0000.0001) > &
(PID.TID 0000.0001) >
(PID.TID 0000.0001) ># Gridding parameters
(PID.TID 0000.0001) > &PARM04
(PID.TID 0000.0001) > usingCurvilinearGrid=.TRUE.,
(PID.TID 0000.0001) > delR =
(PID.TID 0000.0001) >     10.00, 10.00, 10.00, 10.00, 10.00, 10.00, 10.00, 10.01,
(PID.TID 0000.0001) >     10.03, 10.11, 10.32, 10.80, 11.76, 13.42, 16.04, 19.82, 24.85,
(PID.TID 0000.0001) >     31.10, 38.42, 46.50, 55.00, 63.50, 71.58, 78.90, 85.15, 90.18,
(PID.TID 0000.0001) >     93.96, 96.58, 98.25, 99.25,100.01,101.33,104.56,111.33,122.83,
(PID.TID 0000.0001) >     139.09,158.94,180.83,203.55,226.50,249.50,272.50,295.50,318.50,
(PID.TID 0000.0001) >     341.50,364.50,387.50,410.50,433.50,456.50,
(PID.TID 0000.0001) > &
(PID.TID 0000.0001) >
(PID.TID 0000.0001) ># Input datasets
(PID.TID 0000.0001) > &PARM05
(PID.TID 0000.0001) > bathyFile      ='bathy.bin',
(PID.TID 0000.0001) > pLoadFile      ='pLoad.data'
(PID.TID 0000.0001) > &
(PID.TID 0000.0001) 
(PID.TID 0000.0001)  INI_PARMS ; starts to read PARM01
(PID.TID 0000.0001)  INI_PARMS ; read PARM01 : OK
(PID.TID 0000.0001)  INI_PARMS ; starts to read PARM02
(PID.TID 0000.0001)  INI_PARMS ; read PARM02 : OK
(PID.TID 0000.0001)  INI_PARMS ; starts to read PARM03
(PID.TID 0000.0001)  INI_PARMS ; read PARM03 : OK
(PID.TID 0000.0001)  INI_PARMS ; starts to read PARM04
(PID.TID 0000.0001)  INI_PARMS ; read PARM04 : OK
(PID.TID 0000.0001)  INI_PARMS ; starts to read PARM05
(PID.TID 0000.0001)  INI_PARMS ; read PARM05 : OK
(PID.TID 0000.0001)  INI_PARMS: finished reading file "data"
(PID.TID 0000.0001)  PACKAGES_BOOT: opening data.pkg
(PID.TID 0000.0001)  OPEN_COPY_DATA_FILE: opening file data.pkg
(PID.TID 0000.0001) // =======================================================
(PID.TID 0000.0001) // Parameter file "data.pkg"
(PID.TID 0000.0001) // =======================================================
(PID.TID 0000.0001) ># Packages
(PID.TID 0000.0001) > &PACKAGES
(PID.TID 0000.0001) > useCAL         = .TRUE.,
(PID.TID 0000.0001) > useEXF         = .FALSE.,
(PID.TID 0000.0001) > useSEAICE      = .TRUE.,
(PID.TID 0000.0001) > useKPP         = .TRUE.,
(PID.TID 0000.0001) ># useGMRedi      = .TRUE.,
(PID.TID 0000.0001) > useFRAZIL      = .FALSE.,
(PID.TID 0000.0001) > useDiagnostics     = .TRUE.,
(PID.TID 0000.0001) > &
(PID.TID 0000.0001) 
(PID.TID 0000.0001)  PACKAGES_BOOT: finished reading data.pkg
(PID.TID 0000.0001)  PACKAGES_BOOT: On/Off package Summary
 --------  pkgs with a standard "usePKG" On/Off switch in "data.pkg":  --------
 pkg/kpp                  compiled   and   used ( useKPP                   = T )
 pkg/cal                  compiled   and   used ( useCAL                   = T )
 pkg/frazil               compiled but not used ( useFRAZIL                = F )
 pkg/seaice               compiled   and   used ( useSEAICE                = T )
 pkg/diagnostics          compiled   and   used ( useDiagnostics           = T )
 -------- pkgs without standard "usePKG" On/Off switch in "data.pkg":  --------
 pkg/generic_advdiff      compiled   and   used ( useGAD                   = T )
 pkg/mom_common           compiled   and   used ( momStepping              = T )
 pkg/mom_vecinv           compiled   and   used ( +vectorInvariantMomentum = T )
 pkg/mom_fluxform         compiled but not used ( & not vectorInvariantMom = F )
 pkg/monitor              compiled   and   used ( monitorFreq > 0.         = T )
 pkg/timeave              compiled but not used ( taveFreq > 0.            = F )
 pkg/debug                compiled but not used ( debugMode                = F )
 pkg/exch2                compiled   and   used
 pkg/rw                   compiled   and   used
 pkg/mdsio                compiled   and   used
(PID.TID 0000.0001)  PACKAGES_BOOT: End of package Summary
(PID.TID 0000.0001) 
(PID.TID 0000.0001) CAL_READPARMS: opening data.cal
(PID.TID 0000.0001)  OPEN_COPY_DATA_FILE: opening file data.cal
(PID.TID 0000.0001) // =======================================================
(PID.TID 0000.0001) // Parameter file "data.cal"
(PID.TID 0000.0001) // =======================================================
(PID.TID 0000.0001) >#
(PID.TID 0000.0001) ># *******************
(PID.TID 0000.0001) ># Calendar Parameters
(PID.TID 0000.0001) ># *******************
(PID.TID 0000.0001) > &CAL_NML
(PID.TID 0000.0001) > TheCalendar='gregorian',
(PID.TID 0000.0001) > startDate_1=20120206,
(PID.TID 0000.0001) > startDate_2=210000,
(PID.TID 0000.0001) > calendarDumps = .TRUE.,
(PID.TID 0000.0001) > &
(PID.TID 0000.0001) 
(PID.TID 0000.0001) CAL_READPARMS: finished reading data.cal
(PID.TID 0000.0001)  KPP_READPARMS: opening data.kpp
(PID.TID 0000.0001)  OPEN_COPY_DATA_FILE: opening file data.kpp
(PID.TID 0000.0001) // =======================================================
(PID.TID 0000.0001) // Parameter file "data.kpp"
(PID.TID 0000.0001) // =======================================================
(PID.TID 0000.0001) ># KPP parameters
(PID.TID 0000.0001) > &KPP_PARM01
(PID.TID 0000.0001) > KPPmixingMaps   = .FALSE.,
(PID.TID 0000.0001) > KPPwriteState   = .FALSE.,
(PID.TID 0000.0001) > kpp_dumpFreq    = 0.,
(PID.TID 0000.0001) > kpp_tavefreq    = 0.,
(PID.TID 0000.0001) > Ricr            = 0.3559,
(PID.TID 0000.0001) > Riinfty         = 0.6998,
(PID.TID 0000.0001) > &
(PID.TID 0000.0001) >
(PID.TID 0000.0001) 
(PID.TID 0000.0001)  KPP_READPARMS ; starts to read KPP_PARM01
(PID.TID 0000.0001)  KPP_READPARMS ; read KPP_PARM01 : OK
(PID.TID 0000.0001)  KPP_READPARMS: finished reading data.kpp
(PID.TID 0000.0001) 
(PID.TID 0000.0001)  SEAICE_READPARMS: opening data.seaice
(PID.TID 0000.0001)  OPEN_COPY_DATA_FILE: opening file data.seaice
(PID.TID 0000.0001) // =======================================================
(PID.TID 0000.0001) // Parameter file "data.seaice"
(PID.TID 0000.0001) // =======================================================
(PID.TID 0000.0001) ># SEAICE parameters
(PID.TID 0000.0001) > &SEAICE_PARM01
(PID.TID 0000.0001) > usePW79thermodynamics= .FALSE.,
(PID.TID 0000.0001) ># SEAICEuseDYNAMICS = .FALSE.,
(PID.TID 0000.0001) ># SEAICEupdateOceanStress=.FALSE.,
(PID.TID 0000.0001) ># SEAICEadvHeff  = .FALSE.,
(PID.TID 0000.0001) ># SEAICEadvArea  = .FALSE.,
(PID.TID 0000.0001) ># SEAICEadvSnow  = .FALSE.,
(PID.TID 0000.0001) ># SEAICEadvSalt  = .FALSE.,
(PID.TID 0000.0001) >#--
(PID.TID 0000.0001) > SEAICE_strength    = 2.6780e+04,
(PID.TID 0000.0001) > OCEAN_drag         = 8.1541e-04,
(PID.TID 0000.0001) ># SEAICE_waterDrag   = 5.3508,
(PID.TID 0000.0001) >#- waterDrag no longer includes rhoConst factor:
(PID.TID 0000.0001) ># SEAICE_waterDrag   = 5.16985507246376811E-3,
(PID.TID 0000.0001) >  SEAICE_waterDrag   = 5.169855072463768E-3,
(PID.TID 0000.0001) >#- old defaults
(PID.TID 0000.0001) >  SEAICEscaleSurfStress = .FALSE.,
(PID.TID 0000.0001) >  SEAICEaddSnowMass     = .FALSE.,
(PID.TID 0000.0001) >  SEAICE_useMultDimSnow = .FALSE.,
(PID.TID 0000.0001) >  SEAICE_Olx = 0,
(PID.TID 0000.0001) >  SEAICE_Oly = 0,
(PID.TID 0000.0001) >  SEAICEetaZmethod = 0,
(PID.TID 0000.0001) >  SEAICE_drag = 2.E-3,
(PID.TID 0000.0001) >#--
(PID.TID 0000.0001) > SEAICE_no_Slip     = .FALSE.,
(PID.TID 0000.0001) > LSR_ERROR          = 1.E-4,
(PID.TID 0000.0001) > SEAICElinearIterMax=  500,
(PID.TID 0000.0001) >#LSR_mixIniGuess    = 1,
(PID.TID 0000.0001) > SEAICEadvScheme    = 77,
(PID.TID 0000.0001) ># AreaFile           = 'AREA.0000174588.data',
(PID.TID 0000.0001) ># HsnowFile          = 'HSNOW.0000174588.data',
(PID.TID 0000.0001) ># HsaltFile          = 'wt_ones.data',
(PID.TID 0000.0001) ># HeffFile           = 'HEFF.0000174588.data',
(PID.TID 0000.0001) ># UiceFile           = 'UICE.0000174588.data',
(PID.TID 0000.0001) ># ViceFile           = 'VICE.0000174588.data',
(PID.TID 0000.0001) > SEAICEwriteState   = .TRUE.,
(PID.TID 0000.0001) >#SEAICE_monFreq = 1800.,
(PID.TID 0000.0001) > &
(PID.TID 0000.0001) >
(PID.TID 0000.0001) > &SEAICE_PARM03
(PID.TID 0000.0001) > &
(PID.TID 0000.0001) 
(PID.TID 0000.0001)  SEAICE_READPARMS: finished reading data.seaice
(PID.TID 0000.0001)  DIAGNOSTICS_READPARMS: opening data.diagnostics
(PID.TID 0000.0001)  OPEN_COPY_DATA_FILE: opening file data.diagnostics
(PID.TID 0000.0001) // =======================================================
(PID.TID 0000.0001) // Parameter file "data.diagnostics"
(PID.TID 0000.0001) // =======================================================
(PID.TID 0000.0001) ># Diagnostic Package Choices
(PID.TID 0000.0001) >#--------------------
(PID.TID 0000.0001) >#  dumpAtLast (logical): always write output at the end of simulation (default=F)
(PID.TID 0000.0001) >#  diag_mnc   (logical): write to NetCDF files (default=useMNC)
(PID.TID 0000.0001) >#--for each output-stream:
(PID.TID 0000.0001) >#  fileName(n) : prefix of the output file name (max 80c long) for outp.stream n
(PID.TID 0000.0001) >#  frequency(n):< 0 : write snap-shot output every |frequency| seconds
(PID.TID 0000.0001) >#               > 0 : write time-average output every frequency seconds
(PID.TID 0000.0001) >#  timePhase(n)     : write at time = timePhase + multiple of |frequency|
(PID.TID 0000.0001) >#    averagingFreq  : frequency (in s) for periodic averaging interval
(PID.TID 0000.0001) >#    averagingPhase : phase     (in s) for periodic averaging interval
(PID.TID 0000.0001) >#    repeatCycle    : number of averaging intervals in 1 cycle
(PID.TID 0000.0001) >#  levels(:,n) : list of levels to write to file (Notes: declared as REAL)
(PID.TID 0000.0001) >#                when this entry is missing, select all common levels of this list
(PID.TID 0000.0001) >#  fields(:,n) : list of selected diagnostics fields (8.c) in outp.stream n
(PID.TID 0000.0001) >#                (see "available_diagnostics.log" file for the full list of diags)
(PID.TID 0000.0001) >#  missing_value(n) : missing value for real-type fields in output file "n"
(PID.TID 0000.0001) >#  fileFlags(n)     : specific code (8c string) for output file "n"
(PID.TID 0000.0001) >#--------------------
(PID.TID 0000.0001) ># oceTAUX  zonal surface wind stress, >0 increases uVel (N/m^2)
(PID.TID 0000.0001) ># oceTAUY  meridional surf. wind stress, >0 increases vVel (N/m^2)
(PID.TID 0000.0001) ># oceFWflx net surface Fresh-Water flux into ocean, >0 decreases salinity (kg/m^2/s)
(PID.TID 0000.0001) ># oceSflux net surface Salt flux into the ocean, >0 increases salinity (g/m^2/s)
(PID.TID 0000.0001) ># oceQnet  net surface heat flux into the ocean, >0 increases theta (W/m^2)
(PID.TID 0000.0001) ># oceQsw   net Short-Wave radiation (+=down), >0 increases theta (W/m^2)
(PID.TID 0000.0001) ># SSS      Sea Surface Salinity (g/kg)
(PID.TID 0000.0001) ># SST      Sea Surface Temperature (degC)
(PID.TID 0000.0001) ># UVEL1    Zonal Surface Velocity (m/s)
(PID.TID 0000.0001) ># VVEL1    Meridional Surface Velocity (m/s)
(PID.TID 0000.0001) >
(PID.TID 0000.0001) > &DIAGNOSTICS_LIST
(PID.TID 0000.0001) >
(PID.TID 0000.0001) > frequency(1)  = 3600.,
(PID.TID 0000.0001) >   fields(1:7,1)  = 'oceTAUX ','oceTAUY ','oceFWflx','oceSflux','oceQnet ','oceQsw  ','ETAN   ',
(PID.TID 0000.0001) >   filename(1)  = 'state_2d_set1',
(PID.TID 0000.0001) >   timePhase(1) =  0.,
(PID.TID 0000.0001) >
(PID.TID 0000.0001) > frequency(2)  = 3600.,
(PID.TID 0000.0001) >    fields(1:7,2)  = 'SALT    ','THETA   ','UVELMASS','VVELMASS','WVELMASS',
(PID.TID 0000.0001) >    filename(2)  = 'state_3d_set1',
(PID.TID 0000.0001) >    timePhase(2) =  0.,
(PID.TID 0000.0001) >
(PID.TID 0000.0001) > frequency(3)  = -3600.,
(PID.TID 0000.0001) >    fields(1:2,3)  = 'SALT    ','THETA   ',
(PID.TID 0000.0001) >    filename(3)  = 'snap_3d_set1',
(PID.TID 0000.0001) >    timePhase(3) =  0.,
(PID.TID 0000.0001) >
(PID.TID 0000.0001) > frequency(4)  = -3600.,
(PID.TID 0000.0001) >    fields(1,4)  = 'ETAN   ',
(PID.TID 0000.0001) >    filename(4)  = 'snap_2d_set2',
(PID.TID 0000.0001) >    timePhase(4) =  0.,
(PID.TID 0000.0001) >
(PID.TID 0000.0001) > frequency(5) = 3600.0,
(PID.TID 0000.0001) >    fields(1:8,5) = 'DFxE_TH ','DFyE_TH ','ADVx_TH ','ADVy_TH ',
(PID.TID 0000.0001) >                    'DFxE_SLT','DFyE_SLT','ADVx_SLT','ADVy_SLT',
(PID.TID 0000.0001) >    filename(5) = 'state_3d_set2',
(PID.TID 0000.0001) >    timePhase(5) =  0.,
(PID.TID 0000.0001) >
(PID.TID 0000.0001) > frequency(6) = 3600.0,
(PID.TID 0000.0001) >    fields(1:7,6) = 'ADVr_TH ','DFrE_TH ','DFrI_TH ',
(PID.TID 0000.0001) >                    'ADVr_SLT','DFrE_SLT','DFrI_SLT',
(PID.TID 0000.0001) >    filename(6) = 'state_3d_set4',
(PID.TID 0000.0001) >    timePhase(6) =  0.,
(PID.TID 0000.0001) >
(PID.TID 0000.0001) > frequency(7) =  3600.,
(PID.TID 0000.0001) >    fields(1:14,7)  = 'SIarea  ','SIheff  ','SIhsnow ','sIceLoad',
(PID.TID 0000.0001) >                   'SIuice  ','SIvice  ','SItaux  ','SItauy  ',
(PID.TID 0000.0001) >                   'ADVxHEFF','ADVyHEFF',
(PID.TID 0000.0001) >                   'ADVxAREA','ADVyAREA',
(PID.TID 0000.0001) >                   'ADVxSNOW','ADVySNOW',
(PID.TID 0000.0001) >    fileName(7) = 'iceDiag',
(PID.TID 0000.0001) >    missing_value(7) = -999.,
(PID.TID 0000.0001) >    timePhase(7) =  0.,
(PID.TID 0000.0001) >
(PID.TID 0000.0001) >
(PID.TID 0000.0001) >
(PID.TID 0000.0001) > frequency(8) = -3600.,
(PID.TID 0000.0001) >    fields(1:9,8)  = 'SIarea  ','SIheff  ','SIhsnow ','sIceLoad',
(PID.TID 0000.0001) >                   'SIuice  ','SIvice  ','SItaux  ','SItauy  ',
(PID.TID 0000.0001) >                   'CPLoWGHT',
(PID.TID 0000.0001) >    missing_value(8) = -999.,
(PID.TID 0000.0001) >#   fileName(8) = 'iceInst',
(PID.TID 0000.0001) >    timePhase(8) =  0.,
(PID.TID 0000.0001) >
(PID.TID 0000.0001) > frequency(9) = 3600.,
(PID.TID 0000.0001) >    fields(1:11,9) = 'SIareaN ','SIheffN ','SIhsnowN','SIqSnow ',
(PID.TID 0000.0001) >                   'SImeltPd','SItIces ','SIiceAge',
(PID.TID 0000.0001) >                   'SI_dArea','SI_dHeff','SI_dHsnw','SI_dQSnw',
(PID.TID 0000.0001) >#                  'SI_dMPnd',
(PID.TID 0000.0001) >#                  'SI_dTIce','SI_dIcAg',
(PID.TID 0000.0001) >    timePhase(9) = 0.,
(PID.TID 0000.0001) >    fileFlags(9) = 'D       ',
(PID.TID 0000.0001) >#   fileName(9) = 'iceNcat',
(PID.TID 0000.0001) >    timePhase(9) =  0.,
(PID.TID 0000.0001) >
(PID.TID 0000.0001) > frequency(10) = 3600.,
(PID.TID 0000.0001) >    fields(1:2,10)  = 'SIqIce  ',
(PID.TID 0000.0001) >                      'SI_dQIce',
(PID.TID 0000.0001) >    timePhase(10) =  0.,
(PID.TID 0000.0001) >#   fileName(10) = 'iceEnerg',
(PID.TID 0000.0001) >    timePhase(10) =  0.,
(PID.TID 0000.0001) >
(PID.TID 0000.0001) > frequency(11) = 3600.,
(PID.TID 0000.0001) >    fields(1:2,11)  = 'SIqSnow ',
(PID.TID 0000.0001) >                      'SI_dQSnw',
(PID.TID 0000.0001) >    timePhase(11) =  0.,
(PID.TID 0000.0001) >#   fileName(11) = 'snowEnerg',
(PID.TID 0000.0001) >   timePhase(11) =  0.,
(PID.TID 0000.0001) >
(PID.TID 0000.0001) > &
(PID.TID 0000.0001) >
(PID.TID 0000.0001) > &DIAG_STATIS_PARMS
(PID.TID 0000.0001) > stat_fields(1:6,1)  = 'ETAN    ', 'THETA   ','SALT    ','oceQnet ','oceFWflx','oceSflux',
(PID.TID 0000.0001) > stat_fName(1) = 'dynStDiag',
(PID.TID 0000.0001) > stat_freq(1)=  3600.0,
(PID.TID 0000.0001) > stat_phase(2) =  0.,
(PID.TID 0000.0001) >
(PID.TID 0000.0001) > stat_fields(1:21,2)  = 'SIarea  ','SIheff  ','SIhsnow ','sIceLoad',
(PID.TID 0000.0001) >                        'SIuice  ','SIvice  ','SItaux  ','SItauy  ',
(PID.TID 0000.0001) >                        'SIareaN ','SIheffN ','SIhsnowN',
(PID.TID 0000.0001) >                        'SIqSnow ','SIqIce  ','SImeltPd',
(PID.TID 0000.0001) >                        'SItIces ','SIiceAge',
(PID.TID 0000.0001) >                        'SI_dArea','SI_dHeff','SI_dHsnw',
(PID.TID 0000.0001) >                        'SI_dQSnw','SI_dQIce',
(PID.TID 0000.0001) >#                       'SI_dMPnd','SI_dTIce','SI_dIcAg',
(PID.TID 0000.0001) > stat_fName(2) = 'iceStDiag',
(PID.TID 0000.0001) > stat_freq(2) = 3600.,
(PID.TID 0000.0001) > stat_phase(2) =  0.,
(PID.TID 0000.0001) > &
(PID.TID 0000.0001) 
(PID.TID 0000.0001) S/R DIAGNOSTICS_READPARMS, read namelist "diagnostics_list": start
(PID.TID 0000.0001) S/R DIAGNOSTICS_READPARMS, read namelist "diagnostics_list": OK
(PID.TID 0000.0001) S/R DIAGNOSTICS_READPARMS, read namelist "DIAG_STATIS_PARMS": start
(PID.TID 0000.0001) S/R DIAGNOSTICS_READPARMS, read namelist "DIAG_STATIS_PARMS": OK
(PID.TID 0000.0001)  DIAGNOSTICS_READPARMS: global parameter summary:
(PID.TID 0000.0001)  dumpAtLast = /* always write time-ave diags at the end */
(PID.TID 0000.0001)                   F
(PID.TID 0000.0001)     ;
(PID.TID 0000.0001)  diag_mnc =   /* write NetCDF output files */
(PID.TID 0000.0001)                   F
(PID.TID 0000.0001)     ;
(PID.TID 0000.0001)  useMissingValue = /* put MissingValue where mask = 0 */
(PID.TID 0000.0001)                   F
(PID.TID 0000.0001)     ;
(PID.TID 0000.0001)  diagCG_maxIters = /* max number of iters in diag_cg2d */
(PID.TID 0000.0001)                     100
(PID.TID 0000.0001)     ;
(PID.TID 0000.0001)  diagCG_resTarget = /* residual target for diag_cg2d */
(PID.TID 0000.0001)                 1.000000000000000E-05
(PID.TID 0000.0001)     ;
(PID.TID 0000.0001)  diagCG_pcOffDFac = /* preconditioner off-diagonal factor */
(PID.TID 0000.0001)                 9.611687812379854E-01
(PID.TID 0000.0001)     ;
(PID.TID 0000.0001) -----------------------------------------------------
(PID.TID 0000.0001)  DIAGNOSTICS_READPARMS: active diagnostics summary:
(PID.TID 0000.0001) -----------------------------------------------------
(PID.TID 0000.0001) Creating Output Stream: state_2d_set1
(PID.TID 0000.0001) Output Frequency:       3600.000000 ; Phase:           0.000000
(PID.TID 0000.0001)  Averaging Freq.:       3600.000000 , Phase:           0.000000 , Cycle:   1
(PID.TID 0000.0001)  missing value: -9.990000000000E+02
(PID.TID 0000.0001)  Levels:    will be set later
(PID.TID 0000.0001)  Fields:    oceTAUX  oceTAUY  oceFWflx oceSflux oceQnet  oceQsw   ETAN
(PID.TID 0000.0001) Creating Output Stream: state_3d_set1
(PID.TID 0000.0001) Output Frequency:       3600.000000 ; Phase:           0.000000
(PID.TID 0000.0001)  Averaging Freq.:       3600.000000 , Phase:           0.000000 , Cycle:   1
(PID.TID 0000.0001)  missing value: -9.990000000000E+02
(PID.TID 0000.0001)  Levels:    will be set later
(PID.TID 0000.0001)  Fields:    SALT     THETA    UVELMASS VVELMASS WVELMASS
(PID.TID 0000.0001) Creating Output Stream: snap_3d_set1
(PID.TID 0000.0001) Output Frequency:      -3600.000000 ; Phase:           0.000000
(PID.TID 0000.0001)  Averaging Freq.:          0.000000 , Phase:           0.000000 , Cycle:   1
(PID.TID 0000.0001)  missing value: -9.990000000000E+02
(PID.TID 0000.0001)  Levels:    will be set later
(PID.TID 0000.0001)  Fields:    SALT     THETA
(PID.TID 0000.0001) Creating Output Stream: snap_2d_set2
(PID.TID 0000.0001) Output Frequency:      -3600.000000 ; Phase:           0.000000
(PID.TID 0000.0001)  Averaging Freq.:          0.000000 , Phase:           0.000000 , Cycle:   1
(PID.TID 0000.0001)  missing value: -9.990000000000E+02
(PID.TID 0000.0001)  Levels:    will be set later
(PID.TID 0000.0001)  Fields:    ETAN
(PID.TID 0000.0001) Creating Output Stream: state_3d_set2
(PID.TID 0000.0001) Output Frequency:       3600.000000 ; Phase:           0.000000
(PID.TID 0000.0001)  Averaging Freq.:       3600.000000 , Phase:           0.000000 , Cycle:   1
(PID.TID 0000.0001)  missing value: -9.990000000000E+02
(PID.TID 0000.0001)  Levels:    will be set later
(PID.TID 0000.0001)  Fields:    DFxE_TH  DFyE_TH  ADVx_TH  ADVy_TH  DFxE_SLT DFyE_SLT ADVx_SLT ADVy_SLT
(PID.TID 0000.0001) Creating Output Stream: state_3d_set4
(PID.TID 0000.0001) Output Frequency:       3600.000000 ; Phase:           0.000000
(PID.TID 0000.0001)  Averaging Freq.:       3600.000000 , Phase:           0.000000 , Cycle:   1
(PID.TID 0000.0001)  missing value: -9.990000000000E+02
(PID.TID 0000.0001)  Levels:    will be set later
(PID.TID 0000.0001)  Fields:    ADVr_TH  DFrE_TH  DFrI_TH  ADVr_SLT DFrE_SLT DFrI_SLT
(PID.TID 0000.0001) Creating Output Stream: iceDiag
(PID.TID 0000.0001) Output Frequency:       3600.000000 ; Phase:           0.000000
(PID.TID 0000.0001)  Averaging Freq.:       3600.000000 , Phase:           0.000000 , Cycle:   1
(PID.TID 0000.0001)  missing value: -9.990000000000E+02
(PID.TID 0000.0001)  Levels:    will be set later
(PID.TID 0000.0001)  Fields:    SIarea   SIheff   SIhsnow  sIceLoad SIuice   SIvice   SItaux   SItauy   ADVxHEFF ADVyHEFF
(PID.TID 0000.0001)  Fields:    ADVxAREA ADVyAREA ADVxSNOW ADVySNOW
(PID.TID 0000.0001) -----------------------------------------------------
(PID.TID 0000.0001)  DIAGNOSTICS_READPARMS: statistics diags. summary:
(PID.TID 0000.0001) Creating Stats. Output Stream: dynStDiag
(PID.TID 0000.0001) Output Frequency:       3600.000000 ; Phase:           0.000000
(PID.TID 0000.0001)  Regions:   0
(PID.TID 0000.0001)  Fields:    ETAN     THETA    SALT     oceQnet  oceFWflx oceSflux
(PID.TID 0000.0001) Creating Stats. Output Stream: iceStDiag
(PID.TID 0000.0001) Output Frequency:       3600.000000 ; Phase:           0.000000
(PID.TID 0000.0001)  Regions:   0
(PID.TID 0000.0001)  Fields:    SIarea   SIheff   SIhsnow  sIceLoad SIuice   SIvice   SItaux   SItauy   SIareaN  SIheffN
(PID.TID 0000.0001)  Fields:    SIhsnowN SIqSnow  SIqIce   SImeltPd SItIces  SIiceAge SI_dArea SI_dHeff SI_dHsnw SI_dQSnw
(PID.TID 0000.0001)  Fields:    SI_dQIce
(PID.TID 0000.0001) -----------------------------------------------------
(PID.TID 0000.0001) 
(PID.TID 0000.0001) SET_PARMS: done
(PID.TID 0000.0001) Enter INI_VERTICAL_GRID: setInterFDr=    T ; setCenterDr=    F
(PID.TID 0000.0001) tile:  13 ; Read from file tile001.mitgrid
(PID.TID 0000.0001)   => xC yC dxF dyF rA xG yG dxV dyU rAz dxC dyC rAw rAs dxG dyG
(PID.TID 0000.0001) %MON XC_max                       =   1.7997758946678E+02
(PID.TID 0000.0001) %MON XC_min                       =  -1.7998895680928E+02
(PID.TID 0000.0001) %MON XC_mean                      =  -1.0354689745251E+01
(PID.TID 0000.0001) %MON XC_sd                        =   1.0601378873778E+02
(PID.TID 0000.0001) %MON XG_max                       =   1.8000000000000E+02
(PID.TID 0000.0001) %MON XG_min                       =  -1.7999919444240E+02
(PID.TID 0000.0001) %MON XG_mean                      =  -9.7316629877778E+00
(PID.TID 0000.0001) %MON XG_sd                        =   1.0605795026741E+02
(PID.TID 0000.0001) %MON DXC_max                      =   1.1117680031365E+05
(PID.TID 0000.0001) %MON DXC_min                      =   1.3362789164732E+04
(PID.TID 0000.0001) %MON DXC_mean                     =   7.1282067642819E+04
(PID.TID 0000.0001) %MON DXC_sd                       =   2.6365676113021E+04
(PID.TID 0000.0001) %MON DXF_max                      =   1.1117680031365E+05
(PID.TID 0000.0001) %MON DXF_min                      =   1.3491575949394E+04
(PID.TID 0000.0001) %MON DXF_mean                     =   7.1262567365097E+04
(PID.TID 0000.0001) %MON DXF_sd                       =   2.6385918670202E+04
(PID.TID 0000.0001) %MON DXG_max                      =   1.1117747335204E+05
(PID.TID 0000.0001) %MON DXG_min                      =   1.0930409249570E+04
(PID.TID 0000.0001) %MON DXG_mean                     =   7.1224912463018E+04
(PID.TID 0000.0001) %MON DXG_sd                       =   2.6396347680762E+04
(PID.TID 0000.0001) %MON DXV_max                      =   1.1117747335204E+05
(PID.TID 0000.0001) %MON DXV_min                      =   9.4742518926426E+03
(PID.TID 0000.0001) %MON DXV_mean                     =   7.1244400980648E+04
(PID.TID 0000.0001) %MON DXV_sd                       =   2.6376171348787E+04
(PID.TID 0000.0001) %MON YC_max                       =   8.9739397429324E+01
(PID.TID 0000.0001) %MON YC_min                       =  -8.8102666383598E+01
(PID.TID 0000.0001) %MON YC_mean                      =  -3.8493079484782E+00
(PID.TID 0000.0001) %MON YC_sd                        =   5.1076689278256E+01
(PID.TID 0000.0001) %MON YG_max                       =   9.0000000000000E+01
(PID.TID 0000.0001) %MON YG_min                       =  -8.8024090322283E+01
(PID.TID 0000.0001) %MON YG_mean                      =  -3.8179083153408E+00
(PID.TID 0000.0001) %MON YG_sd                        =   5.1084555464417E+01
(PID.TID 0000.0001) %MON DYC_max                      =   1.1117680031365E+05
(PID.TID 0000.0001) %MON DYC_min                      =   1.2851209862268E+04
(PID.TID 0000.0001) %MON DYC_mean                     =   7.0996219118354E+04
(PID.TID 0000.0001) %MON DYC_sd                       =   2.7172906336655E+04
(PID.TID 0000.0001) %MON DYF_max                      =   1.1117680031365E+05
(PID.TID 0000.0001) %MON DYF_min                      =   1.2946481280457E+04
(PID.TID 0000.0001) %MON DYF_mean                     =   7.1029727417398E+04
(PID.TID 0000.0001) %MON DYF_sd                       =   2.7169103980511E+04
(PID.TID 0000.0001) %MON DYG_max                      =   1.1117747335204E+05
(PID.TID 0000.0001) %MON DYG_min                      =   1.0930409249570E+04
(PID.TID 0000.0001) %MON DYG_mean                     =   7.1056024568496E+04
(PID.TID 0000.0001) %MON DYG_sd                       =   2.7138779068799E+04
(PID.TID 0000.0001) %MON DYU_max                      =   1.1117747335204E+05
(PID.TID 0000.0001) %MON DYU_min                      =   9.4742518926426E+03
(PID.TID 0000.0001) %MON DYU_mean                     =   7.1022557361675E+04
(PID.TID 0000.0001) %MON DYU_sd                       =   2.7142564797123E+04
(PID.TID 0000.0001) %MON RA_max                       =   1.1896090857160E+10
(PID.TID 0000.0001) %MON RA_min                       =   1.8802726709832E+08
(PID.TID 0000.0001) %MON RA_mean                      =   5.6509598865793E+09
(PID.TID 0000.0001) %MON RA_sd                        =   3.6237073945657E+09
(PID.TID 0000.0001) %MON RAW_max                      =   1.1896090856781E+10
(PID.TID 0000.0001) %MON RAW_min                      =   1.7369571508711E+08
(PID.TID 0000.0001) %MON RAW_mean                     =   5.6529106837210E+09
(PID.TID 0000.0001) %MON RAW_sd                       =   3.6222060900726E+09
(PID.TID 0000.0001) %MON RAS_max                      =   1.1896090856781E+10
(PID.TID 0000.0001) %MON RAS_min                      =   1.7369571508711E+08
(PID.TID 0000.0001) %MON RAS_mean                     =   5.6462585155598E+09
(PID.TID 0000.0001) %MON RAS_sd                       =   3.6239168120244E+09
(PID.TID 0000.0001) %MON RAZ_max                      =   1.1891903479271E+10
(PID.TID 0000.0001) %MON RAZ_min                      =   1.0413402423292E+08
(PID.TID 0000.0001) %MON RAZ_mean                     =   5.6482099179688E+09
(PID.TID 0000.0001) %MON RAZ_sd                       =   3.6224179770596E+09
(PID.TID 0000.0001) %MON AngleCS_max                  =   1.0000000000000E+00
(PID.TID 0000.0001) %MON AngleCS_min                  =  -9.9996641938864E-01
(PID.TID 0000.0001) %MON AngleCS_mean                 =   3.7891728692339E-01
(PID.TID 0000.0001) %MON AngleCS_sd                   =   5.4799109936655E-01
(PID.TID 0000.0001) %MON AngleSN_max                  =   9.9996641938864E-01
(PID.TID 0000.0001) %MON AngleSN_min                  =  -1.0000000000000E+00
(PID.TID 0000.0001) %MON AngleSN_mean                 =  -5.1564638641270E-01
(PID.TID 0000.0001) %MON AngleSN_sd                   =   5.3873578762245E-01
(PID.TID 0000.0001) 
(PID.TID 0000.0001) // =======================================================
(PID.TID 0000.0001) // Calendar configuration >>> START <<<
(PID.TID 0000.0001) // =======================================================
(PID.TID 0000.0001) 
(PID.TID 0000.0001) modelstart = /* Start time of the model integration [s] */
(PID.TID 0000.0001)                 7.856460000000000E+07
(PID.TID 0000.0001)     ;
(PID.TID 0000.0001) modelend  = /* End time of the model integration [s] */
(PID.TID 0000.0001)                 7.873740000000000E+07
(PID.TID 0000.0001)     ;
(PID.TID 0000.0001) modelStep = /* Time interval for a model forward step [s] */
(PID.TID 0000.0001)                 4.500000000000000E+02
(PID.TID 0000.0001)     ;
(PID.TID 0000.0001) usingGregorianCalendar= /* Calendar Type: Gregorian Calendar */
(PID.TID 0000.0001)                   T
(PID.TID 0000.0001)     ;
(PID.TID 0000.0001) usingJulianCalendar = /* Calendar Type: Julian Calendar */
(PID.TID 0000.0001)                   F
(PID.TID 0000.0001)     ;
(PID.TID 0000.0001) usingNoLeapYearCal  = /* Calendar Type: without Leap Year */
(PID.TID 0000.0001)                   F
(PID.TID 0000.0001)     ;
(PID.TID 0000.0001) usingModelCalendar  = /* Calendar Type: Model Calendar */
(PID.TID 0000.0001)                   F
(PID.TID 0000.0001)     ;
(PID.TID 0000.0001) modelStartDate YYYYMMDD = /* Model start date YYYY-MM-DD */
(PID.TID 0000.0001)                20140804
(PID.TID 0000.0001)     ;
(PID.TID 0000.0001)   modelStartDate HHMMSS = /* Model start date HH-MM-SS  */
(PID.TID 0000.0001)                   43000
(PID.TID 0000.0001)     ;
(PID.TID 0000.0001) modelEndDate   YYYYMMDD = /* Model end date YYYY-MM-DD */
(PID.TID 0000.0001)                20140806
(PID.TID 0000.0001)     ;
(PID.TID 0000.0001)   modelEndDate   HHMMSS = /* Model end date HH-MM-SS  */
(PID.TID 0000.0001)                   43000
(PID.TID 0000.0001)     ;
(PID.TID 0000.0001) intyears = /* Number of calendar years affected by the integration */
(PID.TID 0000.0001)                       1
(PID.TID 0000.0001)     ;
(PID.TID 0000.0001) intmonths= /* Number of calendar months affected by the integration */
(PID.TID 0000.0001)                       1
(PID.TID 0000.0001)     ;
(PID.TID 0000.0001) intdays = /* Number of calendar days affected by the integration */
(PID.TID 0000.0001)                       3
(PID.TID 0000.0001)     ;
(PID.TID 0000.0001) modelIter0 = /* Base timestep number  */
(PID.TID 0000.0001)                  174588
(PID.TID 0000.0001)     ;
(PID.TID 0000.0001) modelIterEnd = /* Final timestep number  */
(PID.TID 0000.0001)                  174972
(PID.TID 0000.0001)     ;
(PID.TID 0000.0001) modelIntSteps= /* Number of model timesteps  */
(PID.TID 0000.0001)                     384
(PID.TID 0000.0001)     ;
(PID.TID 0000.0001) 
(PID.TID 0000.0001) // =======================================================
(PID.TID 0000.0001) // Calendar configuration  >>> END <<<
(PID.TID 0000.0001) // =======================================================
(PID.TID 0000.0001) 
(PID.TID 0000.0001) GAD_INIT_FIXED: GAD_OlMinSize=  2  0  2
(PID.TID 0000.0001) 
(PID.TID 0000.0001) // ===================================
(PID.TID 0000.0001) // GAD parameters :
(PID.TID 0000.0001) // ===================================
(PID.TID 0000.0001) tempAdvScheme =   /* Temp. Horiz.Advection scheme selector */
(PID.TID 0000.0001)                      77
(PID.TID 0000.0001)     ;
(PID.TID 0000.0001) tempVertAdvScheme =   /* Temp. Vert. Advection scheme selector */
(PID.TID 0000.0001)                      77
(PID.TID 0000.0001)     ;
(PID.TID 0000.0001) tempMultiDimAdvec =   /* use Muti-Dim Advec method for Temp */
(PID.TID 0000.0001)                   T
(PID.TID 0000.0001)     ;
(PID.TID 0000.0001) tempSOM_Advection = /* use 2nd Order Moment Advection for Temp */
(PID.TID 0000.0001)                   F
(PID.TID 0000.0001)     ;
(PID.TID 0000.0001) AdamsBashforthGt = /* apply Adams-Bashforth extrapolation on Gt */
(PID.TID 0000.0001)                   F
(PID.TID 0000.0001)     ;
(PID.TID 0000.0001) AdamsBashforth_T = /* apply Adams-Bashforth extrapolation on Temp */
(PID.TID 0000.0001)                   F
(PID.TID 0000.0001)     ;
(PID.TID 0000.0001) saltAdvScheme =   /* Salt. Horiz.advection scheme selector */
(PID.TID 0000.0001)                      77
(PID.TID 0000.0001)     ;
(PID.TID 0000.0001) saltVertAdvScheme =   /* Salt. Vert. Advection scheme selector */
(PID.TID 0000.0001)                      77
(PID.TID 0000.0001)     ;
(PID.TID 0000.0001) saltMultiDimAdvec =   /* use Muti-Dim Advec method for Salt */
(PID.TID 0000.0001)                   T
(PID.TID 0000.0001)     ;
(PID.TID 0000.0001) saltSOM_Advection = /* use 2nd Order Moment Advection for Salt */
(PID.TID 0000.0001)                   F
(PID.TID 0000.0001)     ;
(PID.TID 0000.0001) AdamsBashforthGs = /* apply Adams-Bashforth extrapolation on Gs */
(PID.TID 0000.0001)                   F
(PID.TID 0000.0001)     ;
(PID.TID 0000.0001) AdamsBashforth_S = /* apply Adams-Bashforth extrapolation on Salt */
(PID.TID 0000.0001)                   F
(PID.TID 0000.0001)     ;
(PID.TID 0000.0001) // ===================================
(PID.TID 0000.0001)  SEAICE_INIT_FIXED:  5 sea ice thickness categories
(PID.TID 0000.0001)  SEAICE_INIT_FIXED: Hlimit =   0.00  0.64  1.39  2.47  4.57 999.9
(PID.TID 0000.0001) // =======================================================
(PID.TID 0000.0001) // Seaice configuration (SEAICE_PARM01) >>> START <<<
(PID.TID 0000.0001) // =======================================================
(PID.TID 0000.0001) 
(PID.TID 0000.0001)    Seaice time stepping configuration   > START <
(PID.TID 0000.0001)    ----------------------------------------------
(PID.TID 0000.0001) SEAICE_deltaTtherm= /* thermodynamic timestep */
(PID.TID 0000.0001)                 4.500000000000000E+02
(PID.TID 0000.0001)     ;
(PID.TID 0000.0001) SEAICE_deltaTdyn  = /* dynamic timestep */
(PID.TID 0000.0001)                 4.500000000000000E+02
(PID.TID 0000.0001)     ;
(PID.TID 0000.0001) SEAICE_deltaTevp  = /* EVP timestep */
(PID.TID 0000.0001)                 1.234567000000000E+05
(PID.TID 0000.0001)     ;
(PID.TID 0000.0001) SEAICEuseBDF2  = /* use backw. differencing for mom. eq. */
(PID.TID 0000.0001)                   F
(PID.TID 0000.0001)     ;
(PID.TID 0000.0001) SEAICEupdateOceanStress= /* update Ocean surf. stress */
(PID.TID 0000.0001)                   T
(PID.TID 0000.0001)     ;
(PID.TID 0000.0001) SEAICErestoreUnderIce  = /* restore T and S under ice */
(PID.TID 0000.0001)                   F
(PID.TID 0000.0001)     ;
(PID.TID 0000.0001) 
(PID.TID 0000.0001)    Seaice dynamics configuration   > START <
(PID.TID 0000.0001)    ------------------------------------------
(PID.TID 0000.0001) SEAICEuseDYNAMICS = /* use dynamics */
(PID.TID 0000.0001)                   T
(PID.TID 0000.0001)     ;
(PID.TID 0000.0001) model grid type   = /* type of sea ice model grid */
(PID.TID 0000.0001)               'C-GRID'
(PID.TID 0000.0001)     ;
(PID.TID 0000.0001) SEAICEuseStrImpCpl = /* use strongly implicit coupling */
(PID.TID 0000.0001)                   F
(PID.TID 0000.0001)     ;
(PID.TID 0000.0001) SEAICEusePicardAsPrecon = /* Picard as preconditioner */
(PID.TID 0000.0001)                   F
(PID.TID 0000.0001)     ;
(PID.TID 0000.0001) SEAICEuseLSR      = /* use default Picard-LSR solver */
(PID.TID 0000.0001)                   T
(PID.TID 0000.0001)     ;
(PID.TID 0000.0001) SEAICEuseKrylov   = /* use Picard-Krylov solver */
(PID.TID 0000.0001)                   F
(PID.TID 0000.0001)     ;
(PID.TID 0000.0001) SEAICEuseEVP      = /* use EVP solver rather than LSR */
(PID.TID 0000.0001)                   F
(PID.TID 0000.0001)     ;
(PID.TID 0000.0001) SEAICEuseJFNK     = /* use JFNK solver */
(PID.TID 0000.0001)                   F
(PID.TID 0000.0001)     ;
(PID.TID 0000.0001) OCEAN_drag        = /* air-ocean drag coefficient */
(PID.TID 0000.0001)                 8.154100000000000E-04
(PID.TID 0000.0001)     ;
(PID.TID 0000.0001) SEAICE_drag       = /* air-ice drag coefficient */
(PID.TID 0000.0001)                 2.000000000000000E-03
(PID.TID 0000.0001)     ;
(PID.TID 0000.0001) SEAICE_drag_south      = /* Southern Ocean SEAICE_drag */
(PID.TID 0000.0001)                 2.000000000000000E-03
(PID.TID 0000.0001)     ;
(PID.TID 0000.0001) SEAICE_waterDrag  = /* water-ice drag */
(PID.TID 0000.0001)                 5.169855072463768E-03
(PID.TID 0000.0001)     ;
(PID.TID 0000.0001) SEAICE_waterDrag_south = /* Southern Ocean waterDrag */
(PID.TID 0000.0001)                 5.169855072463768E-03
(PID.TID 0000.0001)     ;
(PID.TID 0000.0001) SEAICEuseTilt     = /* include surface tilt in dyna. */
(PID.TID 0000.0001)                   T
(PID.TID 0000.0001)     ;
(PID.TID 0000.0001) SEAICEuseTEM      = /* use truncated ellipse rheology */
(PID.TID 0000.0001)                   F
(PID.TID 0000.0001)     ;
(PID.TID 0000.0001) SEAICE_strength   = /* sea-ice strength Pstar */
(PID.TID 0000.0001)                 2.678000000000000E+04
(PID.TID 0000.0001)     ;
(PID.TID 0000.0001) SEAICE_cStar      = /* sea-ice strength parameter cStar */
(PID.TID 0000.0001)                 2.000000000000000E+01
(PID.TID 0000.0001)     ;
(PID.TID 0000.0001) SEAICEpressReplFac= /* press. replacement method factor */
(PID.TID 0000.0001)                 1.000000000000000E+00
(PID.TID 0000.0001)     ;
(PID.TID 0000.0001) SEAICE_tensilFac  = /* sea-ice tensile strength factor */
(PID.TID 0000.0001)                 0.000000000000000E+00
(PID.TID 0000.0001)     ;
(PID.TID 0000.0001) SEAICE_tensilDepth= /* crit. depth for tensile strength */
(PID.TID 0000.0001)                 0.000000000000000E+00
(PID.TID 0000.0001)     ;
(PID.TID 0000.0001) SEAICEpresH0   = /* sea-ice strength Heff threshold */
(PID.TID 0000.0001)                 1.000000000000000E+00
(PID.TID 0000.0001)     ;
(PID.TID 0000.0001) SEAICEpresPow0 = /* exponent for Heff<SEAICEpresH0 */
(PID.TID 0000.0001)                       1
(PID.TID 0000.0001)     ;
(PID.TID 0000.0001) SEAICEpresPow1 = /* exponent for Heff>SEAICEpresH0 */
(PID.TID 0000.0001)                       1
(PID.TID 0000.0001)     ;
(PID.TID 0000.0001) SEAICEetaZmethod = /* method computing eta at Z-point */
(PID.TID 0000.0001)                       0
(PID.TID 0000.0001)     ;
(PID.TID 0000.0001) SEAICE_zetaMin    = /* lower bound for viscosity */
(PID.TID 0000.0001)                 0.000000000000000E+00
(PID.TID 0000.0001)     ;
(PID.TID 0000.0001) SEAICE_eccen    = /* elliptical yield curve eccent */
(PID.TID 0000.0001)                 2.000000000000000E+00
(PID.TID 0000.0001)     ;
(PID.TID 0000.0001) SEAICEstressFactor    = /* wind stress scaling factor */
(PID.TID 0000.0001)                 1.000000000000000E+00
(PID.TID 0000.0001)     ;
(PID.TID 0000.0001) SEAICE_airTurnAngle    = /* air-ice turning angle */
(PID.TID 0000.0001)                 0.000000000000000E+00
(PID.TID 0000.0001)     ;
(PID.TID 0000.0001) SEAICE_waterTurnAngle  = /* ice-water turning angle */
(PID.TID 0000.0001)                 0.000000000000000E+00
(PID.TID 0000.0001)     ;
(PID.TID 0000.0001) SEAICEuseMetricTerms = /* use metric terms */
(PID.TID 0000.0001)                   T
(PID.TID 0000.0001)     ;
(PID.TID 0000.0001) SEAICE_no_slip    = /* no slip boundary conditions */
(PID.TID 0000.0001)                   F
(PID.TID 0000.0001)     ;
(PID.TID 0000.0001) SEAICE_2ndOrderBC = /* 2nd order no slip boundary conditions */
(PID.TID 0000.0001)                   F
(PID.TID 0000.0001)     ;
(PID.TID 0000.0001) SEAICE_clipVeloctities = /* impose max. vels. */
(PID.TID 0000.0001)                   F
(PID.TID 0000.0001)     ;
(PID.TID 0000.0001) useHB87stressCoupling  = /* altern. ice-ocean stress */
(PID.TID 0000.0001)                   F
(PID.TID 0000.0001)     ;
(PID.TID 0000.0001) SEAICEscaleSurfStress  = /* scale atm. and ocean-surface stress with AREA */
(PID.TID 0000.0001)                   F
(PID.TID 0000.0001)     ;
(PID.TID 0000.0001) SEAICE_maskRHS    = /* mask RHS of solver */
(PID.TID 0000.0001)                   F
(PID.TID 0000.0001)     ;
(PID.TID 0000.0001) SEAICEaddSnowMass = /* add snow mass to seaiceMassC/U/V */
(PID.TID 0000.0001)                   F
(PID.TID 0000.0001)     ;
(PID.TID 0000.0001) LSR_mixIniGuess = /* mix free-drift sol. into LSR initial Guess */
(PID.TID 0000.0001)                      -1
(PID.TID 0000.0001)     ;
(PID.TID 0000.0001) SEAICE_LSRrelaxU  = /* LSR solver: relaxation parameter */
(PID.TID 0000.0001)                 9.500000000000000E-01
(PID.TID 0000.0001)     ;
(PID.TID 0000.0001) SEAICE_LSRrelaxV  = /* LSR solver: relaxation parameter */
(PID.TID 0000.0001)                 9.500000000000000E-01
(PID.TID 0000.0001)     ;
(PID.TID 0000.0001) LSR_ERROR         = /* sets accuracy of LSR solver */
(PID.TID 0000.0001)                 1.000000000000000E-04
(PID.TID 0000.0001)     ;
(PID.TID 0000.0001) SOLV_NCHECK       = /* test interval for LSR solver */
(PID.TID 0000.0001)                       2
(PID.TID 0000.0001)     ;
(PID.TID 0000.0001) SEAICEuseMultiTileSolver = /* use full domain tri-diag solver */
(PID.TID 0000.0001)                   F
(PID.TID 0000.0001)     ;
(PID.TID 0000.0001) SEAICE_OLx = /* overlap for LSR/preconditioner */
(PID.TID 0000.0001)                       0
(PID.TID 0000.0001)     ;
(PID.TID 0000.0001) SEAICE_OLy = /* overlap for LSR/preconditioner */
(PID.TID 0000.0001)                       0
(PID.TID 0000.0001)     ;
(PID.TID 0000.0001) SEAICEnonLinIterMax = /* max. number of nonlinear solver steps */
(PID.TID 0000.0001)                       2
(PID.TID 0000.0001)     ;
(PID.TID 0000.0001) SEAICElinearIterMax = /* max. number of linear solver steps */
(PID.TID 0000.0001)                     500
(PID.TID 0000.0001)     ;
(PID.TID 0000.0001) SEAICEnonLinTol     = /* non-linear solver tolerance */
(PID.TID 0000.0001)                 0.000000000000000E+00
(PID.TID 0000.0001)     ;
(PID.TID 0000.0001) 
(PID.TID 0000.0001)    Seaice advection diffusion config,   > START <
(PID.TID 0000.0001)    -----------------------------------------------
(PID.TID 0000.0001) SEAICEmomAdvection = /* advect sea ice momentum */
(PID.TID 0000.0001)                   F
(PID.TID 0000.0001)     ;
(PID.TID 0000.0001) SEAICEadvHeff = /* advect effective ice thickness */
(PID.TID 0000.0001)                   T
(PID.TID 0000.0001)     ;
(PID.TID 0000.0001) SEAICEadvArea = /* advect fractional ice area */
(PID.TID 0000.0001)                   T
(PID.TID 0000.0001)     ;
(PID.TID 0000.0001) SEAICEadvSnow = /* advect snow layer together with ice */
(PID.TID 0000.0001)                   T
(PID.TID 0000.0001)     ;
(PID.TID 0000.0001) SEAICEadvScheme   = /* advection scheme for ice */
(PID.TID 0000.0001)                      77
(PID.TID 0000.0001)     ;
(PID.TID 0000.0001) SEAICEadvSchArea   = /* advection scheme for area */
(PID.TID 0000.0001)                      77
(PID.TID 0000.0001)     ;
(PID.TID 0000.0001) SEAICEadvSchHeff   = /* advection scheme for thickness */
(PID.TID 0000.0001)                      77
(PID.TID 0000.0001)     ;
(PID.TID 0000.0001) SEAICEadvSchSnow   = /* advection scheme for snow */
(PID.TID 0000.0001)                      77
(PID.TID 0000.0001)     ;
(PID.TID 0000.0001) SEAICEdiffKhArea   = /* diffusivity (m^2/s) for area */
(PID.TID 0000.0001)                 0.000000000000000E+00
(PID.TID 0000.0001)     ;
(PID.TID 0000.0001) SEAICEdiffKhHeff   = /* diffusivity (m^2/s) for heff */
(PID.TID 0000.0001)                 0.000000000000000E+00
(PID.TID 0000.0001)     ;
(PID.TID 0000.0001) SEAICEdiffKhSnow   = /* diffusivity (m^2/s) for snow */
(PID.TID 0000.0001)                 0.000000000000000E+00
(PID.TID 0000.0001)     ;
(PID.TID 0000.0001) DIFF1             = /* parameter used in advect.F [m/s] */
(PID.TID 0000.0001)                 0.000000000000000E+00
(PID.TID 0000.0001)     ;
(PID.TID 0000.0001) 
(PID.TID 0000.0001)    Seaice thermodynamics configuration   > START <
(PID.TID 0000.0001)    -----------------------------------------------
(PID.TID 0000.0001) SEAICE_rhoIce     = /* density of sea ice (kg/m3) */
(PID.TID 0000.0001)                 9.100000000000000E+02
(PID.TID 0000.0001)     ;
(PID.TID 0000.0001) SEAICE_rhoSnow    = /* density of snow (kg/m3) */
(PID.TID 0000.0001)                 3.300000000000000E+02
(PID.TID 0000.0001)     ;
(PID.TID 0000.0001) SEAICE_rhoAir     = /* density of air (kg/m3) */
(PID.TID 0000.0001)                 1.300000000000000E+00
(PID.TID 0000.0001)     ;
(PID.TID 0000.0001) usePW79thermodynamics  = /* default 0-layer TD */
(PID.TID 0000.0001)                   F
(PID.TID 0000.0001)     ;
(PID.TID 0000.0001)    pkg/seaice thermodynamics is OFF
(PID.TID 0000.0001) 
(PID.TID 0000.0001)    Seaice initialization and IO config.,   > START <
(PID.TID 0000.0001)    -------------------------------------------------
(PID.TID 0000.0001) SEAICE_initialHEFF= /* initial sea-ice thickness */
(PID.TID 0000.0001)                 0.000000000000000E+00
(PID.TID 0000.0001)     ;
(PID.TID 0000.0001) AreaFile = /* Initial ice concentration File */
(PID.TID 0000.0001)               ''
(PID.TID 0000.0001)     ;
(PID.TID 0000.0001) HeffFile = /* Initial effective ice thickness File */
(PID.TID 0000.0001)               ''
(PID.TID 0000.0001)     ;
(PID.TID 0000.0001) HsnowFile = /* Initial snow thickness File */
(PID.TID 0000.0001)               ''
(PID.TID 0000.0001)     ;
(PID.TID 0000.0001) uIceFile = /* Initial U-ice velocity File */
(PID.TID 0000.0001)               ''
(PID.TID 0000.0001)     ;
(PID.TID 0000.0001) vIceFile = /* Initial V-ice velocity File */
(PID.TID 0000.0001)               ''
(PID.TID 0000.0001)     ;
(PID.TID 0000.0001) SEAICEwriteState  = /* write sea ice state to file */
(PID.TID 0000.0001)                   T
(PID.TID 0000.0001)     ;
(PID.TID 0000.0001) SEAICE_monFreq  = /* monitor frequency */
(PID.TID 0000.0001)                 6.000000000000000E+01
(PID.TID 0000.0001)     ;
(PID.TID 0000.0001) SEAICE_dumpFreq   = /* dump frequency */
(PID.TID 0000.0001)                 3.600000000000000E+03
(PID.TID 0000.0001)     ;
(PID.TID 0000.0001) SEAICE_taveFreq   = /* time-averaging frequency */
(PID.TID 0000.0001)                 0.000000000000000E+00
(PID.TID 0000.0001)     ;
(PID.TID 0000.0001) SEAICE_mon_stdio  = /* write monitor to std-outp */
(PID.TID 0000.0001)                   T
(PID.TID 0000.0001)     ;
(PID.TID 0000.0001) SEAICE_dump_mdsio = /* write snap-shot   using MDSIO */
(PID.TID 0000.0001)                   T
(PID.TID 0000.0001)     ;
(PID.TID 0000.0001) SEAICE_tave_mdsio = /* write TimeAverage using MDSIO */
(PID.TID 0000.0001)                   T
(PID.TID 0000.0001)     ;
(PID.TID 0000.0001) 
(PID.TID 0000.0001)    Seaice regularization numbers,   > START <
(PID.TID 0000.0001)    -----------------------------------------------
(PID.TID 0000.0001) SEAICE_deltaMin   = /* reduce singularities in Delta */
(PID.TID 0000.0001)                 1.000000000000000E-10
(PID.TID 0000.0001)     ;
(PID.TID 0000.0001) SEAICE_EPS        = /* small number */
(PID.TID 0000.0001)                 1.000000000000000E-10
(PID.TID 0000.0001)     ;
(PID.TID 0000.0001) SEAICE_EPS_SQ     = /* small number squared */
(PID.TID 0000.0001)                 1.000000000000000E-20
(PID.TID 0000.0001)     ;
(PID.TID 0000.0001) SEAICE_area_reg   = /* reduce derivative singularities */
(PID.TID 0000.0001)                 1.000000000000000E-05
(PID.TID 0000.0001)     ;
(PID.TID 0000.0001) SEAICE_hice_reg   = /* reduce derivative singularities */
(PID.TID 0000.0001)                 5.000000000000000E-02
(PID.TID 0000.0001)     ;
(PID.TID 0000.0001) SEAICE_area_floor = /* reduce derivative singularities */
(PID.TID 0000.0001)                 1.000000000000000E-05
(PID.TID 0000.0001)     ;
(PID.TID 0000.0001) 
(PID.TID 0000.0001) // =======================================================
(PID.TID 0000.0001) // Seaice configuration (SEAICE_PARM01) >>> END <<<
(PID.TID 0000.0001) // =======================================================
(PID.TID 0000.0001) 
(PID.TID 0000.0001) ------------------------------------------------------------
(PID.TID 0000.0001) DIAGNOSTICS_SET_LEVELS: done
(PID.TID 0000.0001)  Total Nb of available Diagnostics: ndiagt=   290
(PID.TID 0000.0001) SETDIAG: Allocate  1 x  1 Levels for Diagnostic #    80 oceTAUX
(PID.TID 0000.0001) SETDIAG: Allocate  1 x  1 Levels for Diagnostic #    81 oceTAUY
(PID.TID 0000.0001) SETDIAG: Allocate  1 x  1 Levels for Diagnostic #    84 oceFWflx
(PID.TID 0000.0001) SETDIAG: Allocate  1 x  1 Levels for Diagnostic #    85 oceSflux
(PID.TID 0000.0001) SETDIAG: Allocate  1 x  1 Levels for Diagnostic #    86 oceQnet
(PID.TID 0000.0001) SETDIAG: Allocate  1 x  1 Levels for Diagnostic #    87 oceQsw
(PID.TID 0000.0001) SETDIAG: Allocate  1 x  1 Levels for Diagnostic #    23 ETAN
(PID.TID 0000.0001) SETDIAG: Allocate 50 x  1 Levels for Diagnostic #    27 SALT
(PID.TID 0000.0001) SETDIAG: Allocate 50 x  1 Levels for Diagnostic #    26 THETA
(PID.TID 0000.0001) SETDIAG: Allocate 50 x  1 Levels for Diagnostic #    45 UVELMASS
(PID.TID 0000.0001) SETDIAG: Allocate 50 x  1 Levels for Diagnostic #    46 VVELMASS
(PID.TID 0000.0001) SETDIAG: Allocate 50 x  1 Levels for Diagnostic #    47 WVELMASS
(PID.TID 0000.0001) SETDIAG: Allocate 50 x  1 Levels for Diagnostic #    27 SALT
(PID.TID 0000.0001) SETDIAG: Allocate 50 x  1 Levels for Diagnostic #    26 THETA
(PID.TID 0000.0001) SETDIAG: Allocate  1 x  1 Levels for Diagnostic #    23 ETAN
(PID.TID 0000.0001) SETDIAG: Allocate 50 x  1 Levels for Diagnostic #   114 DFxE_TH
(PID.TID 0000.0001) SETDIAG: Allocate 50 x  1 Levels for Diagnostic #   115 DFyE_TH
(PID.TID 0000.0001) SETDIAG: Allocate 50 x  1 Levels for Diagnostic #   111 ADVx_TH
(PID.TID 0000.0001) SETDIAG: Allocate 50 x  1 Levels for Diagnostic #   112 ADVy_TH
(PID.TID 0000.0001) SETDIAG: Allocate 50 x  1 Levels for Diagnostic #   121 DFxE_SLT
(PID.TID 0000.0001) SETDIAG: Allocate 50 x  1 Levels for Diagnostic #   122 DFyE_SLT
(PID.TID 0000.0001) SETDIAG: Allocate 50 x  1 Levels for Diagnostic #   118 ADVx_SLT
(PID.TID 0000.0001) SETDIAG: Allocate 50 x  1 Levels for Diagnostic #   119 ADVy_SLT
(PID.TID 0000.0001) SETDIAG: Allocate 50 x  1 Levels for Diagnostic #   110 ADVr_TH
(PID.TID 0000.0001) SETDIAG: Allocate 50 x  1 Levels for Diagnostic #   113 DFrE_TH
(PID.TID 0000.0001) SETDIAG: Allocate 50 x  1 Levels for Diagnostic #   116 DFrI_TH
(PID.TID 0000.0001) SETDIAG: Allocate 50 x  1 Levels for Diagnostic #   117 ADVr_SLT
(PID.TID 0000.0001) SETDIAG: Allocate 50 x  1 Levels for Diagnostic #   120 DFrE_SLT
(PID.TID 0000.0001) SETDIAG: Allocate 50 x  1 Levels for Diagnostic #   123 DFrI_SLT
(PID.TID 0000.0001) SETDIAG: Allocate  1 x  1 Levels for Diagnostic #   204 SIarea
(PID.TID 0000.0001) SETDIAG: Allocate  1 x  1 Levels for Diagnostic #   207 SIheff
(PID.TID 0000.0001) SETDIAG: Allocate  1 x  1 Levels for Diagnostic #   209 SIhsnow
(PID.TID 0000.0001) SETDIAG: Allocate  1 x  1 Levels for Diagnostic #    83 sIceLoad
(PID.TID 0000.0001) SETDIAG: Allocate  1 x  1 Levels for Diagnostic #   213 SIuice
(PID.TID 0000.0001) SETDIAG: Allocate  1 x  1 Levels for Diagnostic #   214 SIvice
(PID.TID 0000.0001) SETDIAG: Allocate  1 x  1 Levels for Diagnostic #   215 SItaux
(PID.TID 0000.0001) SETDIAG: Allocate  1 x  1 Levels for Diagnostic #   216 SItauy
(PID.TID 0000.0001) SETDIAG: Allocate  1 x  1 Levels for Diagnostic #   248 ADVxHEFF
(PID.TID 0000.0001) SETDIAG: Allocate  1 x  1 Levels for Diagnostic #   249 ADVyHEFF
(PID.TID 0000.0001) SETDIAG: Allocate  1 x  1 Levels for Diagnostic #   252 ADVxAREA
(PID.TID 0000.0001) SETDIAG: Allocate  1 x  1 Levels for Diagnostic #   253 ADVyAREA
(PID.TID 0000.0001) SETDIAG: Allocate  1 x  1 Levels for Diagnostic #   256 ADVxSNOW
(PID.TID 0000.0001) SETDIAG: Allocate  1 x  1 Levels for Diagnostic #   257 ADVySNOW
(PID.TID 0000.0001)   space allocated for all diagnostics:    1072 levels
(PID.TID 0000.0001)   set mate pointer for diag #    80  oceTAUX  , Parms: UU      U1 , mate:    81
(PID.TID 0000.0001)   set mate pointer for diag #    81  oceTAUY  , Parms: VV      U1 , mate:    80
(PID.TID 0000.0001)   set mate pointer for diag #    45  UVELMASS , Parms: UUr     MR , mate:    46
(PID.TID 0000.0001)   set mate pointer for diag #    46  VVELMASS , Parms: VVr     MR , mate:    45
(PID.TID 0000.0001)   set mate pointer for diag #   114  DFxE_TH  , Parms: UU      MR , mate:   115
(PID.TID 0000.0001)   set mate pointer for diag #   115  DFyE_TH  , Parms: VV      MR , mate:   114
(PID.TID 0000.0001)   set mate pointer for diag #   111  ADVx_TH  , Parms: UU      MR , mate:   112
(PID.TID 0000.0001)   set mate pointer for diag #   112  ADVy_TH  , Parms: VV      MR , mate:   111
(PID.TID 0000.0001)   set mate pointer for diag #   121  DFxE_SLT , Parms: UU      MR , mate:   122
(PID.TID 0000.0001)   set mate pointer for diag #   122  DFyE_SLT , Parms: VV      MR , mate:   121
(PID.TID 0000.0001)   set mate pointer for diag #   118  ADVx_SLT , Parms: UU      MR , mate:   119
(PID.TID 0000.0001)   set mate pointer for diag #   119  ADVy_SLT , Parms: VV      MR , mate:   118
(PID.TID 0000.0001)   set mate pointer for diag #   213  SIuice   , Parms: UU      M1 , mate:   214
(PID.TID 0000.0001)   set mate pointer for diag #   214  SIvice   , Parms: VV      M1 , mate:   213
(PID.TID 0000.0001)   set mate pointer for diag #   215  SItaux   , Parms: UU      U1 , mate:   216
(PID.TID 0000.0001)   set mate pointer for diag #   216  SItauy   , Parms: VV      U1 , mate:   215
(PID.TID 0000.0001)   set mate pointer for diag #   248  ADVxHEFF , Parms: UU      M1 , mate:   249
(PID.TID 0000.0001)   set mate pointer for diag #   249  ADVyHEFF , Parms: VV      M1 , mate:   248
(PID.TID 0000.0001)   set mate pointer for diag #   252  ADVxAREA , Parms: UU      M1 , mate:   253
(PID.TID 0000.0001)   set mate pointer for diag #   253  ADVyAREA , Parms: VV      M1 , mate:   252
(PID.TID 0000.0001)   set mate pointer for diag #   256  ADVxSNOW , Parms: UU      M1 , mate:   257
(PID.TID 0000.0001)   set mate pointer for diag #   257  ADVySNOW , Parms: VV      M1 , mate:   256
(PID.TID 0000.0001) DIAGNOSTICS_SET_POINTERS: Set levels for Outp.Stream: state_2d_set1
(PID.TID 0000.0001)  Levels:       1.
(PID.TID 0000.0001) DIAGNOSTICS_SET_POINTERS: Set levels for Outp.Stream: state_3d_set1
(PID.TID 0000.0001)  Levels:       1.   2.   3.   4.   5.   6.   7.   8.   9.  10.  11.  12.  13.  14.  15.  16.  17.  18.  19.  20.
(PID.TID 0000.0001)  Levels:      21.  22.  23.  24.  25.  26.  27.  28.  29.  30.  31.  32.  33.  34.  35.  36.  37.  38.  39.  40.
(PID.TID 0000.0001)  Levels:      41.  42.  43.  44.  45.  46.  47.  48.  49.  50.
(PID.TID 0000.0001) DIAGNOSTICS_SET_POINTERS: Set levels for Outp.Stream: snap_3d_set1
(PID.TID 0000.0001)  Levels:       1.   2.   3.   4.   5.   6.   7.   8.   9.  10.  11.  12.  13.  14.  15.  16.  17.  18.  19.  20.
(PID.TID 0000.0001)  Levels:      21.  22.  23.  24.  25.  26.  27.  28.  29.  30.  31.  32.  33.  34.  35.  36.  37.  38.  39.  40.
(PID.TID 0000.0001)  Levels:      41.  42.  43.  44.  45.  46.  47.  48.  49.  50.
(PID.TID 0000.0001) DIAGNOSTICS_SET_POINTERS: Set levels for Outp.Stream: snap_2d_set2
(PID.TID 0000.0001)  Levels:       1.
(PID.TID 0000.0001) DIAGNOSTICS_SET_POINTERS: Set levels for Outp.Stream: state_3d_set2
(PID.TID 0000.0001)  Levels:       1.   2.   3.   4.   5.   6.   7.   8.   9.  10.  11.  12.  13.  14.  15.  16.  17.  18.  19.  20.
(PID.TID 0000.0001)  Levels:      21.  22.  23.  24.  25.  26.  27.  28.  29.  30.  31.  32.  33.  34.  35.  36.  37.  38.  39.  40.
(PID.TID 0000.0001)  Levels:      41.  42.  43.  44.  45.  46.  47.  48.  49.  50.
(PID.TID 0000.0001) DIAGNOSTICS_SET_POINTERS: Set levels for Outp.Stream: state_3d_set4
(PID.TID 0000.0001)  Levels:       1.   2.   3.   4.   5.   6.   7.   8.   9.  10.  11.  12.  13.  14.  15.  16.  17.  18.  19.  20.
(PID.TID 0000.0001)  Levels:      21.  22.  23.  24.  25.  26.  27.  28.  29.  30.  31.  32.  33.  34.  35.  36.  37.  38.  39.  40.
(PID.TID 0000.0001)  Levels:      41.  42.  43.  44.  45.  46.  47.  48.  49.  50.
(PID.TID 0000.0001) DIAGNOSTICS_SET_POINTERS: Set levels for Outp.Stream: iceDiag
(PID.TID 0000.0001)  Levels:       1.
(PID.TID 0000.0001) DIAGNOSTICS_SET_POINTERS: done
(PID.TID 0000.0001) ------------------------------------------------------------
(PID.TID 0000.0001) DIAGSTATS_SET_REGIONS: define   0 regions:
(PID.TID 0000.0001) ------------------------------------------------------------
(PID.TID 0000.0001) SETDIAG: Allocate  1 Levels for Stats-Diag #    23 ETAN
(PID.TID 0000.0001) SETDIAG: Allocate 50 Levels for Stats-Diag #    26 THETA
(PID.TID 0000.0001) SETDIAG: Allocate 50 Levels for Stats-Diag #    27 SALT
(PID.TID 0000.0001) SETDIAG: Allocate  1 Levels for Stats-Diag #    86 oceQnet
(PID.TID 0000.0001) SETDIAG: Allocate  1 Levels for Stats-Diag #    84 oceFWflx
(PID.TID 0000.0001) SETDIAG: Allocate  1 Levels for Stats-Diag #    85 oceSflux
(PID.TID 0000.0001) SETDIAG: Allocate  1 Levels for Stats-Diag #   204 SIarea
(PID.TID 0000.0001) SETDIAG: Allocate  1 Levels for Stats-Diag #   207 SIheff
(PID.TID 0000.0001) SETDIAG: Allocate  1 Levels for Stats-Diag #   209 SIhsnow
(PID.TID 0000.0001) SETDIAG: Allocate  1 Levels for Stats-Diag #    83 sIceLoad
(PID.TID 0000.0001) SETDIAG: Allocate  1 Levels for Stats-Diag #   213 SIuice
(PID.TID 0000.0001) SETDIAG: Allocate  1 Levels for Stats-Diag #   214 SIvice
(PID.TID 0000.0001) SETDIAG: Allocate  1 Levels for Stats-Diag #   215 SItaux
(PID.TID 0000.0001) SETDIAG: Allocate  1 Levels for Stats-Diag #   216 SItauy
(PID.TID 0000.0001) SETDIAG: Allocate  5 Levels for Stats-Diag #   275 SIareaN
(PID.TID 0000.0001) SETDIAG: Allocate  5 Levels for Stats-Diag #   274 SIheffN
(PID.TID 0000.0001) SETDIAG: Allocate  5 Levels for Stats-Diag #   276 SIhsnowN
(PID.TID 0000.0001) SETDIAG: Allocate  5 Levels for Stats-Diag #   280 SIqSnow
(PID.TID 0000.0001) SETDIAG: Allocate 20 Levels for Stats-Diag #   279 SIqIce
(PID.TID 0000.0001) SETDIAG: Allocate  5 Levels for Stats-Diag #   281 SImeltPd
(PID.TID 0000.0001) SETDIAG: Allocate  5 Levels for Stats-Diag #   278 SItIces
(PID.TID 0000.0001) SETDIAG: Allocate  5 Levels for Stats-Diag #   282 SIiceAge
(PID.TID 0000.0001) SETDIAG: Allocate  5 Levels for Stats-Diag #   283 SI_dArea
(PID.TID 0000.0001) SETDIAG: Allocate  5 Levels for Stats-Diag #   284 SI_dHeff
(PID.TID 0000.0001) SETDIAG: Allocate  5 Levels for Stats-Diag #   285 SI_dHsnw
(PID.TID 0000.0001) SETDIAG: Allocate  5 Levels for Stats-Diag #   288 SI_dQSnw
(PID.TID 0000.0001) SETDIAG: Allocate 20 Levels for Stats-Diag #   287 SI_dQIce
(PID.TID 0000.0001)   space allocated for all stats-diags:     207 levels
(PID.TID 0000.0001) DIAGSTATS_SET_POINTERS: done
(PID.TID 0000.0001) ------------------------------------------------------------
(PID.TID 0000.0001) DIAGSTATS_INI_IO: open file: dynStDiag.0000174588.txt , unit=    37
(PID.TID 0000.0001) DIAGSTATS_INI_IO: open file: iceStDiag.0000174588.txt , unit=    38
(PID.TID 0000.0001) INI_GLOBAL_DOMAIN: Found   0 CS-corner Pts in the domain
(PID.TID 0000.0001) %MON fCori_max                    =   1.4584096177006E-04
(PID.TID 0000.0001) %MON fCori_min                    =  -1.4576251334415E-04
(PID.TID 0000.0001) %MON fCori_mean                   =  -8.7654439315739E-06
(PID.TID 0000.0001) %MON fCori_sd                     =   1.0383886522938E-04
(PID.TID 0000.0001) %MON fCoriG_max                   =   1.4584247033981E-04
(PID.TID 0000.0001) %MON fCoriG_min                   =  -1.4575575421020E-04
(PID.TID 0000.0001) %MON fCoriG_mean                  =  -8.7205865294813E-06
(PID.TID 0000.0001) %MON fCoriG_sd                    =   1.0386686226587E-04
(PID.TID 0000.0001) %MON fCoriCos_max                 =   1.4584158744890E-04
(PID.TID 0000.0001) %MON fCoriCos_min                 =   6.6334365221135E-07
(PID.TID 0000.0001) %MON fCoriCos_mean                =   9.3676196717296E-05
(PID.TID 0000.0001) %MON fCoriCos_sd                  =   4.0440739161864E-05
(PID.TID 0000.0001) INI_CG2D: CG2D normalisation factor =  7.1522409280111305E-05
(PID.TID 0000.0001) 
(PID.TID 0000.0001) // =======================================================
(PID.TID 0000.0001) // Model configuration
(PID.TID 0000.0001) // =======================================================
(PID.TID 0000.0001) //
(PID.TID 0000.0001) // "Physical" paramters ( PARM01 in namelist )
(PID.TID 0000.0001) //
(PID.TID 0000.0001) buoyancyRelation = /* Type of relation to get Buoyancy */
(PID.TID 0000.0001)               'OCEANIC'
(PID.TID 0000.0001)     ;
(PID.TID 0000.0001) fluidIsAir   =  /* fluid major constituent is Air */
(PID.TID 0000.0001)                   F
(PID.TID 0000.0001)     ;
(PID.TID 0000.0001) fluidIsWater =  /* fluid major constituent is Water */
(PID.TID 0000.0001)                   T
(PID.TID 0000.0001)     ;
(PID.TID 0000.0001) usingPCoords =  /* use p (or p*) vertical coordinate */
(PID.TID 0000.0001)                   F
(PID.TID 0000.0001)     ;
(PID.TID 0000.0001) usingZCoords =  /* use z (or z*) vertical coordinate */
(PID.TID 0000.0001)                   T
(PID.TID 0000.0001)     ;
(PID.TID 0000.0001) tRef =   /* Reference temperature profile ( oC or K ) */
(PID.TID 0000.0001)     3 @  2.300000000000000E+01,             /* K =  1:  3 */
(PID.TID 0000.0001)     3 @  2.200000000000000E+01,             /* K =  4:  6 */
(PID.TID 0000.0001)                 2.100000000000000E+01,      /* K =  7 */
(PID.TID 0000.0001)     2 @  2.000000000000000E+01,             /* K =  8:  9 */
(PID.TID 0000.0001)                 1.900000000000000E+01,      /* K = 10 */
(PID.TID 0000.0001)     2 @  1.800000000000000E+01,             /* K = 11: 12 */
(PID.TID 0000.0001)                 1.700000000000000E+01,      /* K = 13 */
(PID.TID 0000.0001)     2 @  1.600000000000000E+01,             /* K = 14: 15 */
(PID.TID 0000.0001)                 1.500000000000000E+01,      /* K = 16 */
(PID.TID 0000.0001)                 1.400000000000000E+01,      /* K = 17 */
(PID.TID 0000.0001)                 1.300000000000000E+01,      /* K = 18 */
(PID.TID 0000.0001)                 1.200000000000000E+01,      /* K = 19 */
(PID.TID 0000.0001)                 1.100000000000000E+01,      /* K = 20 */
(PID.TID 0000.0001)     2 @  9.000000000000000E+00,             /* K = 21: 22 */
(PID.TID 0000.0001)                 8.000000000000000E+00,      /* K = 23 */
(PID.TID 0000.0001)                 7.000000000000000E+00,      /* K = 24 */
(PID.TID 0000.0001)     2 @  6.000000000000000E+00,             /* K = 25: 26 */
(PID.TID 0000.0001)     2 @  5.000000000000000E+00,             /* K = 27: 28 */
(PID.TID 0000.0001)     3 @  4.000000000000000E+00,             /* K = 29: 31 */
(PID.TID 0000.0001)     3 @  3.000000000000000E+00,             /* K = 32: 34 */
(PID.TID 0000.0001)     4 @  2.000000000000000E+00,             /* K = 35: 38 */
(PID.TID 0000.0001)    12 @  1.000000000000000E+00              /* K = 39: 50 */
(PID.TID 0000.0001)     ;
(PID.TID 0000.0001) sRef =   /* Reference salinity profile ( psu ) */
(PID.TID 0000.0001)    50 @  3.450000000000000E+01              /* K =  1: 50 */
(PID.TID 0000.0001)     ;
(PID.TID 0000.0001) useStrainTensionVisc= /* Use StrainTension Form of Viscous Operator */
(PID.TID 0000.0001)                   F
(PID.TID 0000.0001)     ;
(PID.TID 0000.0001) useVariableVisc = /* Use variable horizontal viscosity */
(PID.TID 0000.0001)                   T
(PID.TID 0000.0001)     ;
(PID.TID 0000.0001) useHarmonicVisc = /* Use harmonic horizontal viscosity */
(PID.TID 0000.0001)                   F
(PID.TID 0000.0001)     ;
(PID.TID 0000.0001) useBiharmonicVisc= /* Use biharmonic horiz.  viscosity */
(PID.TID 0000.0001)                   T
(PID.TID 0000.0001)     ;
(PID.TID 0000.0001) useSmag3D = /* Use isotropic 3-D Smagorinsky viscosity */
(PID.TID 0000.0001)                   F
(PID.TID 0000.0001)     ;
(PID.TID 0000.0001) viscAh  =   /* Lateral harmonic viscosity ( m^2/s ) */
(PID.TID 0000.0001)                 0.000000000000000E+00
(PID.TID 0000.0001)     ;
(PID.TID 0000.0001) viscAhMax = /* Maximum lateral harmonic viscosity ( m^2/s ) */
(PID.TID 0000.0001)                 1.000000000000000E+21
(PID.TID 0000.0001)     ;
(PID.TID 0000.0001) viscAhGrid = /* Grid dependent lateral harmonic viscosity ( non-dim. ) */
(PID.TID 0000.0001)                 0.000000000000000E+00
(PID.TID 0000.0001)     ;
(PID.TID 0000.0001) useFullLeith = /* Use Full Form of Leith Viscosity on/off flag*/
(PID.TID 0000.0001)                   F
(PID.TID 0000.0001)     ;
(PID.TID 0000.0001) useAreaViscLength = /* Use area for visc length instead of geom. mean*/
(PID.TID 0000.0001)                   T
(PID.TID 0000.0001)     ;
(PID.TID 0000.0001) viscC2leith = /* Leith harmonic visc. factor (on grad(vort),non-dim.) */
(PID.TID 0000.0001)                 0.000000000000000E+00
(PID.TID 0000.0001)     ;
(PID.TID 0000.0001) viscC2leithD = /* Leith harmonic viscosity factor (on grad(div),non-dim.)*/
(PID.TID 0000.0001)                 0.000000000000000E+00
(PID.TID 0000.0001)     ;
(PID.TID 0000.0001) viscC2smag = /* Smagorinsky harmonic viscosity factor (non-dim.) */
(PID.TID 0000.0001)                 0.000000000000000E+00
(PID.TID 0000.0001)     ;
(PID.TID 0000.0001) viscA4  =   /* Lateral biharmonic viscosity ( m^4/s ) */
(PID.TID 0000.0001)                 0.000000000000000E+00
(PID.TID 0000.0001)     ;
(PID.TID 0000.0001) viscA4Max = /* Maximum biharmonic viscosity ( m^2/s ) */
(PID.TID 0000.0001)                 1.000000000000000E+21
(PID.TID 0000.0001)     ;
(PID.TID 0000.0001) viscA4Grid = /* Grid dependent biharmonic viscosity ( non-dim. ) */
(PID.TID 0000.0001)                 0.000000000000000E+00
(PID.TID 0000.0001)     ;
(PID.TID 0000.0001) viscC4leith = /* Leith biharm viscosity factor (on grad(vort), non-dim.)*/
(PID.TID 0000.0001)                 2.000000000000000E+00
(PID.TID 0000.0001)     ;
(PID.TID 0000.0001) viscC4leithD = /* Leith biharm viscosity factor (on grad(div), non-dim.) */
(PID.TID 0000.0001)                 2.000000000000000E+00
(PID.TID 0000.0001)     ;
(PID.TID 0000.0001) viscC4Smag = /* Smagorinsky biharm viscosity factor (non-dim) */
(PID.TID 0000.0001)                 0.000000000000000E+00
(PID.TID 0000.0001)     ;
(PID.TID 0000.0001) no_slip_sides =  /* Viscous BCs: No-slip sides */
(PID.TID 0000.0001)                   F
(PID.TID 0000.0001)     ;
(PID.TID 0000.0001) sideDragFactor = /* side-drag scaling factor (non-dim) */
(PID.TID 0000.0001)                 0.000000000000000E+00
(PID.TID 0000.0001)     ;
(PID.TID 0000.0001) viscArNr = /* vertical profile of vertical viscosity ( m^2/s )*/
(PID.TID 0000.0001)    50 @  5.661400000000000E-04              /* K =  1: 50 */
(PID.TID 0000.0001)     ;
(PID.TID 0000.0001) no_slip_bottom =  /* Viscous BCs: No-slip bottom */
(PID.TID 0000.0001)                   T
(PID.TID 0000.0001)     ;
(PID.TID 0000.0001) bottomVisc_pCell = /* Partial-cell in bottom Visc. BC */
(PID.TID 0000.0001)                   F
(PID.TID 0000.0001)     ;
(PID.TID 0000.0001) bottomDragLinear = /* linear bottom-drag coefficient ( m/s ) */
(PID.TID 0000.0001)                 0.000000000000000E+00
(PID.TID 0000.0001)     ;
(PID.TID 0000.0001) bottomDragQuadratic = /* quadratic bottom-drag coefficient (-) */
(PID.TID 0000.0001)                 2.100000000000000E-03
(PID.TID 0000.0001)     ;
(PID.TID 0000.0001) selectBotDragQuadr = /* select quadratic bottom drag options */
(PID.TID 0000.0001)                       0
(PID.TID 0000.0001)     ;
(PID.TID 0000.0001) diffKhT =   /* Laplacian diffusion of heat laterally ( m^2/s ) */
(PID.TID 0000.0001)                 0.000000000000000E+00
(PID.TID 0000.0001)     ;
(PID.TID 0000.0001) diffK4T =   /* Biharmonic diffusion of heat laterally ( m^4/s ) */
(PID.TID 0000.0001)                 0.000000000000000E+00
(PID.TID 0000.0001)     ;
(PID.TID 0000.0001) diffKhS =   /* Laplacian diffusion of salt laterally ( m^2/s ) */
(PID.TID 0000.0001)                 0.000000000000000E+00
(PID.TID 0000.0001)     ;
(PID.TID 0000.0001) diffK4S =   /* Biharmonic diffusion of salt laterally ( m^4/s ) */
(PID.TID 0000.0001)                 0.000000000000000E+00
(PID.TID 0000.0001)     ;
(PID.TID 0000.0001) diffKrNrT = /* vertical profile of vertical diffusion of Temp ( m^2/s )*/
(PID.TID 0000.0001)    50 @  5.440000000000000E-07              /* K =  1: 50 */
(PID.TID 0000.0001)     ;
(PID.TID 0000.0001) diffKrNrS = /* vertical profile of vertical diffusion of Salt ( m^2/s )*/
(PID.TID 0000.0001)    50 @  5.440000000000000E-07              /* K =  1: 50 */
(PID.TID 0000.0001)     ;
(PID.TID 0000.0001) diffKrBL79surf = /* Surface diffusion for Bryan and Lewis 79 ( m^2/s ) */
(PID.TID 0000.0001)                 0.000000000000000E+00
(PID.TID 0000.0001)     ;
(PID.TID 0000.0001) diffKrBL79deep = /* Deep diffusion for Bryan and Lewis 1979 ( m^2/s ) */
(PID.TID 0000.0001)                 0.000000000000000E+00
(PID.TID 0000.0001)     ;
(PID.TID 0000.0001) diffKrBL79scl = /* Depth scale for Bryan and Lewis 1979 ( m ) */
(PID.TID 0000.0001)                 2.000000000000000E+02
(PID.TID 0000.0001)     ;
(PID.TID 0000.0001) diffKrBL79Ho = /* Turning depth for Bryan and Lewis 1979 ( m ) */
(PID.TID 0000.0001)                -2.000000000000000E+03
(PID.TID 0000.0001)     ;
(PID.TID 0000.0001) ivdc_kappa = /* Implicit Vertical Diffusivity for Convection ( m^2/s) */
(PID.TID 0000.0001)                 0.000000000000000E+00
(PID.TID 0000.0001)     ;
(PID.TID 0000.0001) hMixCriteria=  /* Criteria for mixed-layer diagnostic */
(PID.TID 0000.0001)                -8.000000000000000E-01
(PID.TID 0000.0001)     ;
(PID.TID 0000.0001) dRhoSmall =  /* Parameter for mixed-layer diagnostic */
(PID.TID 0000.0001)                 1.000000000000000E-06
(PID.TID 0000.0001)     ;
(PID.TID 0000.0001) hMixSmooth=  /* Smoothing parameter for mixed-layer diagnostic */
(PID.TID 0000.0001)                 0.000000000000000E+00
(PID.TID 0000.0001)     ;
(PID.TID 0000.0001) eosType =  /* Type of Equation of State */
(PID.TID 0000.0001)               'JMD95Z'
(PID.TID 0000.0001)     ;
(PID.TID 0000.0001) selectP_inEOS_Zc = /* select pressure to use in EOS (0,1,2,3) */
(PID.TID 0000.0001)                       0
(PID.TID 0000.0001)     0= -g*rhoConst*z ; 1= pRef (from tRef,sRef); 2= Hyd P ; 3= Hyd+NH P
(PID.TID 0000.0001)     ;
(PID.TID 0000.0001) HeatCapacity_Cp =  /* Specific heat capacity ( J/kg/K ) */
(PID.TID 0000.0001)                 3.994000000000000E+03
(PID.TID 0000.0001)     ;
(PID.TID 0000.0001) celsius2K = /* 0 degree Celsius converted to Kelvin ( K ) */
(PID.TID 0000.0001)                 2.731500000000000E+02
(PID.TID 0000.0001)     ;
(PID.TID 0000.0001) rhoConst  = /* Reference density (Boussinesq)  ( kg/m^3 ) */
(PID.TID 0000.0001)                 1.027500000000000E+03
(PID.TID 0000.0001)     ;
(PID.TID 0000.0001) rhoFacC = /* normalized Reference density @ cell-Center (-) */
(PID.TID 0000.0001)    50 @  1.000000000000000E+00              /* K =  1: 50 */
(PID.TID 0000.0001)     ;
(PID.TID 0000.0001) rhoFacF = /* normalized Reference density @ W-Interface (-) */
(PID.TID 0000.0001)    51 @  1.000000000000000E+00              /* K =  1: 51 */
(PID.TID 0000.0001)     ;
(PID.TID 0000.0001) rhoConstFresh = /* Fresh-water reference density ( kg/m^3 ) */
(PID.TID 0000.0001)                 9.998000000000000E+02
(PID.TID 0000.0001)     ;
(PID.TID 0000.0001) gravity =   /* Gravitational acceleration ( m/s^2 ) */
(PID.TID 0000.0001)                 9.810000000000000E+00
(PID.TID 0000.0001)     ;
(PID.TID 0000.0001) gBaro =   /* Barotropic gravity ( m/s^2 ) */
(PID.TID 0000.0001)                 9.810000000000000E+00
(PID.TID 0000.0001)     ;
(PID.TID 0000.0001) gravFacC = /* gravity factor (vs surf.) @ cell-Center (-) */
(PID.TID 0000.0001)    50 @  1.000000000000000E+00              /* K =  1: 50 */
(PID.TID 0000.0001)     ;
(PID.TID 0000.0001) gravFacF = /* gravity factor (vs surf.) @ W-Interface (-) */
(PID.TID 0000.0001)    51 @  1.000000000000000E+00              /* K =  1: 51 */
(PID.TID 0000.0001)     ;
(PID.TID 0000.0001) rotationPeriod =   /* Rotation Period ( s ) */
(PID.TID 0000.0001)                 8.616400000000000E+04
(PID.TID 0000.0001)     ;
(PID.TID 0000.0001) omega =   /* Angular velocity ( rad/s ) */
(PID.TID 0000.0001)                 7.292123516990375E-05
(PID.TID 0000.0001)     ;
(PID.TID 0000.0001) f0 =   /* Reference coriolis parameter ( 1/s ) */
(PID.TID 0000.0001)                 1.000000000000000E-04
(PID.TID 0000.0001)     ;
(PID.TID 0000.0001) beta =   /* Beta ( 1/(m.s) ) */
(PID.TID 0000.0001)                 9.999999999999999E-12
(PID.TID 0000.0001)     ;
(PID.TID 0000.0001) fPrime =   /* Second coriolis parameter ( 1/s ) */
(PID.TID 0000.0001)                 0.000000000000000E+00
(PID.TID 0000.0001)     ;
(PID.TID 0000.0001) rigidLid =   /* Rigid lid on/off flag */
(PID.TID 0000.0001)                   F
(PID.TID 0000.0001)     ;
(PID.TID 0000.0001) implicitFreeSurface =   /* Implicit free surface on/off flag */
(PID.TID 0000.0001)                   T
(PID.TID 0000.0001)     ;
(PID.TID 0000.0001) freeSurfFac =   /* Implicit free surface factor */
(PID.TID 0000.0001)                 1.000000000000000E+00
(PID.TID 0000.0001)     ;
(PID.TID 0000.0001) implicSurfPress =  /* Surface Pressure implicit factor (0-1)*/
(PID.TID 0000.0001)                 1.000000000000000E+00
(PID.TID 0000.0001)     ;
(PID.TID 0000.0001) implicDiv2DFlow =  /* Barot. Flow Div. implicit factor (0-1)*/
(PID.TID 0000.0001)                 1.000000000000000E+00
(PID.TID 0000.0001)     ;
(PID.TID 0000.0001) uniformLin_PhiSurf = /* use uniform Bo_surf on/off flag*/
(PID.TID 0000.0001)                   T
(PID.TID 0000.0001)     ;
(PID.TID 0000.0001) uniformFreeSurfLev = /* free-surface level-index is uniform */
(PID.TID 0000.0001)                   T
(PID.TID 0000.0001)     ;
(PID.TID 0000.0001) hFacMin =   /* minimum partial cell factor (hFac) */
(PID.TID 0000.0001)                 3.000000000000000E-01
(PID.TID 0000.0001)     ;
(PID.TID 0000.0001) hFacMinDr = /* minimum partial cell thickness ( m) */
(PID.TID 0000.0001)                 0.000000000000000E+00
(PID.TID 0000.0001)     ;
(PID.TID 0000.0001) exactConserv =  /* Exact Volume Conservation on/off flag*/
(PID.TID 0000.0001)                   T
(PID.TID 0000.0001)     ;
(PID.TID 0000.0001) linFSConserveTr = /* Tracer correction for Lin Free Surface on/off flag*/
(PID.TID 0000.0001)                   F
(PID.TID 0000.0001)     ;
(PID.TID 0000.0001) nonlinFreeSurf = /* Non-linear Free Surf. options (-1,0,1,2,3)*/
(PID.TID 0000.0001)                       0
(PID.TID 0000.0001)      -1,0= Off ; 1,2,3= On, 2=+rescale gU,gV, 3=+update cg2d solv.
(PID.TID 0000.0001)     ;
(PID.TID 0000.0001) hFacInf =   /* lower threshold for hFac (nonlinFreeSurf only)*/
(PID.TID 0000.0001)                 1.000000000000000E-01
(PID.TID 0000.0001)     ;
(PID.TID 0000.0001) hFacSup =   /* upper threshold for hFac (nonlinFreeSurf only)*/
(PID.TID 0000.0001)                 5.000000000000000E+00
(PID.TID 0000.0001)     ;
(PID.TID 0000.0001) select_rStar = /* r* Vertical coord. options (=0 r coord.; >0 uses r*)*/
(PID.TID 0000.0001)                       0
(PID.TID 0000.0001)     ;
(PID.TID 0000.0001) useRealFreshWaterFlux = /* Real Fresh Water Flux on/off flag*/
(PID.TID 0000.0001)                   T
(PID.TID 0000.0001)     ;
(PID.TID 0000.0001) temp_EvPrRn = /* Temp. of Evap/Prec/R (UNSET=use local T)(oC)*/
(PID.TID 0000.0001)                 0.000000000000000E+00
(PID.TID 0000.0001)     ;
(PID.TID 0000.0001) salt_EvPrRn = /* Salin. of Evap/Prec/R (UNSET=use local S)(psu)*/
(PID.TID 0000.0001)                 0.000000000000000E+00
(PID.TID 0000.0001)     ;
(PID.TID 0000.0001) selectAddFluid = /* option for mass source/sink of fluid (=0: off) */
(PID.TID 0000.0001)                       0
(PID.TID 0000.0001)     ;
(PID.TID 0000.0001) temp_addMass = /* Temp. of addMass array (UNSET=use local T)(oC)*/
(PID.TID 0000.0001)                 0.000000000000000E+00
(PID.TID 0000.0001)     ;
(PID.TID 0000.0001) salt_addMass = /* Salin. of addMass array (UNSET=use local S)(psu)*/
(PID.TID 0000.0001)                 0.000000000000000E+00
(PID.TID 0000.0001)     ;
(PID.TID 0000.0001) convertFW2Salt = /* convert F.W. Flux to Salt Flux (-1=use local S)(psu)*/
(PID.TID 0000.0001)                -1.000000000000000E+00
(PID.TID 0000.0001)     ;
(PID.TID 0000.0001) use3Dsolver = /* use 3-D pressure solver on/off flag */
(PID.TID 0000.0001)                   F
(PID.TID 0000.0001)     ;
(PID.TID 0000.0001) nonHydrostatic =  /* Non-Hydrostatic on/off flag */
(PID.TID 0000.0001)                   F
(PID.TID 0000.0001)     ;
(PID.TID 0000.0001) nh_Am2 = /* Non-Hydrostatic terms scaling factor */
(PID.TID 0000.0001)                 1.000000000000000E+00
(PID.TID 0000.0001)     ;
(PID.TID 0000.0001) implicitNHPress = /* Non-Hyd Pressure implicit factor (0-1)*/
(PID.TID 0000.0001)                 1.000000000000000E+00
(PID.TID 0000.0001)     ;
(PID.TID 0000.0001) selectNHfreeSurf = /* Non-Hyd (free-)Surface option */
(PID.TID 0000.0001)                       0
(PID.TID 0000.0001)     ;
(PID.TID 0000.0001) quasiHydrostatic = /* Quasi-Hydrostatic on/off flag */
(PID.TID 0000.0001)                   F
(PID.TID 0000.0001)     ;
(PID.TID 0000.0001) calc_wVelocity = /* vertical velocity calculation on/off flag */
(PID.TID 0000.0001)                   T
(PID.TID 0000.0001)     ;
(PID.TID 0000.0001) momStepping =  /* Momentum equation on/off flag */
(PID.TID 0000.0001)                   T
(PID.TID 0000.0001)     ;
(PID.TID 0000.0001) vectorInvariantMomentum= /* Vector-Invariant Momentum on/off */
(PID.TID 0000.0001)                   T
(PID.TID 0000.0001)     ;
(PID.TID 0000.0001) momAdvection =  /* Momentum advection on/off flag */
(PID.TID 0000.0001)                   T
(PID.TID 0000.0001)     ;
(PID.TID 0000.0001) momViscosity =  /* Momentum viscosity on/off flag */
(PID.TID 0000.0001)                   T
(PID.TID 0000.0001)     ;
(PID.TID 0000.0001) momImplVertAdv= /* Momentum implicit vert. advection on/off*/
(PID.TID 0000.0001)                   F
(PID.TID 0000.0001)     ;
(PID.TID 0000.0001) implicitViscosity = /* Implicit viscosity on/off flag */
(PID.TID 0000.0001)                   T
(PID.TID 0000.0001)     ;
(PID.TID 0000.0001) selectImplicitDrag= /* Implicit bot Drag options (0,1,2)*/
(PID.TID 0000.0001)                       0
(PID.TID 0000.0001)     0= Expl. ; 1= Impl. on provis. Vel ; 2= Fully Impl (with surf.P)
(PID.TID 0000.0001)     ;
(PID.TID 0000.0001) metricTerms =  /* metric-Terms on/off flag */
(PID.TID 0000.0001)                   F
(PID.TID 0000.0001)     ;
(PID.TID 0000.0001) useNHMTerms = /* Non-Hydrostatic Metric-Terms on/off */
(PID.TID 0000.0001)                   F
(PID.TID 0000.0001)     ;
(PID.TID 0000.0001) selectCoriMap = /* Coriolis Map options (0,1,2,3)*/
(PID.TID 0000.0001)                       2
(PID.TID 0000.0001)     0= f-Plane ; 1= Beta-Plane ; 2= Spherical ; 3= read from file
(PID.TID 0000.0001)     ;
(PID.TID 0000.0001) use3dCoriolis = /* 3-D Coriolis on/off flag */
(PID.TID 0000.0001)                   F
(PID.TID 0000.0001)     ;
(PID.TID 0000.0001) useCoriolis =  /* Coriolis on/off flag */
(PID.TID 0000.0001)                   T
(PID.TID 0000.0001)     ;
(PID.TID 0000.0001) useCDscheme =  /* CD scheme on/off flag */
(PID.TID 0000.0001)                   F
(PID.TID 0000.0001)     ;
(PID.TID 0000.0001) useEnergyConservingCoriolis= /* Flx-Form Coriolis scheme flag */
(PID.TID 0000.0001)                   F
(PID.TID 0000.0001)     ;
(PID.TID 0000.0001) useJamartWetPoints= /* Coriolis WetPoints method flag */
(PID.TID 0000.0001)                   F
(PID.TID 0000.0001)     ;
(PID.TID 0000.0001) useJamartMomAdv= /* V.I Non-linear terms Jamart flag */
(PID.TID 0000.0001)                   F
(PID.TID 0000.0001)     ;
(PID.TID 0000.0001) useAbsVorticity= /* V.I Works with f+zeta in Coriolis */
(PID.TID 0000.0001)                   F
(PID.TID 0000.0001)     ;
(PID.TID 0000.0001) selectVortScheme= /* V.I Scheme selector for Vorticity-Term */
(PID.TID 0000.0001)                       0
(PID.TID 0000.0001)    = 0 : enstrophy (Shallow-Water Eq.) conserving scheme by Sadourny, JAS 75
(PID.TID 0000.0001)    = 1 : same as 0 with modified hFac
(PID.TID 0000.0001)    = 2 : energy conserving scheme (used by Sadourny in JAS 75 paper)
(PID.TID 0000.0001)    = 3 : energy (general) and enstrophy (2D, nonDiv.) conserving scheme
(PID.TID 0000.0001)          from Sadourny (Burridge & Haseler, ECMWF Rep.4, 1977)
(PID.TID 0000.0001)     ;
(PID.TID 0000.0001) upwindVorticity= /* V.I Upwind bias vorticity flag */
(PID.TID 0000.0001)                   F
(PID.TID 0000.0001)     ;
(PID.TID 0000.0001) highOrderVorticity= /* V.I High order vort. advect. flag */
(PID.TID 0000.0001)                   T
(PID.TID 0000.0001)     ;
(PID.TID 0000.0001) upwindShear= /* V.I Upwind vertical Shear advection flag */
(PID.TID 0000.0001)                   F
(PID.TID 0000.0001)     ;
(PID.TID 0000.0001) selectKEscheme= /* V.I Kinetic Energy scheme selector */
(PID.TID 0000.0001)                       0
(PID.TID 0000.0001)     ;
(PID.TID 0000.0001) momForcing =  /* Momentum forcing on/off flag */
(PID.TID 0000.0001)                   T
(PID.TID 0000.0001)     ;
(PID.TID 0000.0001) momTidalForcing = /* Momentum Tidal forcing on/off flag */
(PID.TID 0000.0001)                   T
(PID.TID 0000.0001)     ;
(PID.TID 0000.0001) momPressureForcing =  /* Momentum pressure term on/off flag */
(PID.TID 0000.0001)                   T
(PID.TID 0000.0001)     ;
(PID.TID 0000.0001) implicitIntGravWave= /* Implicit Internal Gravity Wave flag */
(PID.TID 0000.0001)                   F
(PID.TID 0000.0001)     ;
(PID.TID 0000.0001) staggerTimeStep =    /* Stagger time stepping on/off flag */
(PID.TID 0000.0001)                   T
(PID.TID 0000.0001)     ;
(PID.TID 0000.0001) doResetHFactors = /* reset thickness factors @ each time-step */
(PID.TID 0000.0001)                   F
(PID.TID 0000.0001)     ;
(PID.TID 0000.0001) multiDimAdvection =  /* enable/disable Multi-Dim Advection */
(PID.TID 0000.0001)                   T
(PID.TID 0000.0001)     ;
(PID.TID 0000.0001) useMultiDimAdvec =   /* Multi-Dim Advection is/is-not used */
(PID.TID 0000.0001)                   T
(PID.TID 0000.0001)     ;
(PID.TID 0000.0001) implicitDiffusion = /* Implicit Diffusion on/off flag */
(PID.TID 0000.0001)                   T
(PID.TID 0000.0001)     ;
(PID.TID 0000.0001) tempStepping =  /* Temperature equation on/off flag */
(PID.TID 0000.0001)                   T
(PID.TID 0000.0001)     ;
(PID.TID 0000.0001) tempAdvection = /* Temperature advection on/off flag */
(PID.TID 0000.0001)                   T
(PID.TID 0000.0001)     ;
(PID.TID 0000.0001) tempImplVertAdv = /* Temp. implicit vert. advection on/off */
(PID.TID 0000.0001)                   F
(PID.TID 0000.0001)     ;
(PID.TID 0000.0001) tempForcing  =  /* Temperature forcing on/off flag */
(PID.TID 0000.0001)                   T
(PID.TID 0000.0001)     ;
(PID.TID 0000.0001) doThetaClimRelax = /* apply SST relaxation on/off flag */
(PID.TID 0000.0001)                   F
(PID.TID 0000.0001)     ;
(PID.TID 0000.0001) tempIsActiveTr = /* Temp. is a dynamically Active Tracer */
(PID.TID 0000.0001)                   T
(PID.TID 0000.0001)     ;
(PID.TID 0000.0001) saltStepping =  /* Salinity equation on/off flag */
(PID.TID 0000.0001)                   T
(PID.TID 0000.0001)     ;
(PID.TID 0000.0001) saltAdvection = /* Salinity advection on/off flag */
(PID.TID 0000.0001)                   T
(PID.TID 0000.0001)     ;
(PID.TID 0000.0001) saltImplVertAdv = /* Sali. implicit vert. advection on/off */
(PID.TID 0000.0001)                   F
(PID.TID 0000.0001)     ;
(PID.TID 0000.0001) saltForcing  =  /* Salinity forcing on/off flag */
(PID.TID 0000.0001)                   T
(PID.TID 0000.0001)     ;
(PID.TID 0000.0001) doSaltClimRelax = /* apply SSS relaxation on/off flag */
(PID.TID 0000.0001)                   F
(PID.TID 0000.0001)     ;
(PID.TID 0000.0001) saltIsActiveTr = /* Salt  is a dynamically Active Tracer */
(PID.TID 0000.0001)                   T
(PID.TID 0000.0001)     ;
(PID.TID 0000.0001)  readBinaryPrec = /* Precision used for reading binary files */
(PID.TID 0000.0001)                      32
(PID.TID 0000.0001)     ;
(PID.TID 0000.0001) writeBinaryPrec = /* Precision used for writing binary files */
(PID.TID 0000.0001)                      32
(PID.TID 0000.0001)     ;
(PID.TID 0000.0001)  rwSuffixType =   /* select format of mds file suffix */
(PID.TID 0000.0001)                       0
(PID.TID 0000.0001)    = 0 : myIter (I10.10) ;   = 1 : 100*myTime (100th sec) ;
(PID.TID 0000.0001)    = 2 : myTime (seconds);   = 3 : myTime/360 (10th of hr);
(PID.TID 0000.0001)    = 4 : myTime/3600 (hours)
(PID.TID 0000.0001)     ;
(PID.TID 0000.0001)  globalFiles = /* write "global" (=not per tile) files */
(PID.TID 0000.0001)                   T
(PID.TID 0000.0001)     ;
(PID.TID 0000.0001)  useSingleCpuIO = /* only master MPI process does I/O */
(PID.TID 0000.0001)                   T
(PID.TID 0000.0001)     ;
(PID.TID 0000.0001)  useSingleCpuInput = /* only master process reads input */
(PID.TID 0000.0001)                   T
(PID.TID 0000.0001)     ;
(PID.TID 0000.0001) /* debLev[*]  : level of debug & auxiliary message printing */
(PID.TID 0000.0001) debLevZero =  0 ; /* level of disabled aux. msg printing */
(PID.TID 0000.0001)    debLevA =  1 ; /* level of minimum  aux. msg printing */
(PID.TID 0000.0001)    debLevB =  2 ; /* level of low aux. print (report read-file opening)*/
(PID.TID 0000.0001)    debLevC =  3 ; /* level of moderate debug prt (most pkgs debug msg) */
(PID.TID 0000.0001)    debLevD =  4 ; /* level of enhanced debug prt (add DEBUG_STATS prt) */
(PID.TID 0000.0001)    debLevE =  5 ; /* level of extensive debug printing */
(PID.TID 0000.0001) debugLevel =  /* select debug printing level */
(PID.TID 0000.0001)                      -1
(PID.TID 0000.0001)     ;
(PID.TID 0000.0001)  plotLevel =  /* select PLOT_FIELD printing level */
(PID.TID 0000.0001)                      -1
(PID.TID 0000.0001)     ;
(PID.TID 0000.0001) //
(PID.TID 0000.0001) // Elliptic solver(s) paramters ( PARM02 in namelist )
(PID.TID 0000.0001) //
(PID.TID 0000.0001) cg2dMaxIters =   /* Upper limit on 2d con. grad iterations  */
(PID.TID 0000.0001)                     100
(PID.TID 0000.0001)     ;
(PID.TID 0000.0001) cg2dChkResFreq =   /* 2d con. grad convergence test frequency */
(PID.TID 0000.0001)                       1
(PID.TID 0000.0001)     ;
(PID.TID 0000.0001) cg2dUseMinResSol= /* use cg2d last-iter(=0) / min-resid.(=1) solution */
(PID.TID 0000.0001)                       0
(PID.TID 0000.0001)     ;
(PID.TID 0000.0001) cg2dTargetResidual =   /* 2d con. grad target residual  */
(PID.TID 0000.0001)                 1.000000000000000E-05
(PID.TID 0000.0001)     ;
(PID.TID 0000.0001) cg2dTargetResWunit =   /* CG2d target residual [W units] */
(PID.TID 0000.0001)                -1.000000000000000E+00
(PID.TID 0000.0001)     ;
(PID.TID 0000.0001) cg2dPreCondFreq =   /* Freq. for updating cg2d preconditioner */
(PID.TID 0000.0001)                       1
(PID.TID 0000.0001)     ;
(PID.TID 0000.0001) useSRCGSolver =  /* use single reduction CG solver(s) */
(PID.TID 0000.0001)                   F
(PID.TID 0000.0001)     ;
(PID.TID 0000.0001) printResidualFreq = /* Freq. for printing CG residual */
(PID.TID 0000.0001)                       0
(PID.TID 0000.0001)     ;
(PID.TID 0000.0001) //
(PID.TID 0000.0001) // Time stepping paramters ( PARM03 in namelist )
(PID.TID 0000.0001) //
(PID.TID 0000.0001) deltaTMom =   /* Momentum equation timestep ( s ) */
(PID.TID 0000.0001)                 4.500000000000000E+02
(PID.TID 0000.0001)     ;
(PID.TID 0000.0001) deltaTFreeSurf = /* FreeSurface equation timestep ( s ) */
(PID.TID 0000.0001)                 4.500000000000000E+02
(PID.TID 0000.0001)     ;
(PID.TID 0000.0001) dTtracerLev =  /* Tracer equation timestep ( s ) */
(PID.TID 0000.0001)    50 @  4.500000000000000E+02              /* K =  1: 50 */
(PID.TID 0000.0001)     ;
(PID.TID 0000.0001) deltaTClock  =   /* Model clock timestep ( s ) */
(PID.TID 0000.0001)                 4.500000000000000E+02
(PID.TID 0000.0001)     ;
(PID.TID 0000.0001) cAdjFreq =   /* Convective adjustment interval ( s ) */
(PID.TID 0000.0001)                 0.000000000000000E+00
(PID.TID 0000.0001)     ;
(PID.TID 0000.0001) momForcingOutAB = /* =1: take Momentum Forcing out of Adams-Bash. stepping */
(PID.TID 0000.0001)                       1
(PID.TID 0000.0001)     ;
(PID.TID 0000.0001) tracForcingOutAB = /* =1: take T,S,pTr Forcing out of Adams-Bash. stepping */
(PID.TID 0000.0001)                       1
(PID.TID 0000.0001)     ;
(PID.TID 0000.0001) momDissip_In_AB = /* put Dissipation Tendency in Adams-Bash. stepping */
(PID.TID 0000.0001)                   F
(PID.TID 0000.0001)     ;
(PID.TID 0000.0001) doAB_onGtGs = /* apply AB on Tendencies (rather than on T,S)*/
(PID.TID 0000.0001)                   T
(PID.TID 0000.0001)     ;
(PID.TID 0000.0001) abEps =   /* Adams-Bashforth-2 stabilizing weight */
(PID.TID 0000.0001)                 1.000000000000000E-01
(PID.TID 0000.0001)     ;
(PID.TID 0000.0001) applyExchUV_early = /* Apply EXCH to U,V earlier in time-step */
(PID.TID 0000.0001)                   F
(PID.TID 0000.0001)     ;
(PID.TID 0000.0001) pickupStrictlyMatch= /* stop if pickup do not strictly match */
(PID.TID 0000.0001)                   T
(PID.TID 0000.0001)     ;
(PID.TID 0000.0001) nIter0   =   /* Run starting timestep number */
(PID.TID 0000.0001)                  174588
(PID.TID 0000.0001)     ;
(PID.TID 0000.0001) nTimeSteps = /* Number of timesteps */
(PID.TID 0000.0001)                     384
(PID.TID 0000.0001)     ;
(PID.TID 0000.0001) nEndIter =   /* Run ending timestep number */
(PID.TID 0000.0001)                  174972
(PID.TID 0000.0001)     ;
(PID.TID 0000.0001) baseTime =   /* Model base time ( s ) */
(PID.TID 0000.0001)                 0.000000000000000E+00
(PID.TID 0000.0001)     ;
(PID.TID 0000.0001) startTime =  /* Run start time ( s ) */
(PID.TID 0000.0001)                 7.856460000000000E+07
(PID.TID 0000.0001)     ;
(PID.TID 0000.0001) endTime  =   /* Integration ending time ( s ) */
(PID.TID 0000.0001)                 7.873740000000000E+07
(PID.TID 0000.0001)     ;
(PID.TID 0000.0001) pChkPtFreq = /* Permanent restart/pickup file interval ( s ) */
(PID.TID 0000.0001)                 1.728000000000000E+05
(PID.TID 0000.0001)     ;
(PID.TID 0000.0001) chkPtFreq  = /* Rolling restart/pickup file interval ( s ) */
(PID.TID 0000.0001)                 1.728000000000000E+05
(PID.TID 0000.0001)     ;
(PID.TID 0000.0001) pickup_write_mdsio =   /* Model IO flag. */
(PID.TID 0000.0001)                   T
(PID.TID 0000.0001)     ;
(PID.TID 0000.0001) pickup_read_mdsio =   /* Model IO flag. */
(PID.TID 0000.0001)                   T
(PID.TID 0000.0001)     ;
(PID.TID 0000.0001) writePickupAtEnd =   /* Model IO flag. */
(PID.TID 0000.0001)                   T
(PID.TID 0000.0001)     ;
(PID.TID 0000.0001) dumpFreq =   /* Model state write out interval ( s ). */
(PID.TID 0000.0001)                 3.600000000000000E+03
(PID.TID 0000.0001)     ;
(PID.TID 0000.0001) dumpInitAndLast= /* write out Initial & Last iter. model state */
(PID.TID 0000.0001)                   T
(PID.TID 0000.0001)     ;
(PID.TID 0000.0001) snapshot_mdsio =   /* Model IO flag. */
(PID.TID 0000.0001)                   T
(PID.TID 0000.0001)     ;
(PID.TID 0000.0001) monitorFreq =   /* Monitor output interval ( s ). */
(PID.TID 0000.0001)                 6.000000000000000E+01
(PID.TID 0000.0001)     ;
(PID.TID 0000.0001) monitorSelect = /* select group of variables to monitor */
(PID.TID 0000.0001)                       3
(PID.TID 0000.0001)     ;
(PID.TID 0000.0001) monitor_stdio =   /* Model IO flag. */
(PID.TID 0000.0001)                   T
(PID.TID 0000.0001)     ;
(PID.TID 0000.0001) externForcingPeriod =   /* forcing period (s) */
(PID.TID 0000.0001)                 0.000000000000000E+00
(PID.TID 0000.0001)     ;
(PID.TID 0000.0001) externForcingCycle =   /* period of the cyle (s). */
(PID.TID 0000.0001)                 0.000000000000000E+00
(PID.TID 0000.0001)     ;
(PID.TID 0000.0001) tauThetaClimRelax =   /* relaxation time scale (s) */
(PID.TID 0000.0001)                 0.000000000000000E+00
(PID.TID 0000.0001)     ;
(PID.TID 0000.0001) tauSaltClimRelax =   /* relaxation time scale (s) */
(PID.TID 0000.0001)                 0.000000000000000E+00
(PID.TID 0000.0001)     ;
(PID.TID 0000.0001) latBandClimRelax =   /* max. Lat. where relaxation */
(PID.TID 0000.0001)                 1.800000000000000E+02
(PID.TID 0000.0001)     ;
(PID.TID 0000.0001) //
(PID.TID 0000.0001) // Gridding paramters ( PARM04 in namelist )
(PID.TID 0000.0001) //
(PID.TID 0000.0001) usingCartesianGrid = /* Cartesian coordinates flag ( True/False ) */
(PID.TID 0000.0001)                   F
(PID.TID 0000.0001)     ;
(PID.TID 0000.0001) usingCylindricalGrid = /* Cylindrical coordinates flag ( True/False ) */
(PID.TID 0000.0001)                   F
(PID.TID 0000.0001)     ;
(PID.TID 0000.0001) usingSphericalPolarGrid = /* Spherical coordinates flag ( True/False ) */
(PID.TID 0000.0001)                   F
(PID.TID 0000.0001)     ;
(PID.TID 0000.0001) usingCurvilinearGrid = /* Curvilinear coordinates flag ( True/False ) */
(PID.TID 0000.0001)                   T
(PID.TID 0000.0001)     ;
(PID.TID 0000.0001) useMin4hFacEdges = /* set hFacW,S as minimum of adjacent hFacC factor */
(PID.TID 0000.0001)                   F
(PID.TID 0000.0001)     ;
(PID.TID 0000.0001) interViscAr_pCell = /* account for partial-cell in interior vert. viscosity */
(PID.TID 0000.0001)                   F
(PID.TID 0000.0001)     ;
(PID.TID 0000.0001) interDiffKr_pCell = /* account for partial-cell in interior vert. diffusion */
(PID.TID 0000.0001)                   F
(PID.TID 0000.0001)     ;
(PID.TID 0000.0001) pCellMix_select = /* option to enhance mixing near surface & bottom */
(PID.TID 0000.0001)                       0
(PID.TID 0000.0001)     ;
(PID.TID 0000.0001) selectSigmaCoord = /* Hybrid-Sigma Vert. Coordinate option */
(PID.TID 0000.0001)                       0
(PID.TID 0000.0001)     ;
(PID.TID 0000.0001) rSigmaBnd = /* r/sigma transition ( units of r ==  m ) */
(PID.TID 0000.0001)                 1.234567000000000E+05
(PID.TID 0000.0001)     ;
(PID.TID 0000.0001) rkSign =   /* index orientation relative to vertical coordinate */
(PID.TID 0000.0001)                -1.000000000000000E+00
(PID.TID 0000.0001)     ;
(PID.TID 0000.0001) gravitySign = /* gravity orientation relative to vertical coordinate */
(PID.TID 0000.0001)                -1.000000000000000E+00
(PID.TID 0000.0001)     ;
(PID.TID 0000.0001) seaLev_Z =  /* reference height of sea-level [m] */
(PID.TID 0000.0001)                 0.000000000000000E+00
(PID.TID 0000.0001)     ;
(PID.TID 0000.0001) top_Pres =  /* reference pressure at the top [Pa] */
(PID.TID 0000.0001)                 0.000000000000000E+00
(PID.TID 0000.0001)     ;
(PID.TID 0000.0001) mass2rUnit = /* convert mass per unit area [kg/m2] to r-units [m] */
(PID.TID 0000.0001)                 9.732360097323601E-04
(PID.TID 0000.0001)     ;
(PID.TID 0000.0001) rUnit2mass = /* convert r-units [m] to mass per unit area [kg/m2] */
(PID.TID 0000.0001)                 1.027500000000000E+03
(PID.TID 0000.0001)     ;
(PID.TID 0000.0001) drC =   /* C spacing ( units of r ) */
(PID.TID 0000.0001)                 5.000000000000000E+00,      /* K =  1 */
(PID.TID 0000.0001)     6 @  1.000000000000000E+01,             /* K =  2:  7 */
(PID.TID 0000.0001)                 1.000500000000000E+01,      /* K =  8 */
(PID.TID 0000.0001)                 1.002000000000000E+01,      /* K =  9 */
(PID.TID 0000.0001)                 1.007000000000000E+01,      /* K = 10 */
(PID.TID 0000.0001)                 1.021500000000000E+01,      /* K = 11 */
(PID.TID 0000.0001)                 1.056000000000000E+01,      /* K = 12 */
(PID.TID 0000.0001)                 1.128000000000000E+01,      /* K = 13 */
(PID.TID 0000.0001)                 1.259000000000000E+01,      /* K = 14 */
(PID.TID 0000.0001)                 1.473000000000000E+01,      /* K = 15 */
(PID.TID 0000.0001)                 1.793000000000000E+01,      /* K = 16 */
(PID.TID 0000.0001)                 2.233500000000000E+01,      /* K = 17 */
(PID.TID 0000.0001)                 2.797500000000000E+01,      /* K = 18 */
(PID.TID 0000.0001)                 3.476000000000001E+01,      /* K = 19 */
(PID.TID 0000.0001)                 4.246000000000000E+01,      /* K = 20 */
(PID.TID 0000.0001)                 5.075000000000000E+01,      /* K = 21 */
(PID.TID 0000.0001)                 5.925000000000000E+01,      /* K = 22 */
(PID.TID 0000.0001)                 6.753999999999999E+01,      /* K = 23 */
(PID.TID 0000.0001)                 7.524000000000001E+01,      /* K = 24 */
(PID.TID 0000.0001)                 8.202500000000001E+01,      /* K = 25 */
(PID.TID 0000.0001)                 8.766500000000001E+01,      /* K = 26 */
(PID.TID 0000.0001)                 9.206999999999999E+01,      /* K = 27 */
(PID.TID 0000.0001)                 9.527000000000000E+01,      /* K = 28 */
(PID.TID 0000.0001)                 9.741499999999999E+01,      /* K = 29 */
(PID.TID 0000.0001)                 9.875000000000000E+01,      /* K = 30 */
(PID.TID 0000.0001)                 9.963000000000000E+01,      /* K = 31 */
(PID.TID 0000.0001)                 1.006700000000000E+02,      /* K = 32 */
(PID.TID 0000.0001)                 1.029450000000000E+02,      /* K = 33 */
(PID.TID 0000.0001)                 1.079450000000000E+02,      /* K = 34 */
(PID.TID 0000.0001)                 1.170800000000000E+02,      /* K = 35 */
(PID.TID 0000.0001)                 1.309600000000000E+02,      /* K = 36 */
(PID.TID 0000.0001)                 1.490150000000000E+02,      /* K = 37 */
(PID.TID 0000.0001)                 1.698850000000000E+02,      /* K = 38 */
(PID.TID 0000.0001)                 1.921900000000000E+02,      /* K = 39 */
(PID.TID 0000.0001)                 2.150250000000000E+02,      /* K = 40 */
(PID.TID 0000.0001)                 2.380000000000000E+02,      /* K = 41 */
(PID.TID 0000.0001)                 2.610000000000000E+02,      /* K = 42 */
(PID.TID 0000.0001)                 2.840000000000000E+02,      /* K = 43 */
(PID.TID 0000.0001)                 3.070000000000000E+02,      /* K = 44 */
(PID.TID 0000.0001)                 3.300000000000000E+02,      /* K = 45 */
(PID.TID 0000.0001)                 3.530000000000000E+02,      /* K = 46 */
(PID.TID 0000.0001)                 3.760000000000000E+02,      /* K = 47 */
(PID.TID 0000.0001)                 3.990000000000000E+02,      /* K = 48 */
(PID.TID 0000.0001)                 4.220000000000000E+02,      /* K = 49 */
(PID.TID 0000.0001)                 4.450000000000000E+02,      /* K = 50 */
(PID.TID 0000.0001)                 2.282500000000000E+02       /* K = 51 */
(PID.TID 0000.0001)     ;
(PID.TID 0000.0001) drF =   /* W spacing ( units of r ) */
(PID.TID 0000.0001)     7 @  1.000000000000000E+01,             /* K =  1:  7 */
(PID.TID 0000.0001)                 1.001000000000000E+01,      /* K =  8 */
(PID.TID 0000.0001)                 1.003000000000000E+01,      /* K =  9 */
(PID.TID 0000.0001)                 1.011000000000000E+01,      /* K = 10 */
(PID.TID 0000.0001)                 1.032000000000000E+01,      /* K = 11 */
(PID.TID 0000.0001)                 1.080000000000000E+01,      /* K = 12 */
(PID.TID 0000.0001)                 1.176000000000000E+01,      /* K = 13 */
(PID.TID 0000.0001)                 1.342000000000000E+01,      /* K = 14 */
(PID.TID 0000.0001)                 1.604000000000000E+01,      /* K = 15 */
(PID.TID 0000.0001)                 1.982000000000000E+01,      /* K = 16 */
(PID.TID 0000.0001)                 2.485000000000000E+01,      /* K = 17 */
(PID.TID 0000.0001)                 3.110000000000000E+01,      /* K = 18 */
(PID.TID 0000.0001)                 3.842000000000000E+01,      /* K = 19 */
(PID.TID 0000.0001)                 4.650000000000000E+01,      /* K = 20 */
(PID.TID 0000.0001)                 5.500000000000000E+01,      /* K = 21 */
(PID.TID 0000.0001)                 6.350000000000000E+01,      /* K = 22 */
(PID.TID 0000.0001)                 7.158000000000000E+01,      /* K = 23 */
(PID.TID 0000.0001)                 7.890000000000001E+01,      /* K = 24 */
(PID.TID 0000.0001)                 8.515000000000001E+01,      /* K = 25 */
(PID.TID 0000.0001)                 9.018000000000001E+01,      /* K = 26 */
(PID.TID 0000.0001)                 9.395999999999999E+01,      /* K = 27 */
(PID.TID 0000.0001)                 9.658000000000000E+01,      /* K = 28 */
(PID.TID 0000.0001)                 9.825000000000000E+01,      /* K = 29 */
(PID.TID 0000.0001)                 9.925000000000000E+01,      /* K = 30 */
(PID.TID 0000.0001)                 1.000100000000000E+02,      /* K = 31 */
(PID.TID 0000.0001)                 1.013300000000000E+02,      /* K = 32 */
(PID.TID 0000.0001)                 1.045600000000000E+02,      /* K = 33 */
(PID.TID 0000.0001)                 1.113300000000000E+02,      /* K = 34 */
(PID.TID 0000.0001)                 1.228300000000000E+02,      /* K = 35 */
(PID.TID 0000.0001)                 1.390900000000000E+02,      /* K = 36 */
(PID.TID 0000.0001)                 1.589400000000000E+02,      /* K = 37 */
(PID.TID 0000.0001)                 1.808300000000000E+02,      /* K = 38 */
(PID.TID 0000.0001)                 2.035500000000000E+02,      /* K = 39 */
(PID.TID 0000.0001)                 2.265000000000000E+02,      /* K = 40 */
(PID.TID 0000.0001)                 2.495000000000000E+02,      /* K = 41 */
(PID.TID 0000.0001)                 2.725000000000000E+02,      /* K = 42 */
(PID.TID 0000.0001)                 2.955000000000000E+02,      /* K = 43 */
(PID.TID 0000.0001)                 3.185000000000000E+02,      /* K = 44 */
(PID.TID 0000.0001)                 3.415000000000000E+02,      /* K = 45 */
(PID.TID 0000.0001)                 3.645000000000000E+02,      /* K = 46 */
(PID.TID 0000.0001)                 3.875000000000000E+02,      /* K = 47 */
(PID.TID 0000.0001)                 4.105000000000000E+02,      /* K = 48 */
(PID.TID 0000.0001)                 4.335000000000000E+02,      /* K = 49 */
(PID.TID 0000.0001)                 4.565000000000000E+02       /* K = 50 */
(PID.TID 0000.0001)     ;
(PID.TID 0000.0001) radius_fromHorizGrid = /* sphere Radius of input horiz. grid */
(PID.TID 0000.0001)                 6.370000000000000E+06
(PID.TID 0000.0001)     ;
(PID.TID 0000.0001) rSphere =  /* Radius ( ignored - cartesian, m - spherical ) */
(PID.TID 0000.0001)                 6.370000000000000E+06
(PID.TID 0000.0001)     ;
(PID.TID 0000.0001) deepAtmosphere = /* Deep/Shallow Atmosphere flag (True/False) */
(PID.TID 0000.0001)                   F
(PID.TID 0000.0001)     ;
(PID.TID 0000.0001) xC =  /* xC(:,1,:,1) : P-point X coord ( deg. or m if cartesian) */
(PID.TID 0000.0001)                -4.081468768806280E+01,      /* I =  1 */
(PID.TID 0000.0001)                -3.957104986057077E+01,      /* I =  2 */
(PID.TID 0000.0001)                -3.832217028656162E+01,      /* I =  3 */
(PID.TID 0000.0001)                -3.706844413107324E+01,      /* I =  4 */
(PID.TID 0000.0001)                -3.581028225779612E+01,      /* I =  5 */
(PID.TID 0000.0001)                -3.454811012006861E+01,      /* I =  6 */
(PID.TID 0000.0001)                -3.328236654497336E+01,      /* I =  7 */
(PID.TID 0000.0001)                -3.201350241727823E+01,      /* I =  8 */
(PID.TID 0000.0001)                -3.074197927113779E+01,      /* I =  9 */
(PID.TID 0000.0001)                -2.946826779826338E+01,      /* I = 10 */
(PID.TID 0000.0001)                -2.819284628214859E+01,      /* I = 11 */
(PID.TID 0000.0001)                -2.691619896217756E+01,      /* I = 12 */
(PID.TID 0000.0001)                -2.563881425705264E+01,      /* I = 13 */
(PID.TID 0000.0001)                -2.436118574294736E+01,      /* I = 14 */
(PID.TID 0000.0001)                -2.308380103782244E+01       /* I = 15 */
(PID.TID 0000.0001)     ;
(PID.TID 0000.0001) yC =  /* yC(1,:,1,:) : P-point Y coord ( deg. or m if cartesian) */
(PID.TID 0000.0001)                -8.146222940368236E+01,      /* J =  1 */
(PID.TID 0000.0001)                -8.113083815286421E+01,      /* J =  2 */
(PID.TID 0000.0001)                -8.079504828233755E+01,      /* J =  3 */
(PID.TID 0000.0001)                -8.045491317322768E+01,      /* J =  4 */
(PID.TID 0000.0001)                -8.011048280590389E+01,      /* J =  5 */
(PID.TID 0000.0001)                -7.976180430515704E+01,      /* J =  6 */
(PID.TID 0000.0001)                -7.940892240526760E+01,      /* J =  7 */
(PID.TID 0000.0001)                -7.905187984845006E+01,      /* J =  8 */
(PID.TID 0000.0001)                -7.869071772754813E+01,      /* J =  9 */
(PID.TID 0000.0001)                -7.832547578199167E+01,      /* J = 10 */
(PID.TID 0000.0001)                -7.795619265432416E+01,      /* J = 11 */
(PID.TID 0000.0001)                -7.758290611340497E+01,      /* J = 12 */
(PID.TID 0000.0001)                -7.720565324926896E+01,      /* J = 13 */
(PID.TID 0000.0001)                -7.682447064385434E+01,      /* J = 14 */
(PID.TID 0000.0001)                -7.643939452107085E+01       /* J = 15 */
(PID.TID 0000.0001)     ;
(PID.TID 0000.0001) rcoord = /* P-point R coordinate (  units of r ) */
(PID.TID 0000.0001)                -5.000000000000000E+00,      /* K =  1 */
(PID.TID 0000.0001)                -1.500000000000000E+01,      /* K =  2 */
(PID.TID 0000.0001)                -2.500000000000000E+01,      /* K =  3 */
(PID.TID 0000.0001)                -3.500000000000000E+01,      /* K =  4 */
(PID.TID 0000.0001)                -4.500000000000000E+01,      /* K =  5 */
(PID.TID 0000.0001)                -5.500000000000000E+01,      /* K =  6 */
(PID.TID 0000.0001)                -6.500000000000000E+01,      /* K =  7 */
(PID.TID 0000.0001)                -7.500500000000000E+01,      /* K =  8 */
(PID.TID 0000.0001)                -8.502499999999999E+01,      /* K =  9 */
(PID.TID 0000.0001)                -9.509500000000000E+01,      /* K = 10 */
(PID.TID 0000.0001)                -1.053100000000000E+02,      /* K = 11 */
(PID.TID 0000.0001)                -1.158700000000000E+02,      /* K = 12 */
(PID.TID 0000.0001)                -1.271500000000000E+02,      /* K = 13 */
(PID.TID 0000.0001)                -1.397400000000000E+02,      /* K = 14 */
(PID.TID 0000.0001)                -1.544700000000000E+02,      /* K = 15 */
(PID.TID 0000.0001)                -1.724000000000000E+02,      /* K = 16 */
(PID.TID 0000.0001)                -1.947350000000000E+02,      /* K = 17 */
(PID.TID 0000.0001)                -2.227100000000000E+02,      /* K = 18 */
(PID.TID 0000.0001)                -2.574700000000000E+02,      /* K = 19 */
(PID.TID 0000.0001)                -2.999300000000000E+02,      /* K = 20 */
(PID.TID 0000.0001)                -3.506800000000000E+02,      /* K = 21 */
(PID.TID 0000.0001)                -4.099300000000000E+02,      /* K = 22 */
(PID.TID 0000.0001)                -4.774700000000000E+02,      /* K = 23 */
(PID.TID 0000.0001)                -5.527100000000000E+02,      /* K = 24 */
(PID.TID 0000.0001)                -6.347350000000000E+02,      /* K = 25 */
(PID.TID 0000.0001)                -7.224000000000000E+02,      /* K = 26 */
(PID.TID 0000.0001)                -8.144700000000000E+02,      /* K = 27 */
(PID.TID 0000.0001)                -9.097400000000000E+02,      /* K = 28 */
(PID.TID 0000.0001)                -1.007155000000000E+03,      /* K = 29 */
(PID.TID 0000.0001)                -1.105905000000000E+03,      /* K = 30 */
(PID.TID 0000.0001)                -1.205535000000000E+03,      /* K = 31 */
(PID.TID 0000.0001)                -1.306205000000000E+03,      /* K = 32 */
(PID.TID 0000.0001)                -1.409150000000000E+03,      /* K = 33 */
(PID.TID 0000.0001)                -1.517095000000000E+03,      /* K = 34 */
(PID.TID 0000.0001)                -1.634175000000000E+03,      /* K = 35 */
(PID.TID 0000.0001)                -1.765135000000000E+03,      /* K = 36 */
(PID.TID 0000.0001)                -1.914150000000000E+03,      /* K = 37 */
(PID.TID 0000.0001)                -2.084035000000000E+03,      /* K = 38 */
(PID.TID 0000.0001)                -2.276225000000000E+03,      /* K = 39 */
(PID.TID 0000.0001)                -2.491250000000000E+03,      /* K = 40 */
(PID.TID 0000.0001)                -2.729250000000000E+03,      /* K = 41 */
(PID.TID 0000.0001)                -2.990250000000000E+03,      /* K = 42 */
(PID.TID 0000.0001)                -3.274250000000000E+03,      /* K = 43 */
(PID.TID 0000.0001)                -3.581250000000000E+03,      /* K = 44 */
(PID.TID 0000.0001)                -3.911250000000000E+03,      /* K = 45 */
(PID.TID 0000.0001)                -4.264250000000000E+03,      /* K = 46 */
(PID.TID 0000.0001)                -4.640250000000000E+03,      /* K = 47 */
(PID.TID 0000.0001)                -5.039250000000000E+03,      /* K = 48 */
(PID.TID 0000.0001)                -5.461250000000000E+03,      /* K = 49 */
(PID.TID 0000.0001)                -5.906250000000000E+03       /* K = 50 */
(PID.TID 0000.0001)     ;
(PID.TID 0000.0001) rF =   /* W-Interf. R coordinate (  units of r ) */
(PID.TID 0000.0001)                 0.000000000000000E+00,      /* K =  1 */
(PID.TID 0000.0001)                -1.000000000000000E+01,      /* K =  2 */
(PID.TID 0000.0001)                -2.000000000000000E+01,      /* K =  3 */
(PID.TID 0000.0001)                -3.000000000000000E+01,      /* K =  4 */
(PID.TID 0000.0001)                -4.000000000000000E+01,      /* K =  5 */
(PID.TID 0000.0001)                -5.000000000000000E+01,      /* K =  6 */
(PID.TID 0000.0001)                -6.000000000000000E+01,      /* K =  7 */
(PID.TID 0000.0001)                -7.000000000000000E+01,      /* K =  8 */
(PID.TID 0000.0001)                -8.001000000000001E+01,      /* K =  9 */
(PID.TID 0000.0001)                -9.004000000000001E+01,      /* K = 10 */
(PID.TID 0000.0001)                -1.001500000000000E+02,      /* K = 11 */
(PID.TID 0000.0001)                -1.104700000000000E+02,      /* K = 12 */
(PID.TID 0000.0001)                -1.212700000000000E+02,      /* K = 13 */
(PID.TID 0000.0001)                -1.330300000000000E+02,      /* K = 14 */
(PID.TID 0000.0001)                -1.464500000000000E+02,      /* K = 15 */
(PID.TID 0000.0001)                -1.624900000000000E+02,      /* K = 16 */
(PID.TID 0000.0001)                -1.823100000000000E+02,      /* K = 17 */
(PID.TID 0000.0001)                -2.071600000000000E+02,      /* K = 18 */
(PID.TID 0000.0001)                -2.382600000000000E+02,      /* K = 19 */
(PID.TID 0000.0001)                -2.766799999999999E+02,      /* K = 20 */
(PID.TID 0000.0001)                -3.231799999999999E+02,      /* K = 21 */
(PID.TID 0000.0001)                -3.781799999999999E+02,      /* K = 22 */
(PID.TID 0000.0001)                -4.416799999999999E+02,      /* K = 23 */
(PID.TID 0000.0001)                -5.132600000000000E+02,      /* K = 24 */
(PID.TID 0000.0001)                -5.921600000000000E+02,      /* K = 25 */
(PID.TID 0000.0001)                -6.773099999999999E+02,      /* K = 26 */
(PID.TID 0000.0001)                -7.674900000000000E+02,      /* K = 27 */
(PID.TID 0000.0001)                -8.614500000000000E+02,      /* K = 28 */
(PID.TID 0000.0001)                -9.580300000000001E+02,      /* K = 29 */
(PID.TID 0000.0001)                -1.056280000000000E+03,      /* K = 30 */
(PID.TID 0000.0001)                -1.155530000000000E+03,      /* K = 31 */
(PID.TID 0000.0001)                -1.255540000000000E+03,      /* K = 32 */
(PID.TID 0000.0001)                -1.356870000000000E+03,      /* K = 33 */
(PID.TID 0000.0001)                -1.461430000000000E+03,      /* K = 34 */
(PID.TID 0000.0001)                -1.572760000000000E+03,      /* K = 35 */
(PID.TID 0000.0001)                -1.695590000000000E+03,      /* K = 36 */
(PID.TID 0000.0001)                -1.834680000000000E+03,      /* K = 37 */
(PID.TID 0000.0001)                -1.993620000000000E+03,      /* K = 38 */
(PID.TID 0000.0001)                -2.174450000000000E+03,      /* K = 39 */
(PID.TID 0000.0001)                -2.378000000000000E+03,      /* K = 40 */
(PID.TID 0000.0001)                -2.604500000000000E+03,      /* K = 41 */
(PID.TID 0000.0001)                -2.854000000000000E+03,      /* K = 42 */
(PID.TID 0000.0001)                -3.126500000000000E+03,      /* K = 43 */
(PID.TID 0000.0001)                -3.422000000000000E+03,      /* K = 44 */
(PID.TID 0000.0001)                -3.740500000000000E+03,      /* K = 45 */
(PID.TID 0000.0001)                -4.082000000000000E+03,      /* K = 46 */
(PID.TID 0000.0001)                -4.446500000000000E+03,      /* K = 47 */
(PID.TID 0000.0001)                -4.834000000000000E+03,      /* K = 48 */
(PID.TID 0000.0001)                -5.244500000000000E+03,      /* K = 49 */
(PID.TID 0000.0001)                -5.678000000000000E+03,      /* K = 50 */
(PID.TID 0000.0001)                -6.134500000000000E+03       /* K = 51 */
(PID.TID 0000.0001)     ;
(PID.TID 0000.0001) deepFacC = /* deep-model grid factor @ cell-Center (-) */
(PID.TID 0000.0001)    50 @  1.000000000000000E+00              /* K =  1: 50 */
(PID.TID 0000.0001)     ;
(PID.TID 0000.0001) deepFacF = /* deep-model grid factor @ W-Interface (-) */
(PID.TID 0000.0001)    51 @  1.000000000000000E+00              /* K =  1: 51 */
(PID.TID 0000.0001)     ;
(PID.TID 0000.0001) rVel2wUnit = /* convert units: rVel -> wSpeed (=1 if z-coord)*/
(PID.TID 0000.0001)    51 @  1.000000000000000E+00              /* K =  1: 51 */
(PID.TID 0000.0001)     ;
(PID.TID 0000.0001) wUnit2rVel = /* convert units: wSpeed -> rVel (=1 if z-coord)*/
(PID.TID 0000.0001)    51 @  1.000000000000000E+00              /* K =  1: 51 */
(PID.TID 0000.0001)     ;
(PID.TID 0000.0001) dBdrRef = /* Vertical grad. of reference buoyancy [(m/s/r)^2] */
(PID.TID 0000.0001)     3 @  0.000000000000000E+00,             /* K =  1:  3 */
(PID.TID 0000.0001)                 2.710009878211941E-04,      /* K =  4 */
(PID.TID 0000.0001)     2 @  0.000000000000000E+00,             /* K =  5:  6 */
(PID.TID 0000.0001)                 2.636625418269014E-04,      /* K =  7 */
(PID.TID 0000.0001)                 2.558031727841269E-04,      /* K =  8 */
(PID.TID 0000.0001)                 0.000000000000000E+00,      /* K =  9 */
(PID.TID 0000.0001)                 2.465097609409217E-04,      /* K = 10 */
(PID.TID 0000.0001)                 2.352100435611475E-04,      /* K = 11 */
(PID.TID 0000.0001)                 0.000000000000000E+00,      /* K = 12 */
(PID.TID 0000.0001)                 2.059824810681317E-04,      /* K = 13 */
(PID.TID 0000.0001)                 1.780333657351851E-04,      /* K = 14 */
(PID.TID 0000.0001)                 0.000000000000000E+00,      /* K = 15 */
(PID.TID 0000.0001)                 1.205267729858628E-04,      /* K = 16 */
(PID.TID 0000.0001)                 9.301885331159507E-05,      /* K = 17 */
(PID.TID 0000.0001)                 7.126049663232381E-05,      /* K = 18 */
(PID.TID 0000.0001)                 5.492180008088694E-05,      /* K = 19 */
(PID.TID 0000.0001)                 4.297011162312342E-05,      /* K = 20 */
(PID.TID 0000.0001)                 6.668082313416848E-05,      /* K = 21 */
(PID.TID 0000.0001)                 0.000000000000000E+00,      /* K = 22 */
(PID.TID 0000.0001)                 2.326903218052740E-05,      /* K = 23 */
(PID.TID 0000.0001)                 1.977341620137575E-05,      /* K = 24 */
(PID.TID 0000.0001)                 1.711721017074719E-05,      /* K = 25 */
(PID.TID 0000.0001)                 0.000000000000000E+00,      /* K = 26 */
(PID.TID 0000.0001)                 1.457272127111402E-05,      /* K = 27 */
(PID.TID 0000.0001)                 0.000000000000000E+00,      /* K = 28 */
(PID.TID 0000.0001)                 1.316856539126343E-05,      /* K = 29 */
(PID.TID 0000.0001)     2 @  0.000000000000000E+00,             /* K = 30: 31 */
(PID.TID 0000.0001)                 1.242324286947067E-05,      /* K = 32 */
(PID.TID 0000.0001)     2 @  0.000000000000000E+00,             /* K = 33: 34 */
(PID.TID 0000.0001)                 1.046164470422772E-05,      /* K = 35 */
(PID.TID 0000.0001)     3 @  0.000000000000000E+00,             /* K = 36: 38 */
(PID.TID 0000.0001)                 6.634176617958632E-06,      /* K = 39 */
(PID.TID 0000.0001)    11 @  0.000000000000000E+00              /* K = 40: 50 */
(PID.TID 0000.0001)     ;
(PID.TID 0000.0001) rotateGrid = /* use rotated grid ( True/False ) */
(PID.TID 0000.0001)                   F
(PID.TID 0000.0001)     ;
(PID.TID 0000.0001) phiEuler = /* Euler angle, rotation about original z-coordinate [rad] */
(PID.TID 0000.0001)                 0.000000000000000E+00
(PID.TID 0000.0001)     ;
(PID.TID 0000.0001) thetaEuler = /* Euler angle, rotation about new x-coordinate [rad] */
(PID.TID 0000.0001)                 0.000000000000000E+00
(PID.TID 0000.0001)     ;
(PID.TID 0000.0001) psiEuler = /* Euler angle, rotation about new z-coordinate [rad] */
(PID.TID 0000.0001)                 0.000000000000000E+00
(PID.TID 0000.0001)     ;
(PID.TID 0000.0001) dxF =  /* dxF(:,1,:,1) ( units: m ) */
(PID.TID 0000.0001)                 2.071152825743187E+04,      /* I =  1 */
(PID.TID 0000.0001)                 2.070365142756831E+04,      /* I =  2 */
(PID.TID 0000.0001)                 2.069635296570141E+04,      /* I =  3 */
(PID.TID 0000.0001)                 2.068965358413176E+04,      /* I =  4 */
(PID.TID 0000.0001)                 2.068357195583360E+04,      /* I =  5 */
(PID.TID 0000.0001)                 2.067812475356784E+04,      /* I =  6 */
(PID.TID 0000.0001)                 2.067332670125947E+04,      /* I =  7 */
(PID.TID 0000.0001)                 2.066919060389092E+04,      /* I =  8 */
(PID.TID 0000.0001)                 2.066572738985245E+04,      /* I =  9 */
(PID.TID 0000.0001)                 2.066294615597989E+04,      /* I = 10 */
(PID.TID 0000.0001)                 2.066085425372315E+04,      /* I = 11 */
(PID.TID 0000.0001)                 2.065945771525925E+04,      /* I = 12 */
(PID.TID 0000.0001)                 2.065874381268158E+04,      /* I = 13 */
(PID.TID 0000.0001)                 2.065874381268158E+04,      /* I = 14 */
(PID.TID 0000.0001)                 2.065945771525925E+04       /* I = 15 */
(PID.TID 0000.0001)     ;
(PID.TID 0000.0001) dxF =  /* dxF(1,:,1,:) ( units: m ) */
(PID.TID 0000.0001)                 2.071152825743187E+04,      /* J =  1 */
(PID.TID 0000.0001)                 2.109117491456033E+04,      /* J =  2 */
(PID.TID 0000.0001)                 2.148525648961724E+04,      /* J =  3 */
(PID.TID 0000.0001)                 2.189377348588603E+04,      /* J =  4 */
(PID.TID 0000.0001)                 2.231672440915243E+04,      /* J =  5 */
(PID.TID 0000.0001)                 2.275410689480659E+04,      /* J =  6 */
(PID.TID 0000.0001)                 2.320591873318126E+04,      /* J =  7 */
(PID.TID 0000.0001)                 2.367215879054831E+04,      /* J =  8 */
(PID.TID 0000.0001)                 2.415282782538908E+04,      /* J =  9 */
(PID.TID 0000.0001)                 2.464792920101809E+04,      /* J = 10 */
(PID.TID 0000.0001)                 2.515746949702995E+04,      /* J = 11 */
(PID.TID 0000.0001)                 2.568145902315334E+04,      /* J = 12 */
(PID.TID 0000.0001)                 2.621991223981432E+04,      /* J = 13 */
(PID.TID 0000.0001)                 2.677284809033052E+04,      /* J = 14 */
(PID.TID 0000.0001)                 2.734029025013979E+04       /* J = 15 */
(PID.TID 0000.0001)     ;
(PID.TID 0000.0001) dyF =  /* dyF(:,1,:,1) ( units: m ) */
(PID.TID 0000.0001)                 3.700742300337598E+04,      /* I =  1 */
(PID.TID 0000.0001)                 3.707905556394973E+04,      /* I =  2 */
(PID.TID 0000.0001)                 3.714471828319018E+04,      /* I =  3 */
(PID.TID 0000.0001)                 3.720441078960103E+04,      /* I =  4 */
(PID.TID 0000.0001)                 3.725813297080282E+04,      /* I =  5 */
(PID.TID 0000.0001)                 3.730588490725751E+04,      /* I =  6 */
(PID.TID 0000.0001)                 3.734766681359038E+04,      /* I =  7 */
(PID.TID 0000.0001)                 3.738347898712025E+04,      /* I =  8 */
(PID.TID 0000.0001)                 3.741332176340629E+04,      /* I =  9 */
(PID.TID 0000.0001)                 3.743719547859261E+04,      /* I = 10 */
(PID.TID 0000.0001)                 3.745510043824806E+04,      /* I = 11 */
(PID.TID 0000.0001)                 3.746703689267323E+04,      /* I = 12 */
(PID.TID 0000.0001)     2 @  3.747300501832417E+04,             /* I = 13: 14 */
(PID.TID 0000.0001)                 3.746703689267323E+04       /* I = 15 */
(PID.TID 0000.0001)     ;
(PID.TID 0000.0001) dyF =  /* dyF(1,:,1,:) ( units: m ) */
(PID.TID 0000.0001)                 3.700742300337598E+04,      /* J =  1 */
(PID.TID 0000.0001)                 3.745555642044499E+04,      /* J =  2 */
(PID.TID 0000.0001)                 3.790206217653974E+04,      /* J =  3 */
(PID.TID 0000.0001)                 3.834684105117956E+04,      /* J =  4 */
(PID.TID 0000.0001)                 3.878979459357282E+04,      /* J =  5 */
(PID.TID 0000.0001)                 3.923082521328924E+04,      /* J =  6 */
(PID.TID 0000.0001)                 3.966983623246408E+04,      /* J =  7 */
(PID.TID 0000.0001)                 4.010673190475840E+04,      /* J =  8 */
(PID.TID 0000.0001)                 4.054141740950450E+04,      /* J =  9 */
(PID.TID 0000.0001)                 4.097379882434454E+04,      /* J = 10 */
(PID.TID 0000.0001)                 4.140378308084428E+04,      /* J = 11 */
(PID.TID 0000.0001)                 4.183127790875583E+04,      /* J = 12 */
(PID.TID 0000.0001)                 4.225619177206317E+04,      /* J = 13 */
(PID.TID 0000.0001)                 4.267843379867976E+04,      /* J = 14 */
(PID.TID 0000.0001)                 4.309791371221616E+04       /* J = 15 */
(PID.TID 0000.0001)     ;
(PID.TID 0000.0001) dxG =  /* dxG(:,1,:,1) ( units: m ) */
(PID.TID 0000.0001)                 2.052711702021451E+04,      /* I =  1 */
(PID.TID 0000.0001)                 2.051953983526162E+04,      /* I =  2 */
(PID.TID 0000.0001)                 2.051251425926268E+04,      /* I =  3 */
(PID.TID 0000.0001)                 2.050606148013825E+04,      /* I =  4 */
(PID.TID 0000.0001)                 2.050020059906299E+04,      /* I =  5 */
(PID.TID 0000.0001)                 2.049494867086169E+04,      /* I =  6 */
(PID.TID 0000.0001)                 2.049032075633103E+04,      /* I =  7 */
(PID.TID 0000.0001)                 2.048632995314923E+04,      /* I =  8 */
(PID.TID 0000.0001)                 2.048298743895549E+04,      /* I =  9 */
(PID.TID 0000.0001)                 2.048030251694177E+04,      /* I = 10 */
(PID.TID 0000.0001)                 2.047828270203973E+04,      /* I = 11 */
(PID.TID 0000.0001)                 2.047693414389448E+04,      /* I = 12 */
(PID.TID 0000.0001)     2 @  2.047624433858785E+04,             /* I = 13: 14 */
(PID.TID 0000.0001)                 2.047693414389443E+04       /* I = 15 */
(PID.TID 0000.0001)     ;
(PID.TID 0000.0001) dxG =  /* dxG(1,:,1,:) ( units: m ) */
(PID.TID 0000.0001)                 2.052711702021451E+04,      /* J =  1 */
(PID.TID 0000.0001)                 2.089954736357391E+04,      /* J =  2 */
(PID.TID 0000.0001)                 2.128641124518697E+04,      /* J =  3 */
(PID.TID 0000.0001)                 2.168771062037700E+04,      /* J =  4 */
(PID.TID 0000.0001)                 2.210344484655194E+04,      /* J =  5 */
(PID.TID 0000.0001)                 2.253361185972884E+04,      /* J =  6 */
(PID.TID 0000.0001)                 2.297820925105574E+04,      /* J =  7 */
(PID.TID 0000.0001)                 2.343723524028478E+04,      /* J =  8 */
(PID.TID 0000.0001)                 2.391068954427550E+04,      /* J =  9 */
(PID.TID 0000.0001)                 2.439857414125275E+04,      /* J = 10 */
(PID.TID 0000.0001)                 2.490089393241153E+04,      /* J = 11 */
(PID.TID 0000.0001)                 2.541765730414359E+04,      /* J = 12 */
(PID.TID 0000.0001)                 2.594887659459613E+04,      /* J = 13 */
(PID.TID 0000.0001)                 2.649456846940333E+04,      /* J = 14 */
(PID.TID 0000.0001)                 2.705475421181358E+04       /* J = 15 */
(PID.TID 0000.0001)     ;
(PID.TID 0000.0001) dyG =  /* dyG(:,1,:,1) ( units: m ) */
(PID.TID 0000.0001)                 3.696936823759973E+04,      /* I =  1 */
(PID.TID 0000.0001)                 3.704398547852144E+04,      /* I =  2 */
(PID.TID 0000.0001)                 3.711263318385338E+04,      /* I =  3 */
(PID.TID 0000.0001)                 3.717531082528212E+04,      /* I =  4 */
(PID.TID 0000.0001)                 3.723201816961422E+04,      /* I =  5 */
(PID.TID 0000.0001)                 3.728275520872145E+04,      /* I =  6 */
(PID.TID 0000.0001)                 3.732752209699158E+04,      /* I =  7 */
(PID.TID 0000.0001)                 3.736631909640826E+04,      /* I =  8 */
(PID.TID 0000.0001)                 3.739914652852553E+04,      /* I =  9 */
(PID.TID 0000.0001)                 3.742600473350589E+04,      /* I = 10 */
(PID.TID 0000.0001)                 3.744689403567852E+04,      /* I = 11 */
(PID.TID 0000.0001)                 3.746181471567877E+04,      /* I = 12 */
(PID.TID 0000.0001)                 3.747076698884368E+04,      /* I = 13 */
(PID.TID 0000.0001)                 3.747376174977726E+04,      /* I = 14 */
(PID.TID 0000.0001)                 3.747076698884368E+04       /* I = 15 */
(PID.TID 0000.0001)     ;
(PID.TID 0000.0001) dyG =  /* dyG(1,:,1,:) ( units: m ) */
(PID.TID 0000.0001)                 3.696936823759973E+04,      /* J =  1 */
(PID.TID 0000.0001)                 3.741746190559281E+04,      /* J =  2 */
(PID.TID 0000.0001)                 3.786390067184393E+04,      /* J =  3 */
(PID.TID 0000.0001)                 3.830858172733455E+04,      /* J =  4 */
(PID.TID 0000.0001)                 3.875140319955796E+04,      /* J =  5 */
(PID.TID 0000.0001)                 3.919226424948571E+04,      /* J =  6 */
(PID.TID 0000.0001)                 3.963106512715793E+04,      /* J =  7 */
(PID.TID 0000.0001)                 4.006770719102380E+04,      /* J =  8 */
(PID.TID 0000.0001)                 4.050209290047463E+04,      /* J =  9 */
(PID.TID 0000.0001)                 4.093412578484027E+04,      /* J = 10 */
(PID.TID 0000.0001)                 4.136371039407872E+04,      /* J = 11 */
(PID.TID 0000.0001)                 4.179075223673176E+04,      /* J = 12 */
(PID.TID 0000.0001)                 4.221515770920290E+04,      /* J = 13 */
(PID.TID 0000.0001)                 4.263683401805614E+04,      /* J = 14 */
(PID.TID 0000.0001)                 4.305568910412182E+04       /* J = 15 */
(PID.TID 0000.0001)     ;
(PID.TID 0000.0001) dxC =  /* dxC(:,1,:,1) ( units: m ) */
(PID.TID 0000.0001)                 2.071567651695695E+04,      /* I =  1 */
(PID.TID 0000.0001)                 2.070751892245589E+04,      /* I =  2 */
(PID.TID 0000.0001)                 2.069992855779408E+04,      /* I =  3 */
(PID.TID 0000.0001)                 2.069292717562287E+04,      /* I =  4 */
(PID.TID 0000.0001)                 2.068653446229046E+04,      /* I =  5 */
(PID.TID 0000.0001)                 2.068076808552306E+04,      /* I =  6 */
(PID.TID 0000.0001)                 2.067564373903614E+04,      /* I =  7 */
(PID.TID 0000.0001)                 2.067117518190149E+04,      /* I =  8 */
(PID.TID 0000.0001)                 2.066737427558298E+04,      /* I =  9 */
(PID.TID 0000.0001)                 2.066425102685107E+04,      /* I = 10 */
(PID.TID 0000.0001)                 2.066181364132844E+04,      /* I = 11 */
(PID.TID 0000.0001)                 2.066006869803818E+04,      /* I = 12 */
(PID.TID 0000.0001)                 2.065902266229015E+04,      /* I = 13 */
(PID.TID 0000.0001)                 2.065863826775786E+04,      /* I = 14 */
(PID.TID 0000.0001)                 2.065902266229016E+04       /* I = 15 */
(PID.TID 0000.0001)     ;
(PID.TID 0000.0001) dxC =  /* dxC(1,:,1,:) ( units: m ) */
(PID.TID 0000.0001)                 2.071567651695695E+04,      /* J =  1 */
(PID.TID 0000.0001)                 2.109563672137949E+04,      /* J =  2 */
(PID.TID 0000.0001)                 2.149002149497106E+04,      /* J =  3 */
(PID.TID 0000.0001)                 2.189882927482529E+04,      /* J =  4 */
(PID.TID 0000.0001)                 2.232205646389843E+04,      /* J =  5 */
(PID.TID 0000.0001)                 2.275969855854128E+04,      /* J =  6 */
(PID.TID 0000.0001)                 2.321175117362029E+04,      /* J =  7 */
(PID.TID 0000.0001)                 2.367821096276529E+04,      /* J =  8 */
(PID.TID 0000.0001)                 2.415907643347346E+04,      /* J =  9 */
(PID.TID 0000.0001)                 2.465434865814045E+04,      /* J = 10 */
(PID.TID 0000.0001)                 2.516403188365780E+04,      /* J = 11 */
(PID.TID 0000.0001)                 2.568813404310613E+04,      /* J = 12 */
(PID.TID 0000.0001)                 2.622666717399572E+04,      /* J = 13 */
(PID.TID 0000.0001)                 2.677964774799169E+04,      /* J = 14 */
(PID.TID 0000.0001)                 2.734709691757753E+04       /* J = 15 */
(PID.TID 0000.0001)     ;
(PID.TID 0000.0001) dyC =  /* dyC(:,1,:,1) ( units: m ) */
(PID.TID 0000.0001)                 3.678277710845771E+04,      /* I =  1 */
(PID.TID 0000.0001)                 3.685438685866048E+04,      /* I =  2 */
(PID.TID 0000.0001)                 3.692002588020908E+04,      /* I =  3 */
(PID.TID 0000.0001)                 3.697969453541307E+04,      /* I =  4 */
(PID.TID 0000.0001)                 3.703339337607873E+04,      /* I =  5 */
(PID.TID 0000.0001)                 3.708112307814123E+04,      /* I =  6 */
(PID.TID 0000.0001)                 3.712288438364359E+04,      /* I =  7 */
(PID.TID 0000.0001)                 3.715867804995441E+04,      /* I =  8 */
(PID.TID 0000.0001)                 3.718850480589901E+04,      /* I =  9 */
(PID.TID 0000.0001)                 3.721236531452968E+04,      /* I = 10 */
(PID.TID 0000.0001)                 3.723026014246432E+04,      /* I = 11 */
(PID.TID 0000.0001)                 3.724218973548726E+04,      /* I = 12 */
(PID.TID 0000.0001)     2 @  3.724815440020872E+04,             /* I = 13: 14 */
(PID.TID 0000.0001)                 3.724218973548726E+04       /* I = 15 */
(PID.TID 0000.0001)     ;
(PID.TID 0000.0001) dyC =  /* dyC(1,:,1,:) ( units: m ) */
(PID.TID 0000.0001)                 3.678277710845771E+04,      /* J =  1 */
(PID.TID 0000.0001)                 3.723168694115569E+04,      /* J =  2 */
(PID.TID 0000.0001)                 3.767901897410101E+04,      /* J =  3 */
(PID.TID 0000.0001)                 3.812467364657602E+04,      /* J =  4 */
(PID.TID 0000.0001)                 3.856855210935249E+04,      /* J =  5 */
(PID.TID 0000.0001)                 3.901055633269680E+04,      /* J =  6 */
(PID.TID 0000.0001)                 3.945058917911859E+04,      /* J =  7 */
(PID.TID 0000.0001)                 3.988855443472220E+04,      /* J =  8 */
(PID.TID 0000.0001)                 4.032435681898361E+04,      /* J =  9 */
(PID.TID 0000.0001)                 4.075790196435841E+04,      /* J = 10 */
(PID.TID 0000.0001)                 4.118909638222960E+04,      /* J = 11 */
(PID.TID 0000.0001)                 4.161784741043697E+04,      /* J = 12 */
(PID.TID 0000.0001)                 4.204406315499045E+04,      /* J = 13 */
(PID.TID 0000.0001)                 4.246765242091182E+04,      /* J = 14 */
(PID.TID 0000.0001)                 4.288852464034393E+04       /* J = 15 */
(PID.TID 0000.0001)     ;
(PID.TID 0000.0001) dxV =  /* dxV(:,1,:,1) ( units: m ) */
(PID.TID 0000.0001)                 2.053110526075532E+04,      /* I =  1 */
(PID.TID 0000.0001)                 2.052326088418283E+04,      /* I =  2 */
(PID.TID 0000.0001)                 2.051595672244828E+04,      /* I =  3 */
(PID.TID 0000.0001)                 2.050921502797681E+04,      /* I =  4 */
(PID.TID 0000.0001)                 2.050305593886370E+04,      /* I =  5 */
(PID.TID 0000.0001)                 2.049749752783181E+04,      /* I =  6 */
(PID.TID 0000.0001)                 2.049255584793284E+04,      /* I =  7 */
(PID.TID 0000.0001)                 2.048824497292525E+04,      /* I =  8 */
(PID.TID 0000.0001)                 2.048457703515834E+04,      /* I =  9 */
(PID.TID 0000.0001)                 2.048156226915133E+04,      /* I = 10 */
(PID.TID 0000.0001)                 2.047920906551970E+04,      /* I = 11 */
(PID.TID 0000.0001)                 2.047752414469434E+04,      /* I = 12 */
(PID.TID 0000.0001)                 2.047651405696554E+04,      /* I = 13 */
(PID.TID 0000.0001)                 2.047614194664622E+04,      /* I = 14 */
(PID.TID 0000.0001)                 2.047651405696559E+04       /* I = 15 */
(PID.TID 0000.0001)     ;
(PID.TID 0000.0001) dxV =  /* dxV(1,:,1,:) ( units: m ) */
(PID.TID 0000.0001)                 2.053110526075532E+04,      /* J =  1 */
(PID.TID 0000.0001)                 2.090385356266093E+04,      /* J =  2 */
(PID.TID 0000.0001)                 2.129102607314009E+04,      /* J =  3 */
(PID.TID 0000.0001)                 2.169262269996662E+04,      /* J =  4 */
(PID.TID 0000.0001)                 2.210864071595607E+04,      /* J =  5 */
(PID.TID 0000.0001)                 2.253907593617405E+04,      /* J =  6 */
(PID.TID 0000.0001)                 2.298392379458377E+04,      /* J =  7 */
(PID.TID 0000.0001)                 2.344318031700113E+04,      /* J =  8 */
(PID.TID 0000.0001)                 2.391684298864163E+04,      /* J =  9 */
(PID.TID 0000.0001)                 2.440491151699962E+04,      /* J = 10 */
(PID.TID 0000.0001)                 2.490738849171163E+04,      /* J = 11 */
(PID.TID 0000.0001)                 2.542427994477456E+04,      /* J = 12 */
(PID.TID 0000.0001)                 2.595559581485789E+04,      /* J = 13 */
(PID.TID 0000.0001)                 2.650135032062733E+04,      /* J = 14 */
(PID.TID 0000.0001)                 2.706156224833991E+04       /* J = 15 */
(PID.TID 0000.0001)     ;
(PID.TID 0000.0001) dyU =  /* dyU(:,1,:,1) ( units: m ) */
(PID.TID 0000.0001)                 3.674473316658630E+04,      /* I =  1 */
(PID.TID 0000.0001)                 3.681932833792822E+04,      /* I =  2 */
(PID.TID 0000.0001)                 3.688795269313092E+04,      /* I =  3 */
(PID.TID 0000.0001)                 3.695060647275718E+04,      /* I =  4 */
(PID.TID 0000.0001)                 3.700729014250917E+04,      /* I =  5 */
(PID.TID 0000.0001)                 3.705800432398131E+04,      /* I =  6 */
(PID.TID 0000.0001)                 3.710274973294064E+04,      /* I =  7 */
(PID.TID 0000.0001)                 3.714152712500728E+04,      /* I =  8 */
(PID.TID 0000.0001)                 3.717433724834998E+04,      /* I =  9 */
(PID.TID 0000.0001)                 3.720118080314009E+04,      /* I = 10 */
(PID.TID 0000.0001)                 3.722205840764935E+04,      /* I = 11 */
(PID.TID 0000.0001)                 3.723697057073888E+04,      /* I = 12 */
(PID.TID 0000.0001)                 3.724591767054543E+04,      /* I = 13 */
(PID.TID 0000.0001)                 3.724891083990022E+04,      /* I = 14 */
(PID.TID 0000.0001)                 3.724591767054542E+04       /* I = 15 */
(PID.TID 0000.0001)     ;
(PID.TID 0000.0001) dyU =  /* dyU(1,:,1,:) ( units: m ) */
(PID.TID 0000.0001)                 3.674473316658630E+04,      /* J =  1 */
(PID.TID 0000.0001)                 3.719361547538896E+04,      /* J =  2 */
(PID.TID 0000.0001)                 3.764089459751266E+04,      /* J =  3 */
(PID.TID 0000.0001)                 3.808646730382765E+04,      /* J =  4 */
(PID.TID 0000.0001)                 3.853023123895088E+04,      /* J =  5 */
(PID.TID 0000.0001)                 3.897208503739593E+04,      /* J =  6 */
(PID.TID 0000.0001)                 3.941192840112046E+04,      /* J =  7 */
(PID.TID 0000.0001)                 3.984966213263487E+04,      /* J =  8 */
(PID.TID 0000.0001)                 4.028518814419441E+04,      /* J =  9 */
(PID.TID 0000.0001)                 4.071840943468107E+04,      /* J = 10 */
(PID.TID 0000.0001)                 4.114923005120406E+04,      /* J = 11 */
(PID.TID 0000.0001)                 4.157755503103340E+04,      /* J = 12 */
(PID.TID 0000.0001)                 4.200329033666767E+04,      /* J = 13 */
(PID.TID 0000.0001)                 4.242634277960793E+04,      /* J = 14 */
(PID.TID 0000.0001)                 4.284661994092684E+04       /* J = 15 */
(PID.TID 0000.0001)     ;
(PID.TID 0000.0001) rA  =  /* rA (:,1,:,1) ( units: m^2 ) */
(PID.TID 0000.0001)                 7.665113621396177E+08,      /* I =  1 */
(PID.TID 0000.0001)                 7.677029697239892E+08,      /* I =  2 */
(PID.TID 0000.0001)                 7.687913877455838E+08,      /* I =  3 */
(PID.TID 0000.0001)                 7.697775979751738E+08,      /* I =  4 */
(PID.TID 0000.0001)                 7.706625466485583E+08,      /* I =  5 */
(PID.TID 0000.0001)                 7.714470546020026E+08,      /* I =  6 */
(PID.TID 0000.0001)                 7.721318586456149E+08,      /* I =  7 */
(PID.TID 0000.0001)                 7.727176271684608E+08,      /* I =  8 */
(PID.TID 0000.0001)                 7.732049082776864E+08,      /* I =  9 */
(PID.TID 0000.0001)                 7.735941717305043E+08,      /* I = 10 */
(PID.TID 0000.0001)                 7.738858051500469E+08,      /* I = 11 */
(PID.TID 0000.0001)                 7.740801100790358E+08,      /* I = 12 */
(PID.TID 0000.0001)                 7.741766386182301E+08,      /* I = 13 */
(PID.TID 0000.0001)                 7.741766369784317E+08,      /* I = 14 */
(PID.TID 0000.0001)                 7.740801094843833E+08       /* I = 15 */
(PID.TID 0000.0001)     ;
(PID.TID 0000.0001) rA  =  /* rA (1,:,1,:) ( units: m^2 ) */
(PID.TID 0000.0001)                 7.665113621396177E+08,      /* J =  1 */
(PID.TID 0000.0001)                 7.900134359449342E+08,      /* J =  2 */
(PID.TID 0000.0001)                 8.143679155417176E+08,      /* J =  3 */
(PID.TID 0000.0001)                 8.395900636155584E+08,      /* J =  4 */
(PID.TID 0000.0001)                 8.656947784023314E+08,      /* J =  5 */
(PID.TID 0000.0001)                 8.926966010402582E+08,      /* J =  6 */
(PID.TID 0000.0001)                 9.206097737377057E+08,      /* J =  7 */
(PID.TID 0000.0001)                 9.494482582794807E+08,      /* J =  8 */
(PID.TID 0000.0001)                 9.792257431806778E+08,      /* J =  9 */
(PID.TID 0000.0001)                 1.009955679131553E+09,      /* J = 10 */
(PID.TID 0000.0001)                 1.041651296044221E+09,      /* J = 11 */
(PID.TID 0000.0001)                 1.074325614369065E+09,      /* J = 12 */
(PID.TID 0000.0001)                 1.107991467925779E+09,      /* J = 13 */
(PID.TID 0000.0001)                 1.142661498173082E+09,      /* J = 14 */
(PID.TID 0000.0001)                 1.178348167164929E+09       /* J = 15 */
(PID.TID 0000.0001)     ;
(PID.TID 0000.0001) rAw =  /* rAw(:,1,:,1) ( units: m^2 ) */
(PID.TID 0000.0001)                 7.658765213139513E+08,      /* I =  1 */
(PID.TID 0000.0001)                 7.671201328724998E+08,      /* I =  2 */
(PID.TID 0000.0001)                 7.682600121490355E+08,      /* I =  3 */
(PID.TID 0000.0001)                 7.692972101823016E+08,      /* I =  4 */
(PID.TID 0000.0001)                 7.702326756407654E+08,      /* I =  5 */
(PID.TID 0000.0001)                 7.710673044850856E+08,      /* I =  6 */
(PID.TID 0000.0001)                 7.718018764844863E+08,      /* I =  7 */
(PID.TID 0000.0001)                 7.724370884091616E+08,      /* I =  8 */
(PID.TID 0000.0001)                 7.729735468223690E+08,      /* I =  9 */
(PID.TID 0000.0001)                 7.734117650170708E+08,      /* I = 10 */
(PID.TID 0000.0001)                 7.737521718456172E+08,      /* I = 11 */
(PID.TID 0000.0001)                 7.739951054308500E+08,      /* I = 12 */
(PID.TID 0000.0001)                 7.741408739107244E+08,      /* I = 13 */
(PID.TID 0000.0001)                 7.741880730050739E+08,      /* I = 14 */
(PID.TID 0000.0001)                 7.741408710636016E+08       /* I = 15 */
(PID.TID 0000.0001)     ;
(PID.TID 0000.0001) rAw =  /* rAw(1,:,1,:) ( units: m^2 ) */
(PID.TID 0000.0001)                 7.658765213139513E+08,      /* J =  1 */
(PID.TID 0000.0001)                 7.893768970448780E+08,      /* J =  2 */
(PID.TID 0000.0001)                 8.137283914516071E+08,      /* J =  3 */
(PID.TID 0000.0001)                 8.389460603348250E+08,      /* J =  4 */
(PID.TID 0000.0001)                 8.650445848102766E+08,      /* J =  5 */
(PID.TID 0000.0001)                 8.920382782103341E+08,      /* J =  6 */
(PID.TID 0000.0001)                 9.199411445401106E+08,      /* J =  7 */
(PID.TID 0000.0001)                 9.487668893433769E+08,      /* J =  8 */
(PID.TID 0000.0001)                 9.785289545527842E+08,      /* J =  9 */
(PID.TID 0000.0001)                 1.009240515336406E+09,      /* J = 10 */
(PID.TID 0000.0001)                 1.040914522930714E+09,      /* J = 11 */
(PID.TID 0000.0001)                 1.073563715488477E+09,      /* J = 12 */
(PID.TID 0000.0001)                 1.107200612276400E+09,      /* J = 13 */
(PID.TID 0000.0001)                 1.141837554111466E+09,      /* J = 14 */
(PID.TID 0000.0001)                 1.177486672294872E+09       /* J = 15 */
(PID.TID 0000.0001)     ;
(PID.TID 0000.0001) rAs =  /* rAs(:,1,:,1) ( units: m^2 ) */
(PID.TID 0000.0001)                 7.550751050606852E+08,      /* I =  1 */
(PID.TID 0000.0001)                 7.562658447772087E+08,      /* I =  2 */
(PID.TID 0000.0001)                 7.573533970032284E+08,      /* I =  3 */
(PID.TID 0000.0001)                 7.583387692957978E+08,      /* I =  4 */
(PID.TID 0000.0001)                 7.592229121974397E+08,      /* I =  5 */
(PID.TID 0000.0001)                 7.600066705467438E+08,      /* I =  6 */
(PID.TID 0000.0001)                 7.606907923080522E+08,      /* I =  7 */
(PID.TID 0000.0001)                 7.612759532224941E+08,      /* I =  8 */
(PID.TID 0000.0001)                 7.617627129118443E+08,      /* I =  9 */
(PID.TID 0000.0001)                 7.621515550445726E+08,      /* I = 10 */
(PID.TID 0000.0001)                 7.624428588466020E+08,      /* I = 11 */
(PID.TID 0000.0001)                 7.626369483673384E+08,      /* I = 12 */
(PID.TID 0000.0001)                 7.627333738515058E+08,      /* I = 13 */
(PID.TID 0000.0001)                 7.627333728604188E+08,      /* I = 14 */
(PID.TID 0000.0001)                 7.626369508901051E+08       /* I = 15 */
(PID.TID 0000.0001)     ;
(PID.TID 0000.0001) rAs =  /* rAs(1,:,1,:) ( units: m^2 ) */
(PID.TID 0000.0001)                 7.550751050606852E+08,      /* J =  1 */
(PID.TID 0000.0001)                 7.781568160584769E+08,      /* J =  2 */
(PID.TID 0000.0001)                 8.020831616625657E+08,      /* J =  3 */
(PID.TID 0000.0001)                 8.268695937660589E+08,      /* J =  4 */
(PID.TID 0000.0001)                 8.525311818286231E+08,      /* J =  5 */
(PID.TID 0000.0001)                 8.790826547724357E+08,      /* J =  6 */
(PID.TID 0000.0001)                 9.065383887828039E+08,      /* J =  7 */
(PID.TID 0000.0001)                 9.349124897125442E+08,      /* J =  8 */
(PID.TID 0000.0001)                 9.642187819277472E+08,      /* J =  9 */
(PID.TID 0000.0001)                 9.944708240750725E+08,      /* J = 10 */
(PID.TID 0000.0001)                 1.025681954725808E+09,      /* J = 11 */
(PID.TID 0000.0001)                 1.057865313008499E+09,      /* J = 12 */
(PID.TID 0000.0001)                 1.091033805921100E+09,      /* J = 13 */
(PID.TID 0000.0001)                 1.125200178247652E+09,      /* J = 14 */
(PID.TID 0000.0001)                 1.160376979600140E+09       /* J = 15 */
(PID.TID 0000.0001)     ;
(PID.TID 0000.0001) globalArea = /* Integrated horizontal Area (m^2) */
(PID.TID 0000.0001)                 3.580138611494432E+14
(PID.TID 0000.0001)     ;
(PID.TID 0000.0001) hasWetCSCorners = /* Domain contains CS corners (True/False) */
(PID.TID 0000.0001)                   F
(PID.TID 0000.0001)     ;
(PID.TID 0000.0001) // =======================================================
(PID.TID 0000.0001) // End of Model config. summary
(PID.TID 0000.0001) // =======================================================
(PID.TID 0000.0001) 
(PID.TID 0000.0001) == Packages configuration : Check & print summary ==
(PID.TID 0000.0001) 
(PID.TID 0000.0001) KPP_CHECK: #define ALLOW_KPP
(PID.TID 0000.0001)  kpp_freq = /* frequency of KPP calculation */
(PID.TID 0000.0001)                 4.500000000000000E+02
(PID.TID 0000.0001)     ;
(PID.TID 0000.0001) KPP_ghatUseTotalDiffus= /* non-local term fct of total diffus */
(PID.TID 0000.0001)                   F
(PID.TID 0000.0001)     ;
(PID.TID 0000.0001) KPPuseDoubleDiff = /* include double diffusive contrib */
(PID.TID 0000.0001)                   F
(PID.TID 0000.0001)     ;
(PID.TID 0000.0001) LimitHblStable = /* limits depth of hbl if stable cond.*/
(PID.TID 0000.0001)                   T
(PID.TID 0000.0001)     ;
(PID.TID 0000.0001)  minKPPhbl = /* minimum KPPhbl value [m] */
(PID.TID 0000.0001)                 5.000000000000000E+00
(PID.TID 0000.0001)     ;
(PID.TID 0000.0001)  epsln     = /* constant [-] */
(PID.TID 0000.0001)                 9.999999999999999E-21
(PID.TID 0000.0001)     ;
(PID.TID 0000.0001)  phepsi    = /* constant [-] */
(PID.TID 0000.0001)                 1.000000000000000E-10
(PID.TID 0000.0001)     ;
(PID.TID 0000.0001)  epsilon   = /* constant [-] */
(PID.TID 0000.0001)                 1.000000000000000E-01
(PID.TID 0000.0001)     ;
(PID.TID 0000.0001)  vonk      = /* Von Karmans constant [-] */
(PID.TID 0000.0001)                 4.000000000000000E-01
(PID.TID 0000.0001)     ;
(PID.TID 0000.0001)  dB_dz     = /* maximum N^2 in mixed layer [s^-2] */
(PID.TID 0000.0001)                 5.200000000000000E-05
(PID.TID 0000.0001)     ;
(PID.TID 0000.0001)  conc1     = /* scalar constant [-] */
(PID.TID 0000.0001)                 5.000000000000000E+00
(PID.TID 0000.0001)     ;
(PID.TID 0000.0001)  conam     = /* scalar constant [-] */
(PID.TID 0000.0001)                 1.257000000000000E+00
(PID.TID 0000.0001)     ;
(PID.TID 0000.0001)  concm     = /* scalar constant [-] */
(PID.TID 0000.0001)                 8.380000000000001E+00
(PID.TID 0000.0001)     ;
(PID.TID 0000.0001)  conc2     = /* scalar constant [-] */
(PID.TID 0000.0001)                 1.600000000000000E+01
(PID.TID 0000.0001)     ;
(PID.TID 0000.0001)  conas     = /* scalar constant [-] */
(PID.TID 0000.0001)                -2.886000000000000E+01
(PID.TID 0000.0001)     ;
(PID.TID 0000.0001)  concs     = /* scalar constant [-] */
(PID.TID 0000.0001)                 9.895999999999999E+01
(PID.TID 0000.0001)     ;
(PID.TID 0000.0001)  conc3     = /* scalar constant [-] */
(PID.TID 0000.0001)                 1.600000000000000E+01
(PID.TID 0000.0001)     ;
(PID.TID 0000.0001)  zetam     = /* scalar constant [-] */
(PID.TID 0000.0001)                -2.000000000000000E-01
(PID.TID 0000.0001)     ;
(PID.TID 0000.0001)  zetas     = /* scalar constant [-] */
(PID.TID 0000.0001)                -1.000000000000000E+00
(PID.TID 0000.0001)     ;
(PID.TID 0000.0001)  Ricr      = /* critical bulk Richardson Number [-] */
(PID.TID 0000.0001)                 3.559000000000000E-01
(PID.TID 0000.0001)     ;
(PID.TID 0000.0001)  cekman    = /* coeff for Ekman depth [-] */
(PID.TID 0000.0001)                 7.000000000000000E-01
(PID.TID 0000.0001)     ;
(PID.TID 0000.0001)  cmonob    = /* coeff for Monin-Obukhov depth [-] */
(PID.TID 0000.0001)                 1.000000000000000E+00
(PID.TID 0000.0001)     ;
(PID.TID 0000.0001)  concv     = /* buoyancy freq ratio [-] */
(PID.TID 0000.0001)                 1.800000000000000E+00
(PID.TID 0000.0001)     ;
(PID.TID 0000.0001)  hbf       = /* solar radiation depth ratio [-] */
(PID.TID 0000.0001)                 1.000000000000000E+00
(PID.TID 0000.0001)     ;
(PID.TID 0000.0001)  zmin      = /* minimum for zehat in table [m3/s3] */
(PID.TID 0000.0001)                -4.000000000000000E-07
(PID.TID 0000.0001)     ;
(PID.TID 0000.0001)  zmax      = /* maximum for zehat in table [m3/s3] */
(PID.TID 0000.0001)                 0.000000000000000E+00
(PID.TID 0000.0001)     ;
(PID.TID 0000.0001)  umin      = /* minimum for ustar in table [m/s] */
(PID.TID 0000.0001)                 0.000000000000000E+00
(PID.TID 0000.0001)     ;
(PID.TID 0000.0001)  umax      = /* maximum for ustar in table [m/s] */
(PID.TID 0000.0001)                 4.000000000000000E-02
(PID.TID 0000.0001)     ;
(PID.TID 0000.0001) num_v_smooth_Ri = /* number of vertical smoothing */
(PID.TID 0000.0001)                       0
(PID.TID 0000.0001)     ;
(PID.TID 0000.0001)  Riinfty   = /* shear instability Ri number limit [-] */
(PID.TID 0000.0001)                 6.998000000000000E-01
(PID.TID 0000.0001)     ;
(PID.TID 0000.0001)  BVSQcon   = /* Brunt-Vaisala squared (=N^2) [s^-2] */
(PID.TID 0000.0001)                -2.000000000000000E-05
(PID.TID 0000.0001)     ;
(PID.TID 0000.0001)  difm0     = /* max viscosity from shear instab. [m2/s] */
(PID.TID 0000.0001)                 5.000000000000000E-03
(PID.TID 0000.0001)     ;
(PID.TID 0000.0001)  difs0     = /* max diffusiv. from shear instab. [m2/s] */
(PID.TID 0000.0001)                 5.000000000000000E-03
(PID.TID 0000.0001)     ;
(PID.TID 0000.0001)  dift0     = /* max diffusiv. from shear instab. [m2/s] */
(PID.TID 0000.0001)                 5.000000000000000E-03
(PID.TID 0000.0001)     ;
(PID.TID 0000.0001)  difmcon   = /* convective viscosity [m2/s] */
(PID.TID 0000.0001)                 1.000000000000000E-01
(PID.TID 0000.0001)     ;
(PID.TID 0000.0001)  difscon   = /* convective diffusiv. [m2/s] */
(PID.TID 0000.0001)                 1.000000000000000E-01
(PID.TID 0000.0001)     ;
(PID.TID 0000.0001)  diftcon   = /* convective diffusiv. [m2/s] */
(PID.TID 0000.0001)                 1.000000000000000E-01
(PID.TID 0000.0001)     ;
(PID.TID 0000.0001)  Rrho0     = /* double diffusion density ratio [-] */
(PID.TID 0000.0001)                 1.900000000000000E+00
(PID.TID 0000.0001)     ;
(PID.TID 0000.0001)  dsfmax    = /* max diffusiv. for salt fingering [m2/s] */
(PID.TID 0000.0001)                 1.000000000000000E-02
(PID.TID 0000.0001)     ;
(PID.TID 0000.0001)  cstar     = /* coeff for non-locak transport [-] */
(PID.TID 0000.0001)                 1.000000000000000E+01
(PID.TID 0000.0001)     ;
(PID.TID 0000.0001) KPPwriteState = /* write KPP fields to file */
(PID.TID 0000.0001)                   F
(PID.TID 0000.0001)     ;
(PID.TID 0000.0001)  kpp_dumpFreq = /* dump freq of KPP output */
(PID.TID 0000.0001)                 0.000000000000000E+00
(PID.TID 0000.0001)     ;
(PID.TID 0000.0001)  kpp_taveFreq = /* time-averaging freq of KPP output */
(PID.TID 0000.0001)                 0.000000000000000E+00
(PID.TID 0000.0001)     ;
(PID.TID 0000.0001) 
(PID.TID 0000.0001) SEAICE_CHECK: #define ALLOW_SEAICE
(PID.TID 0000.0001) GAD_CHECK: #define ALLOW_GENERIC_ADVDIFF
(PID.TID 0000.0001) // =======================================================
(PID.TID 0000.0001) // Check Model config. (CONFIG_CHECK):
(PID.TID 0000.0001) // CONFIG_CHECK : Normal End
(PID.TID 0000.0001) // =======================================================
(PID.TID 0000.0001) 
(PID.TID 0000.0001) // =======================================================
(PID.TID 0000.0001) // Model current state
(PID.TID 0000.0001) // =======================================================
(PID.TID 0000.0001) 
(PID.TID 0000.0001) // =======================================================
(PID.TID 0000.0001) // Begin MONITOR dynamic field statistics
(PID.TID 0000.0001) // =======================================================
(PID.TID 0000.0001) %MON time_tsnumber                =                174588
(PID.TID 0000.0001) %MON time_secondsf                =   7.8564600000000E+07
(PID.TID 0000.0001) %MON dynstat_eta_max              =   1.5306637025177E+01
(PID.TID 0000.0001) %MON dynstat_eta_min              =  -6.8918994597163E+00
(PID.TID 0000.0001) %MON dynstat_eta_mean             =   6.9693594538796E-02
(PID.TID 0000.0001) %MON dynstat_eta_sd               =   9.3514989357374E-01
(PID.TID 0000.0001) %MON dynstat_eta_del2             =   3.8319624766116E-03
(PID.TID 0000.0001) %MON dynstat_uvel_max             =   1.8466732156975E+00
(PID.TID 0000.0001) %MON dynstat_uvel_min             =  -1.5857128672498E+00
(PID.TID 0000.0001) %MON dynstat_uvel_mean            =   2.9185160615218E-03
(PID.TID 0000.0001) %MON dynstat_uvel_sd              =   2.5034363391468E-02
(PID.TID 0000.0001) %MON dynstat_uvel_del2            =   1.7902273028700E-05
(PID.TID 0000.0001) %MON dynstat_vvel_max             =   2.3004195685918E+00
(PID.TID 0000.0001) %MON dynstat_vvel_min             =  -1.8300786127584E+00
(PID.TID 0000.0001) %MON dynstat_vvel_mean            =   1.4860858526210E-03
(PID.TID 0000.0001) %MON dynstat_vvel_sd              =   2.6628322347990E-02
(PID.TID 0000.0001) %MON dynstat_vvel_del2            =   1.7957750034040E-05
(PID.TID 0000.0001) %MON dynstat_wvel_max             =   3.2033896183363E-03
(PID.TID 0000.0001) %MON dynstat_wvel_min             =  -2.8257642531455E-03
(PID.TID 0000.0001) %MON dynstat_wvel_mean            =  -1.6655771819196E-21
(PID.TID 0000.0001) %MON dynstat_wvel_sd              =   4.0995338200591E-05
(PID.TID 0000.0001) %MON dynstat_wvel_del2            =   5.0975676145587E-08
(PID.TID 0000.0001) %MON dynstat_theta_max            =   3.2098792345797E+01
(PID.TID 0000.0001) %MON dynstat_theta_min            =  -1.9597073800303E+00
(PID.TID 0000.0001) %MON dynstat_theta_mean           =   3.5921967738499E+00
(PID.TID 0000.0001) %MON dynstat_theta_sd             =   4.4419943184019E+00
(PID.TID 0000.0001) %MON dynstat_theta_del2           =   1.5977227366037E-04
(PID.TID 0000.0001) %MON dynstat_salt_max             =   4.0655996770461E+01
(PID.TID 0000.0001) %MON dynstat_salt_min             =   0.0000000000000E+00
(PID.TID 0000.0001) %MON dynstat_salt_mean            =   3.4724920267130E+01
(PID.TID 0000.0001) %MON dynstat_salt_sd              =   3.8399658437126E-01
(PID.TID 0000.0001) %MON dynstat_salt_del2            =   3.9480538995831E-04
(PID.TID 0000.0001) %MON dynstat_sst_max              =   3.2086224815203E+01
(PID.TID 0000.0001) %MON dynstat_sst_min              =  -1.9596733758752E+00
(PID.TID 0000.0001) %MON dynstat_sst_mean             =   1.8166306427804E+01
(PID.TID 0000.0001) %MON dynstat_sst_sd               =   1.0104446505897E+01
(PID.TID 0000.0001) %MON dynstat_sst_del2             =   8.4169601060995E-04
(PID.TID 0000.0001) %MON dynstat_sss_max              =   3.9488500715962E+01
(PID.TID 0000.0001) %MON dynstat_sss_min              =   1.6471098548984E+01
(PID.TID 0000.0001) %MON dynstat_sss_mean             =   3.4670234703607E+01
(PID.TID 0000.0001) %MON dynstat_sss_sd               =   1.2560640632550E+00
(PID.TID 0000.0001) %MON dynstat_sss_del2             =   4.2543052382377E-04
(PID.TID 0000.0001) %MON forcing_qnet_max             =   0.0000000000000E+00
(PID.TID 0000.0001) %MON forcing_qnet_min             =   0.0000000000000E+00
(PID.TID 0000.0001) %MON forcing_qnet_mean            =   0.0000000000000E+00
(PID.TID 0000.0001) %MON forcing_qnet_sd              =   0.0000000000000E+00
(PID.TID 0000.0001) %MON forcing_qnet_del2            =   0.0000000000000E+00
(PID.TID 0000.0001) %MON forcing_qsw_max              =   0.0000000000000E+00
(PID.TID 0000.0001) %MON forcing_qsw_min              =   0.0000000000000E+00
(PID.TID 0000.0001) %MON forcing_qsw_mean             =   0.0000000000000E+00
(PID.TID 0000.0001) %MON forcing_qsw_sd               =   0.0000000000000E+00
(PID.TID 0000.0001) %MON forcing_qsw_del2             =   0.0000000000000E+00
(PID.TID 0000.0001) %MON forcing_empmr_max            =   0.0000000000000E+00
(PID.TID 0000.0001) %MON forcing_empmr_min            =   0.0000000000000E+00
(PID.TID 0000.0001) %MON forcing_empmr_mean           =   0.0000000000000E+00
(PID.TID 0000.0001) %MON forcing_empmr_sd             =   0.0000000000000E+00
(PID.TID 0000.0001) %MON forcing_empmr_del2           =   0.0000000000000E+00
(PID.TID 0000.0001) %MON forcing_fu_max               =   0.0000000000000E+00
(PID.TID 0000.0001) %MON forcing_fu_min               =   0.0000000000000E+00
(PID.TID 0000.0001) %MON forcing_fu_mean              =   0.0000000000000E+00
(PID.TID 0000.0001) %MON forcing_fu_sd                =   0.0000000000000E+00
(PID.TID 0000.0001) %MON forcing_fu_del2              =   0.0000000000000E+00
(PID.TID 0000.0001) %MON forcing_fv_max               =   0.0000000000000E+00
(PID.TID 0000.0001) %MON forcing_fv_min               =   0.0000000000000E+00
(PID.TID 0000.0001) %MON forcing_fv_mean              =   0.0000000000000E+00
(PID.TID 0000.0001) %MON forcing_fv_sd                =   0.0000000000000E+00
(PID.TID 0000.0001) %MON forcing_fv_del2              =   0.0000000000000E+00
(PID.TID 0000.0001) %MON trAdv_CFL_u_max              =   0.0000000000000E+00
(PID.TID 0000.0001) %MON trAdv_CFL_v_max              =   0.0000000000000E+00
(PID.TID 0000.0001) %MON trAdv_CFL_w_max              =   0.0000000000000E+00
(PID.TID 0000.0001) %MON advcfl_uvel_max              =   1.8271521592280E-02
(PID.TID 0000.0001) %MON advcfl_vvel_max              =   3.0525547349915E-02
(PID.TID 0000.0001) %MON advcfl_wvel_max              =   1.3401361150904E-01
(PID.TID 0000.0001) %MON advcfl_W_hf_max              =   7.3983630052721E-02
(PID.TID 0000.0001) %MON pe_b_mean                    =   1.1567072178619E-03
(PID.TID 0000.0001) %MON ke_max                       =   1.9179694357423E+00
(PID.TID 0000.0001) %MON ke_mean                      =   6.4928558911458E-04
(PID.TID 0000.0001) %MON ke_vol                       =   1.3350064351420E+18
(PID.TID 0000.0001) %MON vort_r_min                   =  -5.4607076202449E-05
(PID.TID 0000.0001) %MON vort_r_max                   =   5.1546022823875E-05
(PID.TID 0000.0001) %MON vort_a_mean                  =  -1.9725081408843E-05
(PID.TID 0000.0001) %MON vort_a_sd                    =   7.4538111244393E-05
(PID.TID 0000.0001) %MON vort_p_mean                  =  -2.1669086815309E-05
(PID.TID 0000.0001) %MON vort_p_sd                    =   9.3617868284791E-05
(PID.TID 0000.0001) %MON surfExpan_theta_mean         =  -1.3844416858137E-05
(PID.TID 0000.0001) %MON surfExpan_salt_mean          =  -4.2507819619539E-06
(PID.TID 0000.0001) // =======================================================
(PID.TID 0000.0001) // End MONITOR dynamic field statistics
(PID.TID 0000.0001) // =======================================================
(PID.TID 0000.0001) // =======================================================
(PID.TID 0000.0001) // Begin MONITOR SEAICE statistics
(PID.TID 0000.0001) // =======================================================
(PID.TID 0000.0001) %MON seaice_tsnumber              =                174588
(PID.TID 0000.0001) %MON seaice_time_sec              =   7.8564600000000E+07
(PID.TID 0000.0001) %MON seaice_uice_max              =   1.8902827849886E+00
(PID.TID 0000.0001) %MON seaice_uice_min              =  -1.6460515974662E+00
(PID.TID 0000.0001) %MON seaice_uice_mean             =  -1.6517859789666E-04
(PID.TID 0000.0001) %MON seaice_uice_sd               =   1.6273732503050E-01
(PID.TID 0000.0001) %MON seaice_uice_del2             =   3.4793366172690E-04
(PID.TID 0000.0001) %MON seaice_vice_max              =   2.3551236610003E+00
(PID.TID 0000.0001) %MON seaice_vice_min              =  -2.0829144347147E+00
(PID.TID 0000.0001) %MON seaice_vice_mean             =  -1.2886455046529E-02
(PID.TID 0000.0001) %MON seaice_vice_sd               =   1.6886328752792E-01
(PID.TID 0000.0001) %MON seaice_vice_del2             =   3.4775757520758E-04
(PID.TID 0000.0001) %MON seaice_area_max              =   1.0072314169934E+00
(PID.TID 0000.0001) %MON seaice_area_min              =   0.0000000000000E+00
(PID.TID 0000.0001) %MON seaice_area_mean             =   5.7224793827155E-02
(PID.TID 0000.0001) %MON seaice_area_sd               =   2.2277419394958E-01
(PID.TID 0000.0001) %MON seaice_area_del2             =   4.3268674619243E-04
(PID.TID 0000.0001) %MON seaice_heff_max              =   9.9559131285408E+00
(PID.TID 0000.0001) %MON seaice_heff_min              =   0.0000000000000E+00
(PID.TID 0000.0001) %MON seaice_heff_mean             =   1.4996133653953E-01
(PID.TID 0000.0001) %MON seaice_heff_sd               =   7.2268451716645E-01
(PID.TID 0000.0001) %MON seaice_heff_del2             =   2.0631051720650E-03
(PID.TID 0000.0001) %MON seaice_hsnow_max             =   3.2884332658670E+00
(PID.TID 0000.0001) %MON seaice_hsnow_min             =   0.0000000000000E+00
(PID.TID 0000.0001) %MON seaice_hsnow_mean            =   1.2798452913840E-02
(PID.TID 0000.0001) %MON seaice_hsnow_sd              =   7.2767134953139E-02
(PID.TID 0000.0001) %MON seaice_hsnow_del2            =   6.0597243530354E-04
(PID.TID 0000.0001) // =======================================================
(PID.TID 0000.0001) // End MONITOR SEAICE statistics
(PID.TID 0000.0001) // =======================================================
(PID.TID 0000.0001) // =======================================================
(PID.TID 0000.0001) // Begin MONITOR dynamic field statistics
(PID.TID 0000.0001) // =======================================================
(PID.TID 0000.0001) %MON time_tsnumber                =                174589
(PID.TID 0000.0001) %MON time_secondsf                =   7.8565050000000E+07
(PID.TID 0000.0001) %MON dynstat_eta_max              =   1.4965869323279E+01
(PID.TID 0000.0001) %MON dynstat_eta_min              =  -9.2022170798110E+00
(PID.TID 0000.0001) %MON dynstat_eta_mean             =   6.9456601071736E-02
(PID.TID 0000.0001) %MON dynstat_eta_sd               =   9.0952962025686E-01
(PID.TID 0000.0001) %MON dynstat_eta_del2             =   3.2460994353777E-03
(PID.TID 0000.0001) %MON dynstat_uvel_max             =   1.7994708330655E+00
(PID.TID 0000.0001) %MON dynstat_uvel_min             =  -1.6820582118515E+00
(PID.TID 0000.0001) %MON dynstat_uvel_mean            =   2.9603359566898E-03
(PID.TID 0000.0001) %MON dynstat_uvel_sd              =   2.5672268656867E-02
(PID.TID 0000.0001) %MON dynstat_uvel_del2            =   2.7305130993061E-05
(PID.TID 0000.0001) %MON dynstat_vvel_max             =   2.1147915682345E+00
(PID.TID 0000.0001) %MON dynstat_vvel_min             =  -1.6539501981474E+00
(PID.TID 0000.0001) %MON dynstat_vvel_mean            =   1.4461389719411E-03
(PID.TID 0000.0001) %MON dynstat_vvel_sd              =   2.7177344612255E-02
(PID.TID 0000.0001) %MON dynstat_vvel_del2            =   2.6379128625523E-05
(PID.TID 0000.0001) %MON dynstat_wvel_max             =   8.7124604191707E-03
(PID.TID 0000.0001) %MON dynstat_wvel_min             =  -1.6589292756025E-02
(PID.TID 0000.0001) %MON dynstat_wvel_mean            =  -3.7973918048364E-07
(PID.TID 0000.0001) %MON dynstat_wvel_sd              =   9.7644571549596E-05
(PID.TID 0000.0001) %MON dynstat_wvel_del2            =   4.3714428108441E-07
(PID.TID 0000.0001) %MON dynstat_theta_max            =   3.2094085898609E+01
(PID.TID 0000.0001) %MON dynstat_theta_min            =  -1.9597354085787E+00
(PID.TID 0000.0001) %MON dynstat_theta_mean           =   3.5922015991193E+00
(PID.TID 0000.0001) %MON dynstat_theta_sd             =   4.4419292942544E+00
(PID.TID 0000.0001) %MON dynstat_theta_del2           =   1.2678372606051E-04
(PID.TID 0000.0001) %MON dynstat_salt_max             =   4.0655996770457E+01
(PID.TID 0000.0001) %MON dynstat_salt_min             =   1.0491317715804E+01
(PID.TID 0000.0001) %MON dynstat_salt_mean            =   3.4724919783883E+01
(PID.TID 0000.0001) %MON dynstat_salt_sd              =   3.8073020073332E-01
(PID.TID 0000.0001) %MON dynstat_salt_del2            =   2.1987898141633E-04
(PID.TID 0000.0001) %MON dynstat_sst_max              =   3.2088570094714E+01
(PID.TID 0000.0001) %MON dynstat_sst_min              =  -1.9597010501455E+00
(PID.TID 0000.0001) %MON dynstat_sst_mean             =   1.8167864340427E+01
(PID.TID 0000.0001) %MON dynstat_sst_sd               =   1.0105117771748E+01
(PID.TID 0000.0001) %MON dynstat_sst_del2             =   8.4134003090952E-04
(PID.TID 0000.0001) %MON dynstat_sss_max              =   3.9488518387956E+01
(PID.TID 0000.0001) %MON dynstat_sss_min              =   1.6466043125835E+01
(PID.TID 0000.0001) %MON dynstat_sss_mean             =   3.4669798835719E+01
(PID.TID 0000.0001) %MON dynstat_sss_sd               =   1.2564700605350E+00
(PID.TID 0000.0001) %MON dynstat_sss_del2             =   4.4652034662506E-04
(PID.TID 0000.0001) %MON forcing_qnet_max             =   3.8847250000000E+04
(PID.TID 0000.0001) %MON forcing_qnet_min             =  -9.1127373046875E+03
(PID.TID 0000.0001) %MON forcing_qnet_mean            =  -1.6264502057996E+02
(PID.TID 0000.0001) %MON forcing_qnet_sd              =   4.7486293695382E+02
(PID.TID 0000.0001) %MON forcing_qnet_del2            =   3.8360872206822E+00
(PID.TID 0000.0001) %MON forcing_qsw_max              =   0.0000000000000E+00
(PID.TID 0000.0001) %MON forcing_qsw_min              =  -1.2267074966472E+02
(PID.TID 0000.0001) %MON forcing_qsw_mean             =  -2.3669499087656E+01
(PID.TID 0000.0001) %MON forcing_qsw_sd               =   3.2769580780534E+01
(PID.TID 0000.0001) %MON forcing_qsw_del2             =   2.3539999378491E-02
(PID.TID 0000.0001) %MON forcing_empmr_max            =   8.1930443644524E-02
(PID.TID 0000.0001) %MON forcing_empmr_min            =  -5.7161856442690E-02
(PID.TID 0000.0001) %MON forcing_empmr_mean           =   6.9309097701439E-05
(PID.TID 0000.0001) %MON forcing_empmr_sd             =   8.3706990277850E-04
(PID.TID 0000.0001) %MON forcing_empmr_del2           =   9.3299140004799E-06
(PID.TID 0000.0001) %MON forcing_fu_max               =   1.0871579542503E+00
(PID.TID 0000.0001) %MON forcing_fu_min               =  -1.6608779765878E+00
(PID.TID 0000.0001) %MON forcing_fu_mean              =   5.3720027079625E-03
(PID.TID 0000.0001) %MON forcing_fu_sd                =   1.0883656573787E-01
(PID.TID 0000.0001) %MON forcing_fu_del2              =   2.5530366176700E-04
(PID.TID 0000.0001) %MON forcing_fv_max               =   1.6494973199886E+00
(PID.TID 0000.0001) %MON forcing_fv_min               =  -1.3981004064613E+00
(PID.TID 0000.0001) %MON forcing_fv_mean              =   3.2031963194496E-04
(PID.TID 0000.0001) %MON forcing_fv_sd                =   1.0883320683220E-01
(PID.TID 0000.0001) %MON forcing_fv_del2              =   2.4065014361077E-04
(PID.TID 0000.0001) %MON trAdv_CFL_u_max              =   2.0102590358179E-02
(PID.TID 0000.0001) %MON trAdv_CFL_v_max              =   2.9895349442557E-02
(PID.TID 0000.0001) %MON trAdv_CFL_w_max              =   7.4628562672070E-01
(PID.TID 0000.0001) %MON advcfl_uvel_max              =   1.9776102425396E-02
(PID.TID 0000.0001) %MON advcfl_vvel_max              =   2.9786292426735E-02
(PID.TID 0000.0001) %MON advcfl_wvel_max              =   1.4930363480422E+00
(PID.TID 0000.0001) %MON advcfl_W_hf_max              =   7.4628562672070E-01
(PID.TID 0000.0001) %MON pe_b_mean                    =   2.5481610606074E-03
(PID.TID 0000.0001) %MON ke_max                       =   1.7534137346585E+00
(PID.TID 0000.0001) %MON ke_mean                      =   6.7918846439158E-04
(PID.TID 0000.0001) %MON ke_vol                       =   1.3350064351420E+18
(PID.TID 0000.0001) %MON vort_r_min                   =  -6.0275992671665E-05
(PID.TID 0000.0001) %MON vort_r_max                   =   5.0536652387689E-05
(PID.TID 0000.0001) %MON vort_a_mean                  =  -1.9725078130652E-05
(PID.TID 0000.0001) %MON vort_a_sd                    =   7.4538194809940E-05
(PID.TID 0000.0001) %MON vort_p_mean                  =  -2.1669083214036E-05
(PID.TID 0000.0001) %MON vort_p_sd                    =   9.3618863157745E-05
(PID.TID 0000.0001) %MON surfExpan_theta_mean         =   4.8210218464488E-08
(PID.TID 0000.0001) %MON surfExpan_salt_mean          =  -1.8826999101982E-05
(PID.TID 0000.0001) // =======================================================
(PID.TID 0000.0001) // End MONITOR dynamic field statistics
(PID.TID 0000.0001) // =======================================================
(PID.TID 0000.0001) // =======================================================
(PID.TID 0000.0001) // Begin MONITOR SEAICE statistics
(PID.TID 0000.0001) // =======================================================
(PID.TID 0000.0001) %MON seaice_tsnumber              =                174589
(PID.TID 0000.0001) %MON seaice_time_sec              =   7.8565050000000E+07
(PID.TID 0000.0001) %MON seaice_uice_max              =   1.8466732156975E+00
(PID.TID 0000.0001) %MON seaice_uice_min              =  -1.5857128672498E+00
(PID.TID 0000.0001) %MON seaice_uice_mean             =  -2.9706021316276E-04
(PID.TID 0000.0001) %MON seaice_uice_sd               =   1.6226446587075E-01
(PID.TID 0000.0001) %MON seaice_uice_del2             =   3.8683085795710E-04
(PID.TID 0000.0001) %MON seaice_vice_max              =   2.3004195685918E+00
(PID.TID 0000.0001) %MON seaice_vice_min              =  -1.8070830419806E+00
(PID.TID 0000.0001) %MON seaice_vice_mean             =  -1.2722374179023E-02
(PID.TID 0000.0001) %MON seaice_vice_sd               =   1.6824871262632E-01
(PID.TID 0000.0001) %MON seaice_vice_del2             =   3.7783510599141E-04
(PID.TID 0000.0001) %MON seaice_area_max              =   1.0068367108885E+00
(PID.TID 0000.0001) %MON seaice_area_min              =   0.0000000000000E+00
(PID.TID 0000.0001) %MON seaice_area_mean             =   5.7225523848039E-02
(PID.TID 0000.0001) %MON seaice_area_sd               =   2.2275830097832E-01
(PID.TID 0000.0001) %MON seaice_area_del2             =   4.2943174214810E-04
(PID.TID 0000.0001) %MON seaice_heff_max              =   9.9557371670659E+00
(PID.TID 0000.0001) %MON seaice_heff_min              =   0.0000000000000E+00
(PID.TID 0000.0001) %MON seaice_heff_mean             =   1.4997402692779E-01
(PID.TID 0000.0001) %MON seaice_heff_sd               =   7.2263315231831E-01
(PID.TID 0000.0001) %MON seaice_heff_del2             =   2.0382983673157E-03
(PID.TID 0000.0001) %MON seaice_hsnow_max             =   3.2883757378788E+00
(PID.TID 0000.0001) %MON seaice_hsnow_min             =   0.0000000000000E+00
(PID.TID 0000.0001) %MON seaice_hsnow_mean            =   1.2798151403785E-02
(PID.TID 0000.0001) %MON seaice_hsnow_sd              =   7.2629948322872E-02
(PID.TID 0000.0001) %MON seaice_hsnow_del2            =   5.9751996579643E-04
(PID.TID 0000.0001) // =======================================================
(PID.TID 0000.0001) // End MONITOR SEAICE statistics
(PID.TID 0000.0001) // =======================================================
(PID.TID 0000.0001) // =======================================================
(PID.TID 0000.0001) // Begin MONITOR dynamic field statistics
(PID.TID 0000.0001) // =======================================================
(PID.TID 0000.0001) %MON time_tsnumber                =                174590
(PID.TID 0000.0001) %MON time_secondsf                =   7.8565500000000E+07
(PID.TID 0000.0001) %MON dynstat_eta_max              =   1.4483418367233E+01
(PID.TID 0000.0001) %MON dynstat_eta_min              =  -1.0439891547882E+01
(PID.TID 0000.0001) %MON dynstat_eta_mean             =   6.9235103536081E-02
(PID.TID 0000.0001) %MON dynstat_eta_sd               =   8.8704993247752E-01
(PID.TID 0000.0001) %MON dynstat_eta_del2             =   3.1897987306630E-03
(PID.TID 0000.0001) %MON dynstat_uvel_max             =   2.3155480038519E+00
(PID.TID 0000.0001) %MON dynstat_uvel_min             =  -2.4914633101794E+00
(PID.TID 0000.0001) %MON dynstat_uvel_mean            =   2.9878673808370E-03
(PID.TID 0000.0001) %MON dynstat_uvel_sd              =   2.6563403628626E-02
(PID.TID 0000.0001) %MON dynstat_uvel_del2            =   3.2860720467273E-05
(PID.TID 0000.0001) %MON dynstat_vvel_max             =   2.5629450890684E+00
(PID.TID 0000.0001) %MON dynstat_vvel_min             =  -2.2029466051957E+00
(PID.TID 0000.0001) %MON dynstat_vvel_mean            =   1.3971609560342E-03
(PID.TID 0000.0001) %MON dynstat_vvel_sd              =   2.7938527362959E-02
(PID.TID 0000.0001) %MON dynstat_vvel_del2            =   3.2076200610563E-05
(PID.TID 0000.0001) %MON dynstat_wvel_max             =   5.1469160029193E-03
(PID.TID 0000.0001) %MON dynstat_wvel_min             =  -1.1280417259035E-02
(PID.TID 0000.0001) %MON dynstat_wvel_mean            =  -3.6190134983485E-07
(PID.TID 0000.0001) %MON dynstat_wvel_sd              =   9.8055067905941E-05
(PID.TID 0000.0001) %MON dynstat_wvel_del2            =   2.7192981458051E-07
(PID.TID 0000.0001) %MON dynstat_theta_max            =   3.2091105186015E+01
(PID.TID 0000.0001) %MON dynstat_theta_min            =  -1.9597624764336E+00
(PID.TID 0000.0001) %MON dynstat_theta_mean           =   3.5922060108888E+00
(PID.TID 0000.0001) %MON dynstat_theta_sd             =   4.4419183003689E+00
(PID.TID 0000.0001) %MON dynstat_theta_del2           =   1.1790211321127E-04
(PID.TID 0000.0001) %MON dynstat_salt_max             =   4.0655996770452E+01
(PID.TID 0000.0001) %MON dynstat_salt_min             =   1.6461308753322E+01
(PID.TID 0000.0001) %MON dynstat_salt_mean            =   3.4724919260088E+01
(PID.TID 0000.0001) %MON dynstat_salt_sd              =   3.7996887970708E-01
(PID.TID 0000.0001) %MON dynstat_salt_del2            =   1.5667271915950E-04
(PID.TID 0000.0001) %MON dynstat_sst_max              =   3.2091105186015E+01
(PID.TID 0000.0001) %MON dynstat_sst_min              =  -1.9597289604840E+00
(PID.TID 0000.0001) %MON dynstat_sst_mean             =   1.8168703360185E+01
(PID.TID 0000.0001) %MON dynstat_sst_sd               =   1.0105616707154E+01
(PID.TID 0000.0001) %MON dynstat_sst_del2             =   8.6372253360988E-04
(PID.TID 0000.0001) %MON dynstat_sss_max              =   3.9488541345468E+01
(PID.TID 0000.0001) %MON dynstat_sss_min              =   1.6461308753322E+01
(PID.TID 0000.0001) %MON dynstat_sss_mean             =   3.4668214330082E+01
(PID.TID 0000.0001) %MON dynstat_sss_sd               =   1.2589335489588E+00
(PID.TID 0000.0001) %MON dynstat_sss_del2             =   8.0699453461202E-04
(PID.TID 0000.0001) %MON forcing_qnet_max             =   5.7094582031250E+04
(PID.TID 0000.0001) %MON forcing_qnet_min             =  -1.2478918945312E+04
(PID.TID 0000.0001) %MON forcing_qnet_mean            =  -1.5371546648829E+02
(PID.TID 0000.0001) %MON forcing_qnet_sd              =   4.9312959778822E+02
(PID.TID 0000.0001) %MON forcing_qnet_del2            =   4.6275989981668E+00
(PID.TID 0000.0001) %MON forcing_qsw_max              =   0.0000000000000E+00
(PID.TID 0000.0001) %MON forcing_qsw_min              =  -1.2514534731004E+02
(PID.TID 0000.0001) %MON forcing_qsw_mean             =  -2.3593886137298E+01
(PID.TID 0000.0001) %MON forcing_qsw_sd               =   3.2718486999149E+01
(PID.TID 0000.0001) %MON forcing_qsw_del2             =   2.3657417450174E-02
(PID.TID 0000.0001) %MON forcing_empmr_max            =   8.2693181931973E-02
(PID.TID 0000.0001) %MON forcing_empmr_min            =  -5.6105844676495E-02
(PID.TID 0000.0001) %MON forcing_empmr_mean           =   6.8224484523637E-05
(PID.TID 0000.0001) %MON forcing_empmr_sd             =   8.3834416495679E-04
(PID.TID 0000.0001) %MON forcing_empmr_del2           =   9.3907655251712E-06
(PID.TID 0000.0001) %MON forcing_fu_max               =   3.1695623140013E+00
(PID.TID 0000.0001) %MON forcing_fu_min               =  -3.2714785730452E+00
(PID.TID 0000.0001) %MON forcing_fu_mean              =   5.6217201924358E-03
(PID.TID 0000.0001) %MON forcing_fu_sd                =   1.1073680422817E-01
(PID.TID 0000.0001) %MON forcing_fu_del2              =   3.7859909593186E-04
(PID.TID 0000.0001) %MON forcing_fv_max               =   2.9250153769980E+00
(PID.TID 0000.0001) %MON forcing_fv_min               =  -2.3571060444089E+00
(PID.TID 0000.0001) %MON forcing_fv_mean              =   7.4337097611544E-05
(PID.TID 0000.0001) %MON forcing_fv_sd                =   1.1080995543843E-01
(PID.TID 0000.0001) %MON forcing_fv_del2              =   3.6191049626413E-04
(PID.TID 0000.0001) %MON trAdv_CFL_u_max              =   3.4543510352664E-02
(PID.TID 0000.0001) %MON trAdv_CFL_v_max              =   3.9188108545878E-02
(PID.TID 0000.0001) %MON trAdv_CFL_w_max              =   5.0396325225374E-01
(PID.TID 0000.0001) %MON advcfl_uvel_max              =   3.3889181514597E-02
(PID.TID 0000.0001) %MON advcfl_vvel_max              =   3.9045151923748E-02
(PID.TID 0000.0001) %MON advcfl_wvel_max              =   1.0152375533132E+00
(PID.TID 0000.0001) %MON advcfl_W_hf_max              =   5.0396325225374E-01
(PID.TID 0000.0001) %MON pe_b_mean                    =   2.4655011287447E-03
(PID.TID 0000.0001) %MON ke_max                       =   2.7031489561633E+00
(PID.TID 0000.0001) %MON ke_mean                      =   7.2187491711366E-04
(PID.TID 0000.0001) %MON ke_vol                       =   1.3350064351420E+18
(PID.TID 0000.0001) %MON vort_r_min                   =  -7.7716055148551E-05
(PID.TID 0000.0001) %MON vort_r_max                   =   7.1923864297436E-05
(PID.TID 0000.0001) %MON vort_a_mean                  =  -1.9725080923080E-05
(PID.TID 0000.0001) %MON vort_a_sd                    =   7.4538337862784E-05
(PID.TID 0000.0001) %MON vort_p_mean                  =  -2.1669086281672E-05
(PID.TID 0000.0001) %MON vort_p_sd                    =   9.3619216569290E-05
(PID.TID 0000.0001) %MON surfExpan_theta_mean         =   1.3079340402886E-06
(PID.TID 0000.0001) %MON surfExpan_salt_mean          =  -1.6603669210775E-05
(PID.TID 0000.0001) // =======================================================
(PID.TID 0000.0001) // End MONITOR dynamic field statistics
(PID.TID 0000.0001) // =======================================================
(PID.TID 0000.0001) // =======================================================
(PID.TID 0000.0001) // Begin MONITOR SEAICE statistics
(PID.TID 0000.0001) // =======================================================
(PID.TID 0000.0001) %MON seaice_tsnumber              =                174590
(PID.TID 0000.0001) %MON seaice_time_sec              =   7.8565500000000E+07
(PID.TID 0000.0001) %MON seaice_uice_max              =   2.1203346572960E+00
(PID.TID 0000.0001) %MON seaice_uice_min              =  -2.2878775013021E+00
(PID.TID 0000.0001) %MON seaice_uice_mean             =  -3.2058748314161E-04
(PID.TID 0000.0001) %MON seaice_uice_sd               =   1.6220028411896E-01
(PID.TID 0000.0001) %MON seaice_uice_del2             =   4.5512968782850E-04
(PID.TID 0000.0001) %MON seaice_vice_max              =   2.3095238163085E+00
(PID.TID 0000.0001) %MON seaice_vice_min              =  -2.5017027840267E+00
(PID.TID 0000.0001) %MON seaice_vice_mean             =  -1.2874349209908E-02
(PID.TID 0000.0001) %MON seaice_vice_sd               =   1.6803354386106E-01
(PID.TID 0000.0001) %MON seaice_vice_del2             =   4.3674256178244E-04
(PID.TID 0000.0001) %MON seaice_area_max              =   1.0101238404313E+00
(PID.TID 0000.0001) %MON seaice_area_min              =   0.0000000000000E+00
(PID.TID 0000.0001) %MON seaice_area_mean             =   5.7226012341607E-02
(PID.TID 0000.0001) %MON seaice_area_sd               =   2.2273280704176E-01
(PID.TID 0000.0001) %MON seaice_area_del2             =   4.2510424095989E-04
(PID.TID 0000.0001) %MON seaice_heff_max              =   9.9554309164419E+00
(PID.TID 0000.0001) %MON seaice_heff_min              =   0.0000000000000E+00
(PID.TID 0000.0001) %MON seaice_heff_mean             =   1.4998611346003E-01
(PID.TID 0000.0001) %MON seaice_heff_sd               =   7.2249225759742E-01
(PID.TID 0000.0001) %MON seaice_heff_del2             =   2.0034145596295E-03
(PID.TID 0000.0001) %MON seaice_hsnow_max             =   3.2882719828464E+00
(PID.TID 0000.0001) %MON seaice_hsnow_min             =   0.0000000000000E+00
(PID.TID 0000.0001) %MON seaice_hsnow_mean            =   1.2797745453848E-02
(PID.TID 0000.0001) %MON seaice_hsnow_sd              =   7.2413173366143E-02
(PID.TID 0000.0001) %MON seaice_hsnow_del2            =   5.8574235604524E-04
(PID.TID 0000.0001) // =======================================================
(PID.TID 0000.0001) // End MONITOR SEAICE statistics
(PID.TID 0000.0001) // =======================================================
(PID.TID 0000.0001) // =======================================================
(PID.TID 0000.0001) // Begin MONITOR dynamic field statistics
(PID.TID 0000.0001) // =======================================================
(PID.TID 0000.0001) %MON time_tsnumber                =                174591
(PID.TID 0000.0001) %MON time_secondsf                =   7.8565950000000E+07
(PID.TID 0000.0001) %MON dynstat_eta_max              =   1.3901369002151E+01
(PID.TID 0000.0001) %MON dynstat_eta_min              =  -1.0780748281814E+01
(PID.TID 0000.0001) %MON dynstat_eta_mean             =   6.9027888386310E-02
(PID.TID 0000.0001) %MON dynstat_eta_sd               =   8.7178661201448E-01
(PID.TID 0000.0001) %MON dynstat_eta_del2             =   3.0967167117781E-03
(PID.TID 0000.0001) %MON dynstat_uvel_max             =   2.8272254803700E+00
(PID.TID 0000.0001) %MON dynstat_uvel_min             =  -3.1074524425568E+00
(PID.TID 0000.0001) %MON dynstat_uvel_mean            =   2.9966227955218E-03
(PID.TID 0000.0001) %MON dynstat_uvel_sd              =   2.7194042227346E-02
(PID.TID 0000.0001) %MON dynstat_uvel_del2            =   3.5587843804602E-05
(PID.TID 0000.0001) %MON dynstat_vvel_max             =   3.2040957783688E+00
(PID.TID 0000.0001) %MON dynstat_vvel_min             =  -2.7774288748721E+00
(PID.TID 0000.0001) %MON dynstat_vvel_mean            =   1.3472751750057E-03
(PID.TID 0000.0001) %MON dynstat_vvel_sd              =   2.8491095454874E-02
(PID.TID 0000.0001) %MON dynstat_vvel_del2            =   3.5567643881743E-05
(PID.TID 0000.0001) %MON dynstat_wvel_max             =   4.2643288220673E-03
(PID.TID 0000.0001) %MON dynstat_wvel_min             =  -8.9187733065280E-03
(PID.TID 0000.0001) %MON dynstat_wvel_mean            =  -3.4552372735923E-07
(PID.TID 0000.0001) %MON dynstat_wvel_sd              =   9.0341265320934E-05
(PID.TID 0000.0001) %MON dynstat_wvel_del2            =   1.7269900379718E-07
(PID.TID 0000.0001) %MON dynstat_theta_max            =   3.2093847781300E+01
(PID.TID 0000.0001) %MON dynstat_theta_min            =  -1.9597884339651E+00
(PID.TID 0000.0001) %MON dynstat_theta_mean           =   3.5922103596298E+00
(PID.TID 0000.0001) %MON dynstat_theta_sd             =   4.4419191709398E+00
(PID.TID 0000.0001) %MON dynstat_theta_del2           =   1.1515158978573E-04
(PID.TID 0000.0001) %MON dynstat_salt_max             =   4.0655996770447E+01
(PID.TID 0000.0001) %MON dynstat_salt_min             =   1.6457419393279E+01
(PID.TID 0000.0001) %MON dynstat_salt_mean            =   3.4724918964940E+01
(PID.TID 0000.0001) %MON dynstat_salt_sd              =   3.7970562907912E-01
(PID.TID 0000.0001) %MON dynstat_salt_del2            =   1.2985579065907E-04
(PID.TID 0000.0001) %MON dynstat_sst_max              =   3.2093847781300E+01
(PID.TID 0000.0001) %MON dynstat_sst_min              =  -1.9597574590485E+00
(PID.TID 0000.0001) %MON dynstat_sst_mean             =   1.8169261552019E+01
(PID.TID 0000.0001) %MON dynstat_sst_sd               =   1.0106022229011E+01
(PID.TID 0000.0001) %MON dynstat_sst_del2             =   9.2927381797523E-04
(PID.TID 0000.0001) %MON dynstat_sss_max              =   3.9488570068889E+01
(PID.TID 0000.0001) %MON dynstat_sss_min              =   1.6457419393279E+01
(PID.TID 0000.0001) %MON dynstat_sss_mean             =   3.4666430277279E+01
(PID.TID 0000.0001) %MON dynstat_sss_sd               =   1.2623247884188E+00
(PID.TID 0000.0001) %MON dynstat_sss_del2             =   1.1593257865475E-03
(PID.TID 0000.0001) %MON forcing_qnet_max             =   6.5328402343750E+04
(PID.TID 0000.0001) %MON forcing_qnet_min             =  -3.1458728515625E+04
(PID.TID 0000.0001) %MON forcing_qnet_mean            =  -1.5614312423224E+02
(PID.TID 0000.0001) %MON forcing_qnet_sd              =   6.4336784087423E+02
(PID.TID 0000.0001) %MON forcing_qnet_del2            =   6.4994218171078E+00
(PID.TID 0000.0001) %MON forcing_qsw_max              =   0.0000000000000E+00
(PID.TID 0000.0001) %MON forcing_qsw_min              =  -1.2746080665400E+02
(PID.TID 0000.0001) %MON forcing_qsw_mean             =  -2.3501966333263E+01
(PID.TID 0000.0001) %MON forcing_qsw_sd               =   3.2652288904245E+01
(PID.TID 0000.0001) %MON forcing_qsw_del2             =   2.3760043643633E-02
(PID.TID 0000.0001) %MON forcing_empmr_max            =   8.3405867218971E-02
(PID.TID 0000.0001) %MON forcing_empmr_min            =  -5.8662530034781E-02
(PID.TID 0000.0001) %MON forcing_empmr_mean           =   6.7737817847099E-05
(PID.TID 0000.0001) %MON forcing_empmr_sd             =   8.4329539526247E-04
(PID.TID 0000.0001) %MON forcing_empmr_del2           =   9.4541470410908E-06
(PID.TID 0000.0001) %MON forcing_fu_max               =   5.0792768160245E+00
(PID.TID 0000.0001) %MON forcing_fu_min               =  -4.1802814187407E+00
(PID.TID 0000.0001) %MON forcing_fu_mean              =   5.8403277545475E-03
(PID.TID 0000.0001) %MON forcing_fu_sd                =   1.1625227851772E-01
(PID.TID 0000.0001) %MON forcing_fu_del2              =   6.1741039867521E-04
(PID.TID 0000.0001) %MON forcing_fv_max               =   5.3553757740256E+00
(PID.TID 0000.0001) %MON forcing_fv_min               =  -4.3458956862761E+00
(PID.TID 0000.0001) %MON forcing_fv_mean              =  -8.3511830765368E-05
(PID.TID 0000.0001) %MON forcing_fv_sd                =   1.1646005719702E-01
(PID.TID 0000.0001) %MON forcing_fv_del2              =   5.9429834867630E-04
(PID.TID 0000.0001) %MON trAdv_CFL_u_max              =   4.7317311844607E-02
(PID.TID 0000.0001) %MON trAdv_CFL_v_max              =   5.0202362114138E-02
(PID.TID 0000.0001) %MON trAdv_CFL_w_max              =   3.7698516423736E-01
(PID.TID 0000.0001) %MON advcfl_uvel_max              =   4.6421019563838E-02
(PID.TID 0000.0001) %MON advcfl_vvel_max              =   5.0019225944083E-02
(PID.TID 0000.0001) %MON advcfl_wvel_max              =   8.0268959758752E-01
(PID.TID 0000.0001) %MON advcfl_W_hf_max              =   3.7698516423736E-01
(PID.TID 0000.0001) %MON pe_b_mean                    =   2.4030936238066E-03
(PID.TID 0000.0001) %MON ke_max                       =   3.8145888871545E+00
(PID.TID 0000.0001) %MON ke_mean                      =   7.5321620751681E-04
(PID.TID 0000.0001) %MON ke_vol                       =   1.3350064351420E+18
(PID.TID 0000.0001) %MON vort_r_min                   =  -9.6896019936503E-05
(PID.TID 0000.0001) %MON vort_r_max                   =   1.0597492241249E-04
(PID.TID 0000.0001) %MON vort_a_mean                  =  -1.9725083092895E-05
(PID.TID 0000.0001) %MON vort_a_sd                    =   7.4538427843768E-05
(PID.TID 0000.0001) %MON vort_p_mean                  =  -2.1669088665333E-05
(PID.TID 0000.0001) %MON vort_p_sd                    =   9.3619137383259E-05
(PID.TID 0000.0001) %MON surfExpan_theta_mean         =   2.4714844107496E-06
(PID.TID 0000.0001) %MON surfExpan_salt_mean          =  -1.4479543664115E-05
(PID.TID 0000.0001) // =======================================================
(PID.TID 0000.0001) // End MONITOR dynamic field statistics
(PID.TID 0000.0001) // =======================================================
(PID.TID 0000.0001) // =======================================================
(PID.TID 0000.0001) // Begin MONITOR SEAICE statistics
(PID.TID 0000.0001) // =======================================================
(PID.TID 0000.0001) %MON seaice_tsnumber              =                174591
(PID.TID 0000.0001) %MON seaice_time_sec              =   7.8565950000000E+07
(PID.TID 0000.0001) %MON seaice_uice_max              =   2.6044891057827E+00
(PID.TID 0000.0001) %MON seaice_uice_min              =  -3.0041559601150E+00
(PID.TID 0000.0001) %MON seaice_uice_mean             =  -3.8156936956844E-04
(PID.TID 0000.0001) %MON seaice_uice_sd               =   1.6430657946826E-01
(PID.TID 0000.0001) %MON seaice_uice_del2             =   5.0749431097831E-04
(PID.TID 0000.0001) %MON seaice_vice_max              =   2.9180274814237E+00
(PID.TID 0000.0001) %MON seaice_vice_min              =  -2.9887691364759E+00
(PID.TID 0000.0001) %MON seaice_vice_mean             =  -1.3081984029689E-02
(PID.TID 0000.0001) %MON seaice_vice_sd               =   1.7017292437948E-01
(PID.TID 0000.0001) %MON seaice_vice_del2             =   4.9558544630801E-04
(PID.TID 0000.0001) %MON seaice_area_max              =   1.0136962544464E+00
(PID.TID 0000.0001) %MON seaice_area_min              =   0.0000000000000E+00
(PID.TID 0000.0001) %MON seaice_area_mean             =   5.7226316535227E-02
(PID.TID 0000.0001) %MON seaice_area_sd               =   2.2270209096423E-01
(PID.TID 0000.0001) %MON seaice_area_del2             =   4.2084727759601E-04
(PID.TID 0000.0001) %MON seaice_heff_max              =   9.9552134197363E+00
(PID.TID 0000.0001) %MON seaice_heff_min              =   0.0000000000000E+00
(PID.TID 0000.0001) %MON seaice_heff_mean             =   1.4999795259858E-01
(PID.TID 0000.0001) %MON seaice_heff_sd               =   7.2232330123672E-01
(PID.TID 0000.0001) %MON seaice_heff_del2             =   1.9698385280079E-03
(PID.TID 0000.0001) %MON seaice_hsnow_max             =   3.2881823761800E+00
(PID.TID 0000.0001) %MON seaice_hsnow_min             =   0.0000000000000E+00
(PID.TID 0000.0001) %MON seaice_hsnow_mean            =   1.2797278402665E-02
(PID.TID 0000.0001) %MON seaice_hsnow_sd              =   7.2173097542375E-02
(PID.TID 0000.0001) %MON seaice_hsnow_del2            =   5.7454133384596E-04
(PID.TID 0000.0001) // =======================================================
(PID.TID 0000.0001) // End MONITOR SEAICE statistics
(PID.TID 0000.0001) // =======================================================
(PID.TID 0000.0001) // =======================================================
(PID.TID 0000.0001) // Begin MONITOR dynamic field statistics
(PID.TID 0000.0001) // =======================================================
(PID.TID 0000.0001) %MON time_tsnumber                =                174592
(PID.TID 0000.0001) %MON time_secondsf                =   7.8566400000000E+07
(PID.TID 0000.0001) %MON dynstat_eta_max              =   1.3263668010080E+01
(PID.TID 0000.0001) %MON dynstat_eta_min              =  -1.2265060778190E+01
(PID.TID 0000.0001) %MON dynstat_eta_mean             =   6.8834384148441E-02
(PID.TID 0000.0001) %MON dynstat_eta_sd               =   8.6138798940387E-01
(PID.TID 0000.0001) %MON dynstat_eta_del2             =   2.9349066202186E-03
(PID.TID 0000.0001) %MON dynstat_uvel_max             =   3.2137133496042E+00
(PID.TID 0000.0001) %MON dynstat_uvel_min             =  -3.6185793980445E+00
(PID.TID 0000.0001) %MON dynstat_uvel_mean            =   2.9845635261200E-03
(PID.TID 0000.0001) %MON dynstat_uvel_sd              =   2.7618260790784E-02
(PID.TID 0000.0001) %MON dynstat_uvel_del2            =   3.6969365473116E-05
(PID.TID 0000.0001) %MON dynstat_vvel_max             =   3.8101334892556E+00
(PID.TID 0000.0001) %MON dynstat_vvel_min             =  -3.2802236120483E+00
(PID.TID 0000.0001) %MON dynstat_vvel_mean            =   1.3026402751179E-03
(PID.TID 0000.0001) %MON dynstat_vvel_sd              =   2.8872214192646E-02
(PID.TID 0000.0001) %MON dynstat_vvel_del2            =   3.7363243339330E-05
(PID.TID 0000.0001) %MON dynstat_wvel_max             =   3.3547471191703E-03
(PID.TID 0000.0001) %MON dynstat_wvel_min             =  -8.0077573722679E-03
(PID.TID 0000.0001) %MON dynstat_wvel_mean            =  -3.3008747683200E-07
(PID.TID 0000.0001) %MON dynstat_wvel_sd              =   8.4228712545410E-05
(PID.TID 0000.0001) %MON dynstat_wvel_del2            =   1.4203713230597E-07
(PID.TID 0000.0001) %MON dynstat_theta_max            =   3.2096825971170E+01
(PID.TID 0000.0001) %MON dynstat_theta_min            =  -1.9639969799752E+00
(PID.TID 0000.0001) %MON dynstat_theta_mean           =   3.5922146080932E+00
(PID.TID 0000.0001) %MON dynstat_theta_sd             =   4.4419253568856E+00
(PID.TID 0000.0001) %MON dynstat_theta_del2           =   1.1435889018889E-04
(PID.TID 0000.0001) %MON dynstat_salt_max             =   4.0655996770442E+01
(PID.TID 0000.0001) %MON dynstat_salt_min             =   1.6454882565606E+01
(PID.TID 0000.0001) %MON dynstat_salt_mean            =   3.4724918770130E+01
(PID.TID 0000.0001) %MON dynstat_salt_sd              =   3.7959278445599E-01
(PID.TID 0000.0001) %MON dynstat_salt_del2            =   1.1638989562872E-04
(PID.TID 0000.0001) %MON dynstat_sst_max              =   3.2096825971170E+01
(PID.TID 0000.0001) %MON dynstat_sst_min              =  -1.9639969799752E+00
(PID.TID 0000.0001) %MON dynstat_sst_mean             =   1.8170018500106E+01
(PID.TID 0000.0001) %MON dynstat_sst_sd               =   1.0106610409196E+01
(PID.TID 0000.0001) %MON dynstat_sst_del2             =   9.6912244775064E-04
(PID.TID 0000.0001) %MON dynstat_sss_max              =   3.9488602993171E+01
(PID.TID 0000.0001) %MON dynstat_sss_min              =   1.6454882565606E+01
(PID.TID 0000.0001) %MON dynstat_sss_mean             =   3.4665129746292E+01
(PID.TID 0000.0001) %MON dynstat_sss_sd               =   1.2649867966314E+00
(PID.TID 0000.0001) %MON dynstat_sss_del2             =   1.3580489334895E-03
(PID.TID 0000.0001) %MON forcing_qnet_max             =   4.1157523437500E+04
(PID.TID 0000.0001) %MON forcing_qnet_min             =  -4.5331366070421E+04
(PID.TID 0000.0001) %MON forcing_qnet_mean            =  -1.5691431270327E+02
(PID.TID 0000.0001) %MON forcing_qnet_sd              =   6.5532773164090E+02
(PID.TID 0000.0001) %MON forcing_qnet_del2            =   5.2678058182857E+00
(PID.TID 0000.0001) %MON forcing_qsw_max              =   0.0000000000000E+00
(PID.TID 0000.0001) %MON forcing_qsw_min              =  -1.2961589920104E+02
(PID.TID 0000.0001) %MON forcing_qsw_mean             =  -2.3394586217238E+01
(PID.TID 0000.0001) %MON forcing_qsw_sd               =   3.2570790866692E+01
(PID.TID 0000.0001) %MON forcing_qsw_del2             =   2.3848787152105E-02
(PID.TID 0000.0001) %MON forcing_empmr_max            =   8.3952173590660E-02
(PID.TID 0000.0001) %MON forcing_empmr_min            =  -5.6231122463942E-02
(PID.TID 0000.0001) %MON forcing_empmr_mean           =   6.7135934878140E-05
(PID.TID 0000.0001) %MON forcing_empmr_sd             =   8.4432292552516E-04
(PID.TID 0000.0001) %MON forcing_empmr_del2           =   9.4530130315907E-06
(PID.TID 0000.0001) %MON forcing_fu_max               =   4.5226784379106E+00
(PID.TID 0000.0001) %MON forcing_fu_min               =  -3.7861003227630E+00
(PID.TID 0000.0001) %MON forcing_fu_mean              =   5.9888907174502E-03
(PID.TID 0000.0001) %MON forcing_fu_sd                =   1.1933685740088E-01
(PID.TID 0000.0001) %MON forcing_fu_del2              =   7.0732262493040E-04
(PID.TID 0000.0001) %MON forcing_fv_max               =   4.2772751818248E+00
(PID.TID 0000.0001) %MON forcing_fv_min               =  -4.1970588715325E+00
(PID.TID 0000.0001) %MON forcing_fv_mean              =  -1.4646291284114E-04
(PID.TID 0000.0001) %MON forcing_fv_sd                =   1.1977404350803E-01
(PID.TID 0000.0001) %MON forcing_fv_del2              =   6.8735590711392E-04
(PID.TID 0000.0001) %MON trAdv_CFL_u_max              =   5.5403840456858E-02
(PID.TID 0000.0001) %MON trAdv_CFL_v_max              =   5.9290437669617E-02
(PID.TID 0000.0001) %MON trAdv_CFL_w_max              =   3.3892250614548E-01
(PID.TID 0000.0001) %MON advcfl_uvel_max              =   5.4354371824964E-02
(PID.TID 0000.0001) %MON advcfl_vvel_max              =   5.9074148570490E-02
(PID.TID 0000.0001) %MON advcfl_wvel_max              =   7.2069816350411E-01
(PID.TID 0000.0001) %MON advcfl_W_hf_max              =   3.3892250614548E-01
(PID.TID 0000.0001) %MON pe_b_mean                    =   2.3553438380789E-03
(PID.TID 0000.0001) %MON ke_max                       =   5.7025406073676E+00
(PID.TID 0000.0001) %MON ke_mean                      =   7.7487806795971E-04
(PID.TID 0000.0001) %MON ke_vol                       =   1.3350064351420E+18
(PID.TID 0000.0001) %MON vort_r_min                   =  -1.1697581643680E-04
(PID.TID 0000.0001) %MON vort_r_max                   =   1.3515443823969E-04
(PID.TID 0000.0001) %MON vort_a_mean                  =  -1.9725084152954E-05
(PID.TID 0000.0001) %MON vort_a_sd                    =   7.4538472648473E-05
(PID.TID 0000.0001) %MON vort_p_mean                  =  -2.1669089829866E-05
(PID.TID 0000.0001) %MON vort_p_sd                    =   9.3618785567970E-05
(PID.TID 0000.0001) %MON surfExpan_theta_mean         =   3.5382936124845E-06
(PID.TID 0000.0001) %MON surfExpan_salt_mean          =  -1.2494728940052E-05
(PID.TID 0000.0001) // =======================================================
(PID.TID 0000.0001) // End MONITOR dynamic field statistics
(PID.TID 0000.0001) // =======================================================
(PID.TID 0000.0001) // =======================================================
(PID.TID 0000.0001) // Begin MONITOR SEAICE statistics
(PID.TID 0000.0001) // =======================================================
(PID.TID 0000.0001) %MON seaice_tsnumber              =                174592
(PID.TID 0000.0001) %MON seaice_time_sec              =   7.8566400000000E+07
(PID.TID 0000.0001) %MON seaice_uice_max              =   3.1376250614855E+00
(PID.TID 0000.0001) %MON seaice_uice_min              =  -3.5940966677507E+00
(PID.TID 0000.0001) %MON seaice_uice_mean             =  -4.7595444541632E-04
(PID.TID 0000.0001) %MON seaice_uice_sd               =   1.6764910136005E-01
(PID.TID 0000.0001) %MON seaice_uice_del2             =   5.6182083916432E-04
(PID.TID 0000.0001) %MON seaice_vice_max              =   3.5935176632063E+00
(PID.TID 0000.0001) %MON seaice_vice_min              =  -3.3016542649025E+00
(PID.TID 0000.0001) %MON seaice_vice_mean             =  -1.3351180057567E-02
(PID.TID 0000.0001) %MON seaice_vice_sd               =   1.7374599959328E-01
(PID.TID 0000.0001) %MON seaice_vice_del2             =   5.6565223142530E-04
(PID.TID 0000.0001) %MON seaice_area_max              =   1.0205194367193E+00
(PID.TID 0000.0001) %MON seaice_area_min              =   0.0000000000000E+00
(PID.TID 0000.0001) %MON seaice_area_mean             =   5.7226390482916E-02
(PID.TID 0000.0001) %MON seaice_area_sd               =   2.2266920652718E-01
(PID.TID 0000.0001) %MON seaice_area_del2             =   4.1701629991510E-04
(PID.TID 0000.0001) %MON seaice_heff_max              =   9.9550265884157E+00
(PID.TID 0000.0001) %MON seaice_heff_min              =   0.0000000000000E+00
(PID.TID 0000.0001) %MON seaice_heff_mean             =   1.5000959919981E-01
(PID.TID 0000.0001) %MON seaice_heff_sd               =   7.2216300781020E-01
(PID.TID 0000.0001) %MON seaice_heff_del2             =   1.9407164783718E-03
(PID.TID 0000.0001) %MON seaice_hsnow_max             =   3.2881141605149E+00
(PID.TID 0000.0001) %MON seaice_hsnow_min             =   0.0000000000000E+00
(PID.TID 0000.0001) %MON seaice_hsnow_mean            =   1.2796769112972E-02
(PID.TID 0000.0001) %MON seaice_hsnow_sd              =   7.1942977402466E-02
(PID.TID 0000.0001) %MON seaice_hsnow_del2            =   5.6493832869782E-04
(PID.TID 0000.0001) // =======================================================
(PID.TID 0000.0001) // End MONITOR SEAICE statistics
(PID.TID 0000.0001) // =======================================================
(PID.TID 0000.0001) // =======================================================
(PID.TID 0000.0001) // Begin MONITOR dynamic field statistics
(PID.TID 0000.0001) // =======================================================
(PID.TID 0000.0001) %MON time_tsnumber                =                174593
(PID.TID 0000.0001) %MON time_secondsf                =   7.8566850000000E+07
(PID.TID 0000.0001) %MON dynstat_eta_max              =   1.3085138496292E+01
(PID.TID 0000.0001) %MON dynstat_eta_min              =  -1.2633741373175E+01
(PID.TID 0000.0001) %MON dynstat_eta_mean             =   6.8653845475239E-02
(PID.TID 0000.0001) %MON dynstat_eta_sd               =   8.5370604323950E-01
(PID.TID 0000.0001) %MON dynstat_eta_del2             =   2.7803045006971E-03
(PID.TID 0000.0001) %MON dynstat_uvel_max             =   3.4270907437504E+00
(PID.TID 0000.0001) %MON dynstat_uvel_min             =  -4.0067426412827E+00
(PID.TID 0000.0001) %MON dynstat_uvel_mean            =   2.9524449750117E-03
(PID.TID 0000.0001) %MON dynstat_uvel_sd              =   2.7921096024700E-02
(PID.TID 0000.0001) %MON dynstat_uvel_del2            =   3.7364917428441E-05
(PID.TID 0000.0001) %MON dynstat_vvel_max             =   4.2244229638245E+00
(PID.TID 0000.0001) %MON dynstat_vvel_min             =  -3.5961318222866E+00
(PID.TID 0000.0001) %MON dynstat_vvel_mean            =   1.2658691753618E-03
(PID.TID 0000.0001) %MON dynstat_vvel_sd              =   2.9154133812814E-02
(PID.TID 0000.0001) %MON dynstat_vvel_del2            =   3.7874987166851E-05
(PID.TID 0000.0001) %MON dynstat_wvel_max             =   3.9307866942443E-03
(PID.TID 0000.0001) %MON dynstat_wvel_min             =  -7.8613802743520E-03
(PID.TID 0000.0001) %MON dynstat_wvel_mean            =  -3.1576713257914E-07
(PID.TID 0000.0001) %MON dynstat_wvel_sd              =   8.0573872001960E-05
(PID.TID 0000.0001) %MON dynstat_wvel_del2            =   1.3090590179036E-07
(PID.TID 0000.0001) %MON dynstat_theta_max            =   3.2100050407779E+01
(PID.TID 0000.0001) %MON dynstat_theta_min            =  -1.9682911623436E+00
(PID.TID 0000.0001) %MON dynstat_theta_mean           =   3.5922185657364E+00
(PID.TID 0000.0001) %MON dynstat_theta_sd             =   4.4419329599744E+00
(PID.TID 0000.0001) %MON dynstat_theta_del2           =   1.1403449475482E-04
(PID.TID 0000.0001) %MON dynstat_salt_max             =   4.0655996770437E+01
(PID.TID 0000.0001) %MON dynstat_salt_min             =   1.6452133657733E+01
(PID.TID 0000.0001) %MON dynstat_salt_mean            =   3.4724918363909E+01
(PID.TID 0000.0001) %MON dynstat_salt_sd              =   3.7953472859350E-01
(PID.TID 0000.0001) %MON dynstat_salt_del2            =   1.0875864807442E-04
(PID.TID 0000.0001) %MON dynstat_sst_max              =   3.2100050407779E+01
(PID.TID 0000.0001) %MON dynstat_sst_min              =  -1.9682911623436E+00
(PID.TID 0000.0001) %MON dynstat_sst_mean             =   1.8170925779614E+01
(PID.TID 0000.0001) %MON dynstat_sst_sd               =   1.0107364358495E+01
(PID.TID 0000.0001) %MON dynstat_sst_del2             =   9.8755513428572E-04
(PID.TID 0000.0001) %MON dynstat_sss_max              =   3.9488638269756E+01
(PID.TID 0000.0001) %MON dynstat_sss_min              =   1.6452133657733E+01
(PID.TID 0000.0001) %MON dynstat_sss_mean             =   3.4664323320539E+01
(PID.TID 0000.0001) %MON dynstat_sss_sd               =   1.2667080580057E+00
(PID.TID 0000.0001) %MON dynstat_sss_del2             =   1.4511471942731E-03
(PID.TID 0000.0001) %MON forcing_qnet_max             =   6.6114710937500E+04
(PID.TID 0000.0001) %MON forcing_qnet_min             =  -3.5777945312500E+04
(PID.TID 0000.0001) %MON forcing_qnet_mean            =  -1.5078853731499E+02
(PID.TID 0000.0001) %MON forcing_qnet_sd              =   6.3621287036039E+02
(PID.TID 0000.0001) %MON forcing_qnet_del2            =   7.0398639886155E+00
(PID.TID 0000.0001) %MON forcing_qsw_max              =   0.0000000000000E+00
(PID.TID 0000.0001) %MON forcing_qsw_min              =  -1.3161022871620E+02
(PID.TID 0000.0001) %MON forcing_qsw_mean             =  -2.3272131619779E+01
(PID.TID 0000.0001) %MON forcing_qsw_sd               =   3.2474142332223E+01
(PID.TID 0000.0001) %MON forcing_qsw_del2             =   2.3925238688142E-02
(PID.TID 0000.0001) %MON forcing_empmr_max            =   8.4298826754093E-02
(PID.TID 0000.0001) %MON forcing_empmr_min            =  -5.5300965905190E-02
(PID.TID 0000.0001) %MON forcing_empmr_mean           =   6.6571759324234E-05
(PID.TID 0000.0001) %MON forcing_empmr_sd             =   8.5043935773262E-04
(PID.TID 0000.0001) %MON forcing_empmr_del2           =   9.4851026459884E-06
(PID.TID 0000.0001) %MON forcing_fu_max               =   4.5008913373572E+00
(PID.TID 0000.0001) %MON forcing_fu_min               =  -3.4060053069532E+00
(PID.TID 0000.0001) %MON forcing_fu_mean              =   6.1197972744611E-03
(PID.TID 0000.0001) %MON forcing_fu_sd                =   1.1919509712089E-01
(PID.TID 0000.0001) %MON forcing_fu_del2              =   6.8657644086412E-04
(PID.TID 0000.0001) %MON forcing_fv_max               =   4.1069691233356E+00
(PID.TID 0000.0001) %MON forcing_fv_min               =  -3.5674505944125E+00
(PID.TID 0000.0001) %MON forcing_fv_mean              =  -1.6580563012313E-04
(PID.TID 0000.0001) %MON forcing_fv_sd                =   1.1990869270601E-01
(PID.TID 0000.0001) %MON forcing_fv_del2              =   6.7574696559760E-04
(PID.TID 0000.0001) %MON trAdv_CFL_u_max              =   5.9590249235810E-02
(PID.TID 0000.0001) %MON trAdv_CFL_v_max              =   6.5000516695832E-02
(PID.TID 0000.0001) %MON trAdv_CFL_w_max              =   3.4628591369673E-01
(PID.TID 0000.0001) %MON advcfl_uvel_max              =   5.8461480962274E-02
(PID.TID 0000.0001) %MON advcfl_vvel_max              =   6.4763397461239E-02
(PID.TID 0000.0001) %MON advcfl_wvel_max              =   7.0752422469168E-01
(PID.TID 0000.0001) %MON advcfl_W_hf_max              =   3.4628591369673E-01
(PID.TID 0000.0001) %MON pe_b_mean                    =   2.3166898832937E-03
(PID.TID 0000.0001) %MON ke_max                       =   7.6728857710336E+00
(PID.TID 0000.0001) %MON ke_mean                      =   7.9073861621759E-04
(PID.TID 0000.0001) %MON ke_vol                       =   1.3350064351420E+18
(PID.TID 0000.0001) %MON vort_r_min                   =  -1.2830464287499E-04
(PID.TID 0000.0001) %MON vort_r_max                   =   1.5523047811216E-04
(PID.TID 0000.0001) %MON vort_a_mean                  =  -1.9725084380401E-05
(PID.TID 0000.0001) %MON vort_a_sd                    =   7.4538490368520E-05
(PID.TID 0000.0001) %MON vort_p_mean                  =  -2.1669090079729E-05
(PID.TID 0000.0001) %MON vort_p_sd                    =   9.3618289828540E-05
(PID.TID 0000.0001) %MON surfExpan_theta_mean         =   4.4752622159289E-06
(PID.TID 0000.0001) %MON surfExpan_salt_mean          =  -1.0725304714339E-05
(PID.TID 0000.0001) // =======================================================
(PID.TID 0000.0001) // End MONITOR dynamic field statistics
(PID.TID 0000.0001) // =======================================================
(PID.TID 0000.0001) // =======================================================
(PID.TID 0000.0001) // Begin MONITOR SEAICE statistics
(PID.TID 0000.0001) // =======================================================
(PID.TID 0000.0001) %MON seaice_tsnumber              =                174593
(PID.TID 0000.0001) %MON seaice_time_sec              =   7.8566850000000E+07
(PID.TID 0000.0001) %MON seaice_uice_max              =   3.6204485606826E+00
(PID.TID 0000.0001) %MON seaice_uice_min              =  -4.0883607961061E+00
(PID.TID 0000.0001) %MON seaice_uice_mean             =  -5.8362039614159E-04
(PID.TID 0000.0001) %MON seaice_uice_sd               =   1.7166181109270E-01
(PID.TID 0000.0001) %MON seaice_uice_del2             =   6.1634076979418E-04
(PID.TID 0000.0001) %MON seaice_vice_max              =   4.2026031212106E+00
(PID.TID 0000.0001) %MON seaice_vice_min              =  -3.5495561034872E+00
(PID.TID 0000.0001) %MON seaice_vice_mean             =  -1.3664423514544E-02
(PID.TID 0000.0001) %MON seaice_vice_sd               =   1.7799955565586E-01
(PID.TID 0000.0001) %MON seaice_vice_del2             =   6.3254817445066E-04
(PID.TID 0000.0001) %MON seaice_area_max              =   1.0222570878316E+00
(PID.TID 0000.0001) %MON seaice_area_min              =   0.0000000000000E+00
(PID.TID 0000.0001) %MON seaice_area_mean             =   5.7226033912946E-02
(PID.TID 0000.0001) %MON seaice_area_sd               =   2.2263580149402E-01
(PID.TID 0000.0001) %MON seaice_area_del2             =   4.1371997142903E-04
(PID.TID 0000.0001) %MON seaice_heff_max              =   9.9547694483719E+00
(PID.TID 0000.0001) %MON seaice_heff_min              =   0.0000000000000E+00
(PID.TID 0000.0001) %MON seaice_heff_mean             =   1.5002081003897E-01
(PID.TID 0000.0001) %MON seaice_heff_sd               =   7.2202946942265E-01
(PID.TID 0000.0001) %MON seaice_heff_del2             =   1.9166700559409E-03
(PID.TID 0000.0001) %MON seaice_hsnow_max             =   3.2880378047469E+00
(PID.TID 0000.0001) %MON seaice_hsnow_min             =   0.0000000000000E+00
(PID.TID 0000.0001) %MON seaice_hsnow_mean            =   1.2796151441749E-02
(PID.TID 0000.0001) %MON seaice_hsnow_sd              =   7.1738710454815E-02
(PID.TID 0000.0001) %MON seaice_hsnow_del2            =   5.5704532888992E-04
(PID.TID 0000.0001) // =======================================================
(PID.TID 0000.0001) // End MONITOR SEAICE statistics
(PID.TID 0000.0001) // =======================================================
(PID.TID 0000.0001) // =======================================================
(PID.TID 0000.0001) // Begin MONITOR dynamic field statistics
(PID.TID 0000.0001) // =======================================================
(PID.TID 0000.0001) %MON time_tsnumber                =                174594
(PID.TID 0000.0001) %MON time_secondsf                =   7.8567300000000E+07
(PID.TID 0000.0001) %MON dynstat_eta_max              =   1.3222696746632E+01
(PID.TID 0000.0001) %MON dynstat_eta_min              =  -1.2620892833445E+01
(PID.TID 0000.0001) %MON dynstat_eta_mean             =   6.8485818408018E-02
(PID.TID 0000.0001) %MON dynstat_eta_sd               =   8.4753145243105E-01
(PID.TID 0000.0001) %MON dynstat_eta_del2             =   2.6657009887206E-03
(PID.TID 0000.0001) %MON dynstat_uvel_max             =   3.6042584839811E+00
(PID.TID 0000.0001) %MON dynstat_uvel_min             =  -4.3149403020489E+00
(PID.TID 0000.0001) %MON dynstat_uvel_mean            =   2.9026132359252E-03
(PID.TID 0000.0001) %MON dynstat_uvel_sd              =   2.8154899591272E-02
(PID.TID 0000.0001) %MON dynstat_uvel_del2            =   3.7050550291107E-05
(PID.TID 0000.0001) %MON dynstat_vvel_max             =   4.4178032800384E+00
(PID.TID 0000.0001) %MON dynstat_vvel_min             =  -3.7171312619409E+00
(PID.TID 0000.0001) %MON dynstat_vvel_mean            =   1.2363139165641E-03
(PID.TID 0000.0001) %MON dynstat_vvel_sd              =   2.9380482175222E-02
(PID.TID 0000.0001) %MON dynstat_vvel_del2            =   3.7522541205760E-05
(PID.TID 0000.0001) %MON dynstat_wvel_max             =   4.7091822953782E-03
(PID.TID 0000.0001) %MON dynstat_wvel_min             =  -7.1637146224435E-03
(PID.TID 0000.0001) %MON dynstat_wvel_mean            =  -3.0211825228999E-07
(PID.TID 0000.0001) %MON dynstat_wvel_sd              =   7.8399677293228E-05
(PID.TID 0000.0001) %MON dynstat_wvel_del2            =   1.2474467168384E-07
(PID.TID 0000.0001) %MON dynstat_theta_max            =   3.2103542008151E+01
(PID.TID 0000.0001) %MON dynstat_theta_min            =  -1.9724453560559E+00
(PID.TID 0000.0001) %MON dynstat_theta_mean           =   3.5922221346189E+00
(PID.TID 0000.0001) %MON dynstat_theta_sd             =   4.4419407942474E+00
(PID.TID 0000.0001) %MON dynstat_theta_del2           =   1.1391777428010E-04
(PID.TID 0000.0001) %MON dynstat_salt_max             =   4.0655996770431E+01
(PID.TID 0000.0001) %MON dynstat_salt_min             =   1.6448080315884E+01
(PID.TID 0000.0001) %MON dynstat_salt_mean            =   3.4724917672618E+01
(PID.TID 0000.0001) %MON dynstat_salt_sd              =   3.7949939307144E-01
(PID.TID 0000.0001) %MON dynstat_salt_del2            =   1.0392576867743E-04
(PID.TID 0000.0001) %MON dynstat_sst_max              =   3.2103542008151E+01
(PID.TID 0000.0001) %MON dynstat_sst_min              =  -1.9724453560559E+00
(PID.TID 0000.0001) %MON dynstat_sst_mean             =   1.8171816556903E+01
(PID.TID 0000.0001) %MON dynstat_sst_sd               =   1.0108223431878E+01
(PID.TID 0000.0001) %MON dynstat_sst_del2             =   1.0014973736174E-03
(PID.TID 0000.0001) %MON dynstat_sss_max              =   3.9488674689566E+01
(PID.TID 0000.0001) %MON dynstat_sss_min              =   1.6448080315884E+01
(PID.TID 0000.0001) %MON dynstat_sss_mean             =   3.4663721589276E+01
(PID.TID 0000.0001) %MON dynstat_sss_sd               =   1.2678582615234E+00
(PID.TID 0000.0001) %MON dynstat_sss_del2             =   1.5064109397306E-03
(PID.TID 0000.0001) %MON forcing_qnet_max             =   9.5501789062500E+04
(PID.TID 0000.0001) %MON forcing_qnet_min             =  -1.5196770643045E+04
(PID.TID 0000.0001) %MON forcing_qnet_mean            =  -1.4082521102420E+02
(PID.TID 0000.0001) %MON forcing_qnet_sd              =   6.1351774594166E+02
(PID.TID 0000.0001) %MON forcing_qnet_del2            =   7.5903066277788E+00
(PID.TID 0000.0001) %MON forcing_qsw_max              =   0.0000000000000E+00
(PID.TID 0000.0001) %MON forcing_qsw_min              =  -1.3344296459639E+02
(PID.TID 0000.0001) %MON forcing_qsw_mean             =  -2.3134472359504E+01
(PID.TID 0000.0001) %MON forcing_qsw_sd               =   3.2362851401322E+01
(PID.TID 0000.0001) %MON forcing_qsw_del2             =   2.3990638499820E-02
(PID.TID 0000.0001) %MON forcing_empmr_max            =   8.4177508950233E-02
(PID.TID 0000.0001) %MON forcing_empmr_min            =  -5.6546617299318E-02
(PID.TID 0000.0001) %MON forcing_empmr_mean           =   6.5938386407928E-05
(PID.TID 0000.0001) %MON forcing_empmr_sd             =   8.6093504562377E-04
(PID.TID 0000.0001) %MON forcing_empmr_del2           =   9.5472474782742E-06
(PID.TID 0000.0001) %MON forcing_fu_max               =   3.9910317778134E+00
(PID.TID 0000.0001) %MON forcing_fu_min               =  -3.0335161843989E+00
(PID.TID 0000.0001) %MON forcing_fu_mean              =   6.2353441863331E-03
(PID.TID 0000.0001) %MON forcing_fu_sd                =   1.1765269192861E-01
(PID.TID 0000.0001) %MON forcing_fu_del2              =   6.2021878558639E-04
(PID.TID 0000.0001) %MON forcing_fv_max               =   3.9293720824777E+00
(PID.TID 0000.0001) %MON forcing_fv_min               =  -3.3104058138817E+00
(PID.TID 0000.0001) %MON forcing_fv_mean              =  -2.0846323214144E-04
(PID.TID 0000.0001) %MON forcing_fv_sd                =   1.1861562801594E-01
(PID.TID 0000.0001) %MON forcing_fv_del2              =   6.1850922345297E-04
(PID.TID 0000.0001) %MON trAdv_CFL_u_max              =   6.0193795854169E-02
(PID.TID 0000.0001) %MON trAdv_CFL_v_max              =   6.7187596170697E-02
(PID.TID 0000.0001) %MON trAdv_CFL_w_max              =   3.2236715800996E-01
(PID.TID 0000.0001) %MON advcfl_uvel_max              =   5.9053595101610E-02
(PID.TID 0000.0001) %MON advcfl_vvel_max              =   6.6942498559355E-02
(PID.TID 0000.0001) %MON advcfl_wvel_max              =   6.1813625014806E-01
(PID.TID 0000.0001) %MON advcfl_W_hf_max              =   3.2236715800996E-01
(PID.TID 0000.0001) %MON pe_b_mean                    =   2.2838733621642E-03
(PID.TID 0000.0001) %MON ke_max                       =   9.2656941472168E+00
(PID.TID 0000.0001) %MON ke_mean                      =   8.0327276318053E-04
(PID.TID 0000.0001) %MON ke_vol                       =   1.3350064351420E+18
(PID.TID 0000.0001) %MON vort_r_min                   =  -1.3102071545201E-04
(PID.TID 0000.0001) %MON vort_r_max                   =   1.6594176710131E-04
(PID.TID 0000.0001) %MON vort_a_mean                  =  -1.9725084328973E-05
(PID.TID 0000.0001) %MON vort_a_sd                    =   7.4538495494302E-05
(PID.TID 0000.0001) %MON vort_p_mean                  =  -2.1669090023232E-05
(PID.TID 0000.0001) %MON vort_p_sd                    =   9.3617732556369E-05
(PID.TID 0000.0001) %MON surfExpan_theta_mean         =   5.2780611139419E-06
(PID.TID 0000.0001) %MON surfExpan_salt_mean          =  -9.1445526658124E-06
(PID.TID 0000.0001) // =======================================================
(PID.TID 0000.0001) // End MONITOR dynamic field statistics
(PID.TID 0000.0001) // =======================================================
(PID.TID 0000.0001) // =======================================================
(PID.TID 0000.0001) // Begin MONITOR SEAICE statistics
(PID.TID 0000.0001) // =======================================================
(PID.TID 0000.0001) %MON seaice_tsnumber              =                174594
(PID.TID 0000.0001) %MON seaice_time_sec              =   7.8567300000000E+07
(PID.TID 0000.0001) %MON seaice_uice_max              =   3.9737737374744E+00
(PID.TID 0000.0001) %MON seaice_uice_min              =  -4.4967279403934E+00
(PID.TID 0000.0001) %MON seaice_uice_mean             =  -7.0181569552845E-04
(PID.TID 0000.0001) %MON seaice_uice_sd               =   1.7588051250358E-01
(PID.TID 0000.0001) %MON seaice_uice_del2             =   6.6118808785578E-04
(PID.TID 0000.0001) %MON seaice_vice_max              =   4.6548338698531E+00
(PID.TID 0000.0001) %MON seaice_vice_min              =  -3.8106165101191E+00
(PID.TID 0000.0001) %MON seaice_vice_mean             =  -1.4007957930369E-02
(PID.TID 0000.0001) %MON seaice_vice_sd               =   1.8239312628319E-01
(PID.TID 0000.0001) %MON seaice_vice_del2             =   6.8401154712021E-04
(PID.TID 0000.0001) %MON seaice_area_max              =   1.0228927546460E+00
(PID.TID 0000.0001) %MON seaice_area_min              =   0.0000000000000E+00
(PID.TID 0000.0001) %MON seaice_area_mean             =   5.7224950650507E-02
(PID.TID 0000.0001) %MON seaice_area_sd               =   2.2260195991249E-01
(PID.TID 0000.0001) %MON seaice_area_del2             =   4.1091507472180E-04
(PID.TID 0000.0001) %MON seaice_heff_max              =   9.9544654399120E+00
(PID.TID 0000.0001) %MON seaice_heff_min              =   0.0000000000000E+00
(PID.TID 0000.0001) %MON seaice_heff_mean             =   1.5003152748791E-01
(PID.TID 0000.0001) %MON seaice_heff_sd               =   7.2192692057803E-01
(PID.TID 0000.0001) %MON seaice_heff_del2             =   1.8967856706682E-03
(PID.TID 0000.0001) %MON seaice_hsnow_max             =   3.2879548805264E+00
(PID.TID 0000.0001) %MON seaice_hsnow_min             =   0.0000000000000E+00
(PID.TID 0000.0001) %MON seaice_hsnow_mean            =   1.2795445271164E-02
(PID.TID 0000.0001) %MON seaice_hsnow_sd              =   7.1563988281892E-02
(PID.TID 0000.0001) %MON seaice_hsnow_del2            =   5.5047217947430E-04
(PID.TID 0000.0001) // =======================================================
(PID.TID 0000.0001) // End MONITOR SEAICE statistics
(PID.TID 0000.0001) // =======================================================
(PID.TID 0000.0001) // =======================================================
(PID.TID 0000.0001) // Begin MONITOR dynamic field statistics
(PID.TID 0000.0001) // =======================================================
(PID.TID 0000.0001) %MON time_tsnumber                =                174595
(PID.TID 0000.0001) %MON time_secondsf                =   7.8567750000000E+07
(PID.TID 0000.0001) %MON dynstat_eta_max              =   1.3066752811719E+01
(PID.TID 0000.0001) %MON dynstat_eta_min              =  -1.4260629275893E+01
(PID.TID 0000.0001) %MON dynstat_eta_mean             =   6.8329564845033E-02
(PID.TID 0000.0001) %MON dynstat_eta_sd               =   8.4228163216192E-01
(PID.TID 0000.0001) %MON dynstat_eta_del2             =   2.5903068053682E-03
(PID.TID 0000.0001) %MON dynstat_uvel_max             =   3.9266131225124E+00
(PID.TID 0000.0001) %MON dynstat_uvel_min             =  -4.5868933602716E+00
(PID.TID 0000.0001) %MON dynstat_uvel_mean            =   2.8377735291979E-03
(PID.TID 0000.0001) %MON dynstat_uvel_sd              =   2.8348332927535E-02
(PID.TID 0000.0001) %MON dynstat_uvel_del2            =   3.6318129510625E-05
(PID.TID 0000.0001) %MON dynstat_vvel_max             =   4.4161139943208E+00
(PID.TID 0000.0001) %MON dynstat_vvel_min             =  -3.6512184338029E+00
(PID.TID 0000.0001) %MON dynstat_vvel_mean            =   1.2117216904981E-03
(PID.TID 0000.0001) %MON dynstat_vvel_sd              =   2.9569852235054E-02
(PID.TID 0000.0001) %MON dynstat_vvel_del2            =   3.6681026219982E-05
(PID.TID 0000.0001) %MON dynstat_wvel_max             =   5.5186873457433E-03
(PID.TID 0000.0001) %MON dynstat_wvel_min             =  -6.2356004808119E-03
(PID.TID 0000.0001) %MON dynstat_wvel_mean            =  -2.8935965280616E-07
(PID.TID 0000.0001) %MON dynstat_wvel_sd              =   7.7119127166822E-05
(PID.TID 0000.0001) %MON dynstat_wvel_del2            =   1.2086689730408E-07
(PID.TID 0000.0001) %MON dynstat_theta_max            =   3.2107324893400E+01
(PID.TID 0000.0001) %MON dynstat_theta_min            =  -1.9763968489079E+00
(PID.TID 0000.0001) %MON dynstat_theta_mean           =   3.5922254895627E+00
(PID.TID 0000.0001) %MON dynstat_theta_sd             =   4.4419492697024E+00
(PID.TID 0000.0001) %MON dynstat_theta_del2           =   1.1391762106251E-04
(PID.TID 0000.0001) %MON dynstat_salt_max             =   4.0655996770425E+01
(PID.TID 0000.0001) %MON dynstat_salt_min             =   1.6443684111520E+01
(PID.TID 0000.0001) %MON dynstat_salt_mean            =   3.4724916841871E+01
(PID.TID 0000.0001) %MON dynstat_salt_sd              =   3.7947541233142E-01
(PID.TID 0000.0001) %MON dynstat_salt_del2            =   1.0071008144201E-04
(PID.TID 0000.0001) %MON dynstat_sst_max              =   3.2107324893400E+01
(PID.TID 0000.0001) %MON dynstat_sst_min              =  -1.9763968489079E+00
(PID.TID 0000.0001) %MON dynstat_sst_mean             =   1.8172625727452E+01
(PID.TID 0000.0001) %MON dynstat_sst_sd               =   1.0109130339756E+01
(PID.TID 0000.0001) %MON dynstat_sst_del2             =   1.0135007090697E-03
(PID.TID 0000.0001) %MON dynstat_sss_max              =   3.9488711633922E+01
(PID.TID 0000.0001) %MON dynstat_sss_min              =   1.6443684111520E+01
(PID.TID 0000.0001) %MON dynstat_sss_mean             =   3.4663191270264E+01
(PID.TID 0000.0001) %MON dynstat_sss_sd               =   1.2686537701189E+00
(PID.TID 0000.0001) %MON dynstat_sss_del2             =   1.5437137815069E-03
(PID.TID 0000.0001) %MON forcing_qnet_max             =   1.0257070312500E+05
(PID.TID 0000.0001) %MON forcing_qnet_min             =  -1.1774483852005E+04
(PID.TID 0000.0001) %MON forcing_qnet_mean            =  -1.3625188996078E+02
(PID.TID 0000.0001) %MON forcing_qnet_sd              =   6.1604304222938E+02
(PID.TID 0000.0001) %MON forcing_qnet_del2            =   8.6215309990441E+00
(PID.TID 0000.0001) %MON forcing_qsw_max              =   0.0000000000000E+00
(PID.TID 0000.0001) %MON forcing_qsw_min              =  -1.3511429899565E+02
(PID.TID 0000.0001) %MON forcing_qsw_mean             =  -2.2981512204337E+01
(PID.TID 0000.0001) %MON forcing_qsw_sd               =   3.2237397156391E+01
(PID.TID 0000.0001) %MON forcing_qsw_del2             =   2.4046262270494E-02
(PID.TID 0000.0001) %MON forcing_empmr_max            =   8.7745591998100E-02
(PID.TID 0000.0001) %MON forcing_empmr_min            =  -5.9497267007828E-02
(PID.TID 0000.0001) %MON forcing_empmr_mean           =   6.5647880115287E-05
(PID.TID 0000.0001) %MON forcing_empmr_sd             =   8.8237810836866E-04
(PID.TID 0000.0001) %MON forcing_empmr_del2           =   9.6825606436144E-06
(PID.TID 0000.0001) %MON forcing_fu_max               =   3.4869038240871E+00
(PID.TID 0000.0001) %MON forcing_fu_min               =  -2.7952637942857E+00
(PID.TID 0000.0001) %MON forcing_fu_mean              =   6.3601794205782E-03
(PID.TID 0000.0001) %MON forcing_fu_sd                =   1.1616184770993E-01
(PID.TID 0000.0001) %MON forcing_fu_del2              =   5.4586080007358E-04
(PID.TID 0000.0001) %MON forcing_fv_max               =   3.6156699560519E+00
(PID.TID 0000.0001) %MON forcing_fv_min               =  -2.6914529171724E+00
(PID.TID 0000.0001) %MON forcing_fv_mean              =  -2.6277983176841E-04
(PID.TID 0000.0001) %MON forcing_fv_sd                =   1.1700137262629E-01
(PID.TID 0000.0001) %MON forcing_fv_del2              =   5.5046750408134E-04
(PID.TID 0000.0001) %MON trAdv_CFL_u_max              =   5.8212119252020E-02
(PID.TID 0000.0001) %MON trAdv_CFL_v_max              =   6.5996213847252E-02
(PID.TID 0000.0001) %MON trAdv_CFL_w_max              =   2.8060202163654E-01
(PID.TID 0000.0001) %MON advcfl_uvel_max              =   5.7109455742644E-02
(PID.TID 0000.0001) %MON advcfl_vvel_max              =   6.5755462350048E-02
(PID.TID 0000.0001) %MON advcfl_wvel_max              =   5.0299107049066E-01
(PID.TID 0000.0001) %MON advcfl_W_hf_max              =   2.8060202163654E-01
(PID.TID 0000.0001) %MON pe_b_mean                    =   2.2552016653431E-03
(PID.TID 0000.0001) %MON ke_max                       =   1.0208038168870E+01
(PID.TID 0000.0001) %MON ke_mean                      =   8.1371728281554E-04
(PID.TID 0000.0001) %MON ke_vol                       =   1.3350064351420E+18
(PID.TID 0000.0001) %MON vort_r_min                   =  -1.2685967185670E-04
(PID.TID 0000.0001) %MON vort_r_max                   =   1.6875312516036E-04
(PID.TID 0000.0001) %MON vort_a_mean                  =  -1.9725084473491E-05
(PID.TID 0000.0001) %MON vort_a_sd                    =   7.4538496255897E-05
(PID.TID 0000.0001) %MON vort_p_mean                  =  -2.1669090181994E-05
(PID.TID 0000.0001) %MON vort_p_sd                    =   9.3617152622572E-05
(PID.TID 0000.0001) %MON surfExpan_theta_mean         =   5.9480794746371E-06
(PID.TID 0000.0001) %MON surfExpan_salt_mean          =  -7.7497109755741E-06
(PID.TID 0000.0001) // =======================================================
(PID.TID 0000.0001) // End MONITOR dynamic field statistics
(PID.TID 0000.0001) // =======================================================
(PID.TID 0000.0001) // =======================================================
(PID.TID 0000.0001) // Begin MONITOR SEAICE statistics
(PID.TID 0000.0001) // =======================================================
(PID.TID 0000.0001) %MON seaice_tsnumber              =                174595
(PID.TID 0000.0001) %MON seaice_time_sec              =   7.8567750000000E+07
(PID.TID 0000.0001) %MON seaice_uice_max              =   4.1541348720087E+00
(PID.TID 0000.0001) %MON seaice_uice_min              =  -4.8275415744092E+00
(PID.TID 0000.0001) %MON seaice_uice_mean             =  -8.2982710660668E-04
(PID.TID 0000.0001) %MON seaice_uice_sd               =   1.7994573438489E-01
(PID.TID 0000.0001) %MON seaice_uice_del2             =   6.9200310566383E-04
(PID.TID 0000.0001) %MON seaice_vice_max              =   4.9052864959568E+00
(PID.TID 0000.0001) %MON seaice_vice_min              =  -4.0533427837086E+00
(PID.TID 0000.0001) %MON seaice_vice_mean             =  -1.4364153515960E-02
(PID.TID 0000.0001) %MON seaice_vice_sd               =   1.8655637700252E-01
(PID.TID 0000.0001) %MON seaice_vice_del2             =   7.1631990436394E-04
(PID.TID 0000.0001) %MON seaice_area_max              =   1.0222633850146E+00
(PID.TID 0000.0001) %MON seaice_area_min              =   0.0000000000000E+00
(PID.TID 0000.0001) %MON seaice_area_mean             =   5.7223331893996E-02
(PID.TID 0000.0001) %MON seaice_area_sd               =   2.2256903254628E-01
(PID.TID 0000.0001) %MON seaice_area_del2             =   4.0850653151391E-04
(PID.TID 0000.0001) %MON seaice_heff_max              =   9.9541108915774E+00
(PID.TID 0000.0001) %MON seaice_heff_min              =   0.0000000000000E+00
(PID.TID 0000.0001) %MON seaice_heff_mean             =   1.5004182538983E-01
(PID.TID 0000.0001) %MON seaice_heff_sd               =   7.2185354517226E-01
(PID.TID 0000.0001) %MON seaice_heff_del2             =   1.8798793734184E-03
(PID.TID 0000.0001) %MON seaice_hsnow_max             =   3.2878403749098E+00
(PID.TID 0000.0001) %MON seaice_hsnow_min             =   0.0000000000000E+00
(PID.TID 0000.0001) %MON seaice_hsnow_mean            =   1.2794692893083E-02
(PID.TID 0000.0001) %MON seaice_hsnow_sd              =   7.1416970016510E-02
(PID.TID 0000.0001) %MON seaice_hsnow_del2            =   5.4477419872045E-04
(PID.TID 0000.0001) // =======================================================
(PID.TID 0000.0001) // End MONITOR SEAICE statistics
(PID.TID 0000.0001) // =======================================================
(PID.TID 0000.0001) // =======================================================
(PID.TID 0000.0001) // Begin MONITOR dynamic field statistics
(PID.TID 0000.0001) // =======================================================
(PID.TID 0000.0001) %MON time_tsnumber                =                174596
(PID.TID 0000.0001) %MON time_secondsf                =   7.8568200000000E+07
(PID.TID 0000.0001) %MON dynstat_eta_max              =   1.2568373173188E+01
(PID.TID 0000.0001) %MON dynstat_eta_min              =  -1.5072182955096E+01
(PID.TID 0000.0001) %MON dynstat_eta_mean             =   6.8183985409698E-02
(PID.TID 0000.0001) %MON dynstat_eta_sd               =   8.3771781027363E-01
(PID.TID 0000.0001) %MON dynstat_eta_del2             =   2.5410099829226E-03
(PID.TID 0000.0001) %MON dynstat_uvel_max             =   4.1786904072631E+00
(PID.TID 0000.0001) %MON dynstat_uvel_min             =  -4.7977531071825E+00
(PID.TID 0000.0001) %MON dynstat_uvel_mean            =   2.7604306296396E-03
(PID.TID 0000.0001) %MON dynstat_uvel_sd              =   2.8514404076130E-02
(PID.TID 0000.0001) %MON dynstat_uvel_del2            =   3.5433825795673E-05
(PID.TID 0000.0001) %MON dynstat_vvel_max             =   4.2585557201964E+00
(PID.TID 0000.0001) %MON dynstat_vvel_min             =  -3.4773603264075E+00
(PID.TID 0000.0001) %MON dynstat_vvel_mean            =   1.1897051798881E-03
(PID.TID 0000.0001) %MON dynstat_vvel_sd              =   2.9729222613537E-02
(PID.TID 0000.0001) %MON dynstat_vvel_del2            =   3.5635730680572E-05
(PID.TID 0000.0001) %MON dynstat_wvel_max             =   6.2043167856392E-03
(PID.TID 0000.0001) %MON dynstat_wvel_min             =  -7.0046286280116E-03
(PID.TID 0000.0001) %MON dynstat_wvel_mean            =  -2.7786349511963E-07
(PID.TID 0000.0001) %MON dynstat_wvel_sd              =   7.6550022862449E-05
(PID.TID 0000.0001) %MON dynstat_wvel_del2            =   1.1910139180745E-07
(PID.TID 0000.0001) %MON dynstat_theta_max            =   3.2111413728565E+01
(PID.TID 0000.0001) %MON dynstat_theta_min            =  -1.9802636214105E+00
(PID.TID 0000.0001) %MON dynstat_theta_mean           =   3.5922287503873E+00
(PID.TID 0000.0001) %MON dynstat_theta_sd             =   4.4419586580431E+00
(PID.TID 0000.0001) %MON dynstat_theta_del2           =   1.1403300316695E-04
(PID.TID 0000.0001) %MON dynstat_salt_max             =   4.0655996770418E+01
(PID.TID 0000.0001) %MON dynstat_salt_min             =   1.6439400381769E+01
(PID.TID 0000.0001) %MON dynstat_salt_mean            =   3.4724915964744E+01
(PID.TID 0000.0001) %MON dynstat_salt_sd              =   3.7945961038260E-01
(PID.TID 0000.0001) %MON dynstat_salt_del2            =   9.8565181514803E-05
(PID.TID 0000.0001) %MON dynstat_sst_max              =   3.2111413728565E+01
(PID.TID 0000.0001) %MON dynstat_sst_min              =  -1.9802636214105E+00
(PID.TID 0000.0001) %MON dynstat_sst_mean             =   1.8173335618388E+01
(PID.TID 0000.0001) %MON dynstat_sst_sd               =   1.0110046762551E+01
(PID.TID 0000.0001) %MON dynstat_sst_del2             =   1.0264849231386E-03
(PID.TID 0000.0001) %MON dynstat_sss_max              =   3.9488748344112E+01
(PID.TID 0000.0001) %MON dynstat_sss_min              =   1.6439400381769E+01
(PID.TID 0000.0001) %MON dynstat_sss_mean             =   3.4662709898831E+01
(PID.TID 0000.0001) %MON dynstat_sss_sd               =   1.2692689513569E+00
(PID.TID 0000.0001) %MON dynstat_sss_del2             =   1.5657442404521E-03
(PID.TID 0000.0001) %MON forcing_qnet_max             =   1.1098543945312E+04
(PID.TID 0000.0001) %MON forcing_qnet_min             =  -2.2158083984375E+04
(PID.TID 0000.0001) %MON forcing_qnet_mean            =  -1.3505601697217E+02
(PID.TID 0000.0001) %MON forcing_qnet_sd              =   4.3733607932810E+02
(PID.TID 0000.0001) %MON forcing_qnet_del2            =   3.1766294363701E+00
(PID.TID 0000.0001) %MON forcing_qsw_max              =   0.0000000000000E+00
(PID.TID 0000.0001) %MON forcing_qsw_min              =  -1.3662311205096E+02
(PID.TID 0000.0001) %MON forcing_qsw_mean             =  -2.2812994306006E+01
(PID.TID 0000.0001) %MON forcing_qsw_sd               =   3.2098416572376E+01
(PID.TID 0000.0001) %MON forcing_qsw_del2             =   2.4092529703009E-02
(PID.TID 0000.0001) %MON forcing_empmr_max            =   1.0663169622421E-01
(PID.TID 0000.0001) %MON forcing_empmr_min            =  -5.5853653699160E-02
(PID.TID 0000.0001) %MON forcing_empmr_mean           =   6.6155744222924E-05
(PID.TID 0000.0001) %MON forcing_empmr_sd             =   9.3260233966303E-04
(PID.TID 0000.0001) %MON forcing_empmr_del2           =   9.9305213975683E-06
(PID.TID 0000.0001) %MON forcing_fu_max               =   3.0790824859472E+00
(PID.TID 0000.0001) %MON forcing_fu_min               =  -2.3402310703571E+00
(PID.TID 0000.0001) %MON forcing_fu_mean              =   6.4663520233282E-03
(PID.TID 0000.0001) %MON forcing_fu_sd                =   1.1491028481310E-01
(PID.TID 0000.0001) %MON forcing_fu_del2              =   4.8246595180868E-04
(PID.TID 0000.0001) %MON forcing_fv_max               =   3.2492417709332E+00
(PID.TID 0000.0001) %MON forcing_fv_min               =  -2.0611501942175E+00
(PID.TID 0000.0001) %MON forcing_fv_mean              =  -3.2998243056044E-04
(PID.TID 0000.0001) %MON forcing_fv_sd                =   1.1552404396552E-01
(PID.TID 0000.0001) %MON forcing_fv_del2              =   4.8978413544657E-04
(PID.TID 0000.0001) %MON trAdv_CFL_u_max              =   5.4457550465808E-02
(PID.TID 0000.0001) %MON trAdv_CFL_v_max              =   6.2330807551593E-02
(PID.TID 0000.0001) %MON trAdv_CFL_w_max              =   2.3003554735679E-01
(PID.TID 0000.0001) %MON advcfl_uvel_max              =   5.3426006614111E-02
(PID.TID 0000.0001) %MON advcfl_vvel_max              =   6.2103427307104E-02
(PID.TID 0000.0001) %MON advcfl_wvel_max              =   4.6270277398455E-01
(PID.TID 0000.0001) %MON advcfl_W_hf_max              =   2.3003554735679E-01
(PID.TID 0000.0001) %MON pe_b_mean                    =   2.2298336938112E-03
(PID.TID 0000.0001) %MON ke_max                       =   1.0355945997141E+01
(PID.TID 0000.0001) %MON ke_mean                      =   8.2259335243471E-04
(PID.TID 0000.0001) %MON ke_vol                       =   1.3350064351420E+18
(PID.TID 0000.0001) %MON vort_r_min                   =  -1.5154573092182E-04
(PID.TID 0000.0001) %MON vort_r_max                   =   1.6525285847324E-04
(PID.TID 0000.0001) %MON vort_a_mean                  =  -1.9725085036352E-05
(PID.TID 0000.0001) %MON vort_a_sd                    =   7.4538495950007E-05
(PID.TID 0000.0001) %MON vort_p_mean                  =  -2.1669090800328E-05
(PID.TID 0000.0001) %MON vort_p_sd                    =   9.3616561694238E-05
(PID.TID 0000.0001) %MON surfExpan_theta_mean         =   6.4823472073154E-06
(PID.TID 0000.0001) %MON surfExpan_salt_mean          =  -6.5217659732665E-06
(PID.TID 0000.0001) // =======================================================
(PID.TID 0000.0001) // End MONITOR dynamic field statistics
(PID.TID 0000.0001) // =======================================================
(PID.TID 0000.0001) // =======================================================
(PID.TID 0000.0001) // Begin MONITOR SEAICE statistics
(PID.TID 0000.0001) // =======================================================
(PID.TID 0000.0001) %MON seaice_tsnumber              =                174596
(PID.TID 0000.0001) %MON seaice_time_sec              =   7.8568200000000E+07
(PID.TID 0000.0001) %MON seaice_uice_max              =   4.2702081416159E+00
(PID.TID 0000.0001) %MON seaice_uice_min              =  -5.0615425269348E+00
(PID.TID 0000.0001) %MON seaice_uice_mean             =  -9.6265092507857E-04
(PID.TID 0000.0001) %MON seaice_uice_sd               =   1.8366645618112E-01
(PID.TID 0000.0001) %MON seaice_uice_del2             =   7.0950212831005E-04
(PID.TID 0000.0001) %MON seaice_vice_max              =   4.9510565096807E+00
(PID.TID 0000.0001) %MON seaice_vice_min              =  -4.0458059924210E+00
(PID.TID 0000.0001) %MON seaice_vice_mean             =  -1.4732501861281E-02
(PID.TID 0000.0001) %MON seaice_vice_sd               =   1.9030380240317E-01
(PID.TID 0000.0001) %MON seaice_vice_del2             =   7.3083589475395E-04
(PID.TID 0000.0001) %MON seaice_area_max              =   1.0245396667426E+00
(PID.TID 0000.0001) %MON seaice_area_min              =   0.0000000000000E+00
(PID.TID 0000.0001) %MON seaice_area_mean             =   5.7220939541464E-02
(PID.TID 0000.0001) %MON seaice_area_sd               =   2.2253579426692E-01
(PID.TID 0000.0001) %MON seaice_area_del2             =   4.0637218104104E-04
(PID.TID 0000.0001) %MON seaice_heff_max              =   9.9537432336243E+00
(PID.TID 0000.0001) %MON seaice_heff_min              =   0.0000000000000E+00
(PID.TID 0000.0001) %MON seaice_heff_mean             =   1.5005175627631E-01
(PID.TID 0000.0001) %MON seaice_heff_sd               =   7.2180460577217E-01
(PID.TID 0000.0001) %MON seaice_heff_del2             =   1.8649626352269E-03
(PID.TID 0000.0001) %MON seaice_hsnow_max             =   3.2877191531040E+00
(PID.TID 0000.0001) %MON seaice_hsnow_min             =   0.0000000000000E+00
(PID.TID 0000.0001) %MON seaice_hsnow_mean            =   1.2793909271118E-02
(PID.TID 0000.0001) %MON seaice_hsnow_sd              =   7.1293459107827E-02
(PID.TID 0000.0001) %MON seaice_hsnow_del2            =   5.3962551342038E-04
(PID.TID 0000.0001) // =======================================================
(PID.TID 0000.0001) // End MONITOR SEAICE statistics
(PID.TID 0000.0001) // =======================================================
(PID.TID 0000.0001) // =======================================================
(PID.TID 0000.0001) // Begin MONITOR dynamic field statistics
(PID.TID 0000.0001) // =======================================================
(PID.TID 0000.0001) %MON time_tsnumber                =                174597
(PID.TID 0000.0001) %MON time_secondsf                =   7.8568650000000E+07
(PID.TID 0000.0001) %MON dynstat_eta_max              =   1.1857074115381E+01
(PID.TID 0000.0001) %MON dynstat_eta_min              =  -1.5212831029275E+01
(PID.TID 0000.0001) %MON dynstat_eta_mean             =   6.8049371459893E-02
(PID.TID 0000.0001) %MON dynstat_eta_sd               =   8.3378346304459E-01
(PID.TID 0000.0001) %MON dynstat_eta_del2             =   2.5059957207295E-03
(PID.TID 0000.0001) %MON dynstat_uvel_max             =   4.3459028644609E+00
(PID.TID 0000.0001) %MON dynstat_uvel_min             =  -4.7781087788052E+00
(PID.TID 0000.0001) %MON dynstat_uvel_mean            =   2.6729361515624E-03
(PID.TID 0000.0001) %MON dynstat_uvel_sd              =   2.8654827872308E-02
(PID.TID 0000.0001) %MON dynstat_uvel_del2            =   3.4532977275681E-05
(PID.TID 0000.0001) %MON dynstat_vvel_max             =   4.1548953773806E+00
(PID.TID 0000.0001) %MON dynstat_vvel_min             =  -3.2656000179575E+00
(PID.TID 0000.0001) %MON dynstat_vvel_mean            =   1.1684876248904E-03
(PID.TID 0000.0001) %MON dynstat_vvel_sd              =   2.9862683862153E-02
(PID.TID 0000.0001) %MON dynstat_vvel_del2            =   3.4583231609729E-05
(PID.TID 0000.0001) %MON dynstat_wvel_max             =   6.6702149579136E-03
(PID.TID 0000.0001) %MON dynstat_wvel_min             =  -7.4004306139459E-03
(PID.TID 0000.0001) %MON dynstat_wvel_mean            =  -2.6758288828170E-07
(PID.TID 0000.0001) %MON dynstat_wvel_sd              =   7.6481451093070E-05
(PID.TID 0000.0001) %MON dynstat_wvel_del2            =   1.1908893107760E-07
(PID.TID 0000.0001) %MON dynstat_theta_max            =   3.2115862898449E+01
(PID.TID 0000.0001) %MON dynstat_theta_min            =  -1.9840504175686E+00
(PID.TID 0000.0001) %MON dynstat_theta_mean           =   3.5922318237600E+00
(PID.TID 0000.0001) %MON dynstat_theta_sd             =   4.4419688906986E+00
(PID.TID 0000.0001) %MON dynstat_theta_del2           =   1.1418230171682E-04
(PID.TID 0000.0001) %MON dynstat_salt_max             =   4.0655996770412E+01
(PID.TID 0000.0001) %MON dynstat_salt_min             =   1.6435676951784E+01
(PID.TID 0000.0001) %MON dynstat_salt_mean            =   3.4724915050915E+01
(PID.TID 0000.0001) %MON dynstat_salt_sd              =   3.7944981007629E-01
(PID.TID 0000.0001) %MON dynstat_salt_del2            =   9.7007716425092E-05
(PID.TID 0000.0001) %MON dynstat_sst_max              =   3.2115862898449E+01
(PID.TID 0000.0001) %MON dynstat_sst_min              =  -1.9840504175686E+00
(PID.TID 0000.0001) %MON dynstat_sst_mean             =   1.8174012134250E+01
(PID.TID 0000.0001) %MON dynstat_sst_sd               =   1.0111023357412E+01
(PID.TID 0000.0001) %MON dynstat_sst_del2             =   1.0372136935856E-03
(PID.TID 0000.0001) %MON dynstat_sss_max              =   3.9488784470522E+01
(PID.TID 0000.0001) %MON dynstat_sss_min              =   1.6435676951784E+01
(PID.TID 0000.0001) %MON dynstat_sss_mean             =   3.4662309654701E+01
(PID.TID 0000.0001) %MON dynstat_sss_sd               =   1.2698026334673E+00
(PID.TID 0000.0001) %MON dynstat_sss_del2             =   1.5775161352805E-03
(PID.TID 0000.0001) %MON forcing_qnet_max             =   6.7845375000000E+04
(PID.TID 0000.0001) %MON forcing_qnet_min             =  -1.9815894531250E+04
(PID.TID 0000.0001) %MON forcing_qnet_mean            =  -1.3027381797122E+02
(PID.TID 0000.0001) %MON forcing_qnet_sd              =   5.1115446308560E+02
(PID.TID 0000.0001) %MON forcing_qnet_del2            =   6.2272945305806E+00
(PID.TID 0000.0001) %MON forcing_qsw_max              =   0.0000000000000E+00
(PID.TID 0000.0001) %MON forcing_qsw_min              =  -1.4160366554290E+02
(PID.TID 0000.0001) %MON forcing_qsw_mean             =  -2.2355011524777E+01
(PID.TID 0000.0001) %MON forcing_qsw_sd               =   3.1810218222668E+01
(PID.TID 0000.0001) %MON forcing_qsw_del2             =   2.4591593689660E-02
(PID.TID 0000.0001) %MON forcing_empmr_max            =   9.1224662959576E-02
(PID.TID 0000.0001) %MON forcing_empmr_min            =  -5.8185230940580E-02
(PID.TID 0000.0001) %MON forcing_empmr_mean           =   6.4196331899274E-05
(PID.TID 0000.0001) %MON forcing_empmr_sd             =   8.8044905297105E-04
(PID.TID 0000.0001) %MON forcing_empmr_del2           =   9.6441671472698E-06
(PID.TID 0000.0001) %MON forcing_fu_max               =   2.6912576843216E+00
(PID.TID 0000.0001) %MON forcing_fu_min               =  -2.1103566985028E+00
(PID.TID 0000.0001) %MON forcing_fu_mean              =   6.5745000262399E-03
(PID.TID 0000.0001) %MON forcing_fu_sd                =   1.1403535103765E-01
(PID.TID 0000.0001) %MON forcing_fu_del2              =   4.3167519431076E-04
(PID.TID 0000.0001) %MON forcing_fv_max               =   2.9945575219320E+00
(PID.TID 0000.0001) %MON forcing_fv_min               =  -1.7211863041985E+00
(PID.TID 0000.0001) %MON forcing_fv_mean              =  -4.0345854758313E-04
(PID.TID 0000.0001) %MON forcing_fv_sd                =   1.1435510801431E-01
(PID.TID 0000.0001) %MON forcing_fv_del2              =   4.3930679735558E-04
(PID.TID 0000.0001) %MON trAdv_CFL_u_max              =   4.9603422304634E-02
(PID.TID 0000.0001) %MON trAdv_CFL_v_max              =   5.5961538685683E-02
(PID.TID 0000.0001) %MON trAdv_CFL_w_max              =   1.9252845423726E-01
(PID.TID 0000.0001) %MON advcfl_uvel_max              =   4.8663826144620E-02
(PID.TID 0000.0001) %MON advcfl_vvel_max              =   5.5757393274318E-02
(PID.TID 0000.0001) %MON advcfl_wvel_max              =   3.9982735902131E-01
(PID.TID 0000.0001) %MON advcfl_W_hf_max              =   1.9252845423726E-01
(PID.TID 0000.0001) %MON pe_b_mean                    =   2.2074091262264E-03
(PID.TID 0000.0001) %MON ke_max                       =   9.7245808103453E+00
(PID.TID 0000.0001) %MON ke_mean                      =   8.3004587454316E-04
(PID.TID 0000.0001) %MON ke_vol                       =   1.3350064351420E+18
(PID.TID 0000.0001) %MON vort_r_min                   =  -1.8056751220637E-04
(PID.TID 0000.0001) %MON vort_r_max                   =   1.5689256013672E-04
(PID.TID 0000.0001) %MON vort_a_mean                  =  -1.9725085997155E-05
(PID.TID 0000.0001) %MON vort_a_sd                    =   7.4538494476838E-05
(PID.TID 0000.0001) %MON vort_p_mean                  =  -2.1669091855822E-05
(PID.TID 0000.0001) %MON vort_p_sd                    =   9.3615966612760E-05
(PID.TID 0000.0001) %MON surfExpan_theta_mean         =   6.8690168950491E-06
(PID.TID 0000.0001) %MON surfExpan_salt_mean          =  -5.4529111446303E-06
(PID.TID 0000.0001) // =======================================================
(PID.TID 0000.0001) // End MONITOR dynamic field statistics
(PID.TID 0000.0001) // =======================================================
(PID.TID 0000.0001) // =======================================================
(PID.TID 0000.0001) // Begin MONITOR SEAICE statistics
(PID.TID 0000.0001) // =======================================================
(PID.TID 0000.0001) %MON seaice_tsnumber              =                174597
(PID.TID 0000.0001) %MON seaice_time_sec              =   7.8568650000000E+07
(PID.TID 0000.0001) %MON seaice_uice_max              =   4.5045690379286E+00
(PID.TID 0000.0001) %MON seaice_uice_min              =  -5.1774118201208E+00
(PID.TID 0000.0001) %MON seaice_uice_mean             =  -1.1075088903799E-03
(PID.TID 0000.0001) %MON seaice_uice_sd               =   1.8699094146631E-01
(PID.TID 0000.0001) %MON seaice_uice_del2             =   7.1794132740784E-04
(PID.TID 0000.0001) %MON seaice_vice_max              =   4.8152449021947E+00
(PID.TID 0000.0001) %MON seaice_vice_min              =  -3.8590307649896E+00
(PID.TID 0000.0001) %MON seaice_vice_mean             =  -1.5101945027641E-02
(PID.TID 0000.0001) %MON seaice_vice_sd               =   1.9366038124400E-01
(PID.TID 0000.0001) %MON seaice_vice_del2             =   7.3537107112657E-04
(PID.TID 0000.0001) %MON seaice_area_max              =   1.0240001880307E+00
(PID.TID 0000.0001) %MON seaice_area_min              =   0.0000000000000E+00
(PID.TID 0000.0001) %MON seaice_area_mean             =   5.7218061442813E-02
(PID.TID 0000.0001) %MON seaice_area_sd               =   2.2250312976193E-01
(PID.TID 0000.0001) %MON seaice_area_del2             =   4.0437487429794E-04
(PID.TID 0000.0001) %MON seaice_heff_max              =   9.9533771450284E+00
(PID.TID 0000.0001) %MON seaice_heff_min              =   0.0000000000000E+00
(PID.TID 0000.0001) %MON seaice_heff_mean             =   1.5006130252721E-01
(PID.TID 0000.0001) %MON seaice_heff_sd               =   7.2177418037554E-01
(PID.TID 0000.0001) %MON seaice_heff_del2             =   1.8512666831370E-03
(PID.TID 0000.0001) %MON seaice_hsnow_max             =   3.2875982256347E+00
(PID.TID 0000.0001) %MON seaice_hsnow_min             =   0.0000000000000E+00
(PID.TID 0000.0001) %MON seaice_hsnow_mean            =   1.2793128646903E-02
(PID.TID 0000.0001) %MON seaice_hsnow_sd              =   7.1189104261700E-02
(PID.TID 0000.0001) %MON seaice_hsnow_del2            =   5.3483675167792E-04
(PID.TID 0000.0001) // =======================================================
(PID.TID 0000.0001) // End MONITOR SEAICE statistics
(PID.TID 0000.0001) // =======================================================
(PID.TID 0000.0001) // =======================================================
(PID.TID 0000.0001) // Begin MONITOR dynamic field statistics
(PID.TID 0000.0001) // =======================================================
(PID.TID 0000.0001) %MON time_tsnumber                =                174598
(PID.TID 0000.0001) %MON time_secondsf                =   7.8569100000000E+07
(PID.TID 0000.0001) %MON dynstat_eta_max              =   1.1102312861642E+01
(PID.TID 0000.0001) %MON dynstat_eta_min              =  -1.6181301491499E+01
(PID.TID 0000.0001) %MON dynstat_eta_mean             =   6.7925037746381E-02
(PID.TID 0000.0001) %MON dynstat_eta_sd               =   8.3049359807410E-01
(PID.TID 0000.0001) %MON dynstat_eta_del2             =   2.4784025542279E-03
(PID.TID 0000.0001) %MON dynstat_uvel_max             =   4.4375064977118E+00
(PID.TID 0000.0001) %MON dynstat_uvel_min             =  -4.5484649011428E+00
(PID.TID 0000.0001) %MON dynstat_uvel_mean            =   2.5776479487254E-03
(PID.TID 0000.0001) %MON dynstat_uvel_sd              =   2.8766232967095E-02
(PID.TID 0000.0001) %MON dynstat_uvel_del2            =   3.3680585325075E-05
(PID.TID 0000.0001) %MON dynstat_vvel_max             =   4.3404526763726E+00
(PID.TID 0000.0001) %MON dynstat_vvel_min             =  -3.1253158392434E+00
(PID.TID 0000.0001) %MON dynstat_vvel_mean            =   1.1471072780364E-03
(PID.TID 0000.0001) %MON dynstat_vvel_sd              =   2.9972855959582E-02
(PID.TID 0000.0001) %MON dynstat_vvel_del2            =   3.3627852175575E-05
(PID.TID 0000.0001) %MON dynstat_wvel_max             =   6.8849637331067E-03
(PID.TID 0000.0001) %MON dynstat_wvel_min             =  -7.3952203643299E-03
(PID.TID 0000.0001) %MON dynstat_wvel_mean            =  -2.5899098671578E-07
(PID.TID 0000.0001) %MON dynstat_wvel_sd              =   7.6566343585372E-05
(PID.TID 0000.0001) %MON dynstat_wvel_del2            =   1.1968976918841E-07
(PID.TID 0000.0001) %MON dynstat_theta_max            =   3.2120490269417E+01
(PID.TID 0000.0001) %MON dynstat_theta_min            =  -1.9877196384327E+00
(PID.TID 0000.0001) %MON dynstat_theta_mean           =   3.5922347702056E+00
(PID.TID 0000.0001) %MON dynstat_theta_sd             =   4.4419795993324E+00
(PID.TID 0000.0001) %MON dynstat_theta_del2           =   1.1429402839276E-04
(PID.TID 0000.0001) %MON dynstat_salt_max             =   4.0655996770405E+01
(PID.TID 0000.0001) %MON dynstat_salt_min             =   1.6433205833273E+01
(PID.TID 0000.0001) %MON dynstat_salt_mean            =   3.4724914101801E+01
(PID.TID 0000.0001) %MON dynstat_salt_sd              =   3.7944344558264E-01
(PID.TID 0000.0001) %MON dynstat_salt_del2            =   9.5767404595128E-05
(PID.TID 0000.0001) %MON dynstat_sst_max              =   3.2120490269417E+01
(PID.TID 0000.0001) %MON dynstat_sst_min              =  -1.9877196384327E+00
(PID.TID 0000.0001) %MON dynstat_sst_mean             =   1.8174689893510E+01
(PID.TID 0000.0001) %MON dynstat_sst_sd               =   1.0112032304573E+01
(PID.TID 0000.0001) %MON dynstat_sst_del2             =   1.0429349026161E-03
(PID.TID 0000.0001) %MON dynstat_sss_max              =   3.9488819761452E+01
(PID.TID 0000.0001) %MON dynstat_sss_min              =   1.6433205833273E+01
(PID.TID 0000.0001) %MON dynstat_sss_mean             =   3.4661984945097E+01
(PID.TID 0000.0001) %MON dynstat_sss_sd               =   1.2702443527610E+00
(PID.TID 0000.0001) %MON dynstat_sss_del2             =   1.5848187391533E-03
(PID.TID 0000.0001) %MON forcing_qnet_max             =   5.3312000000000E+04
(PID.TID 0000.0001) %MON forcing_qnet_min             =  -1.7771335937500E+04
(PID.TID 0000.0001) %MON forcing_qnet_mean            =  -1.2700814967239E+02
(PID.TID 0000.0001) %MON forcing_qnet_sd              =   4.4406699290628E+02
(PID.TID 0000.0001) %MON forcing_qnet_del2            =   3.7679631237772E+00
(PID.TID 0000.0001) %MON forcing_qsw_max              =   0.0000000000000E+00
(PID.TID 0000.0001) %MON forcing_qsw_min              =  -1.4282258288142E+02
(PID.TID 0000.0001) %MON forcing_qsw_mean             =  -2.2258022867023E+01
(PID.TID 0000.0001) %MON forcing_qsw_sd               =   3.1720674650282E+01
(PID.TID 0000.0001) %MON forcing_qsw_del2             =   2.4688322107003E-02
(PID.TID 0000.0001) %MON forcing_empmr_max            =   7.8389219939709E-02
(PID.TID 0000.0001) %MON forcing_empmr_min            =  -5.8787509799004E-02
(PID.TID 0000.0001) %MON forcing_empmr_mean           =   6.1258295828905E-05
(PID.TID 0000.0001) %MON forcing_empmr_sd             =   7.6237761736141E-04
(PID.TID 0000.0001) %MON forcing_empmr_del2           =   8.9219549162066E-06
(PID.TID 0000.0001) %MON forcing_fu_max               =   2.2785842959633E+00
(PID.TID 0000.0001) %MON forcing_fu_min               =  -1.9186007189434E+00
(PID.TID 0000.0001) %MON forcing_fu_mean              =   6.6626720193124E-03
(PID.TID 0000.0001) %MON forcing_fu_sd                =   1.1324574904462E-01
(PID.TID 0000.0001) %MON forcing_fu_del2              =   3.9012453456613E-04
(PID.TID 0000.0001) %MON forcing_fv_max               =   2.8639290740666E+00
(PID.TID 0000.0001) %MON forcing_fv_min               =  -1.5695988718704E+00
(PID.TID 0000.0001) %MON forcing_fv_mean              =  -4.8211647720853E-04
(PID.TID 0000.0001) %MON forcing_fv_sd                =   1.1348430514419E-01
(PID.TID 0000.0001) %MON forcing_fv_del2              =   3.9828122525465E-04
(PID.TID 0000.0001) %MON trAdv_CFL_u_max              =   4.8328140687781E-02
(PID.TID 0000.0001) %MON trAdv_CFL_v_max              =   4.7207634967701E-02
(PID.TID 0000.0001) %MON trAdv_CFL_w_max              =   1.8506291453862E-01
(PID.TID 0000.0001) %MON advcfl_uvel_max              =   4.7570344799895E-02
(PID.TID 0000.0001) %MON advcfl_vvel_max              =   4.7035423440170E-02
(PID.TID 0000.0001) %MON advcfl_wvel_max              =   3.5248329122434E-01
(PID.TID 0000.0001) %MON advcfl_W_hf_max              =   1.8506291453862E-01
(PID.TID 0000.0001) %MON pe_b_mean                    =   2.1877259954397E-03
(PID.TID 0000.0001) %MON ke_max                       =   9.5651904151183E+00
(PID.TID 0000.0001) %MON ke_mean                      =   8.3604397176662E-04
(PID.TID 0000.0001) %MON ke_vol                       =   1.3350064351420E+18
(PID.TID 0000.0001) %MON vort_r_min                   =  -2.0927275068160E-04
(PID.TID 0000.0001) %MON vort_r_max                   =   1.4484633589336E-04
(PID.TID 0000.0001) %MON vort_a_mean                  =  -1.9725087189218E-05
(PID.TID 0000.0001) %MON vort_a_sd                    =   7.4538490805955E-05
(PID.TID 0000.0001) %MON vort_p_mean                  =  -2.1669093165370E-05
(PID.TID 0000.0001) %MON vort_p_sd                    =   9.3615372684374E-05
(PID.TID 0000.0001) %MON surfExpan_theta_mean         =   7.1008515062874E-06
(PID.TID 0000.0001) %MON surfExpan_salt_mean          =  -4.5628692290652E-06
(PID.TID 0000.0001) // =======================================================
(PID.TID 0000.0001) // End MONITOR dynamic field statistics
(PID.TID 0000.0001) // =======================================================
(PID.TID 0000.0001) // =======================================================
(PID.TID 0000.0001) // Begin MONITOR SEAICE statistics
(PID.TID 0000.0001) // =======================================================
(PID.TID 0000.0001) %MON seaice_tsnumber              =                174598
(PID.TID 0000.0001) %MON seaice_time_sec              =   7.8569100000000E+07
(PID.TID 0000.0001) %MON seaice_uice_max              =   4.6550340044553E+00
(PID.TID 0000.0001) %MON seaice_uice_min              =  -5.1528134606909E+00
(PID.TID 0000.0001) %MON seaice_uice_mean             =  -1.2601148028113E-03
(PID.TID 0000.0001) %MON seaice_uice_sd               =   1.8986588639372E-01
(PID.TID 0000.0001) %MON seaice_uice_del2             =   7.1936856628806E-04
(PID.TID 0000.0001) %MON seaice_vice_max              =   4.5290364432550E+00
(PID.TID 0000.0001) %MON seaice_vice_min              =  -3.6588420626836E+00
(PID.TID 0000.0001) %MON seaice_vice_mean             =  -1.5466700970431E-02
(PID.TID 0000.0001) %MON seaice_vice_sd               =   1.9658922550045E-01
(PID.TID 0000.0001) %MON seaice_vice_del2             =   7.3245246057598E-04
(PID.TID 0000.0001) %MON seaice_area_max              =   1.0230371946454E+00
(PID.TID 0000.0001) %MON seaice_area_min              =   0.0000000000000E+00
(PID.TID 0000.0001) %MON seaice_area_mean             =   5.7215296863167E-02
(PID.TID 0000.0001) %MON seaice_area_sd               =   2.2247317422805E-01
(PID.TID 0000.0001) %MON seaice_area_del2             =   4.0247962359300E-04
(PID.TID 0000.0001) %MON seaice_heff_max              =   9.9530409386192E+00
(PID.TID 0000.0001) %MON seaice_heff_min              =   0.0000000000000E+00
(PID.TID 0000.0001) %MON seaice_heff_mean             =   1.5007039143923E-01
(PID.TID 0000.0001) %MON seaice_heff_sd               =   7.2175714215780E-01
(PID.TID 0000.0001) %MON seaice_heff_del2             =   1.8383978458914E-03
(PID.TID 0000.0001) %MON seaice_hsnow_max             =   3.2874877709185E+00
(PID.TID 0000.0001) %MON seaice_hsnow_min             =   0.0000000000000E+00
(PID.TID 0000.0001) %MON seaice_hsnow_mean            =   1.2792357213030E-02
(PID.TID 0000.0001) %MON seaice_hsnow_sd              =   7.1099418272759E-02
(PID.TID 0000.0001) %MON seaice_hsnow_del2            =   5.3029525648388E-04
(PID.TID 0000.0001) // =======================================================
(PID.TID 0000.0001) // End MONITOR SEAICE statistics
(PID.TID 0000.0001) // =======================================================
(PID.TID 0000.0001) // =======================================================
(PID.TID 0000.0001) // Begin MONITOR dynamic field statistics
(PID.TID 0000.0001) // =======================================================
(PID.TID 0000.0001) %MON time_tsnumber                =                174599
(PID.TID 0000.0001) %MON time_secondsf                =   7.8569550000000E+07
(PID.TID 0000.0001) %MON dynstat_eta_max              =   1.0076247269306E+01
(PID.TID 0000.0001) %MON dynstat_eta_min              =  -1.6877771689970E+01
(PID.TID 0000.0001) %MON dynstat_eta_mean             =   6.7809186529168E-02
(PID.TID 0000.0001) %MON dynstat_eta_sd               =   8.2786558892745E-01
(PID.TID 0000.0001) %MON dynstat_eta_del2             =   2.4543233869799E-03
(PID.TID 0000.0001) %MON dynstat_uvel_max             =   4.4615123309768E+00
(PID.TID 0000.0001) %MON dynstat_uvel_min             =  -4.3493703011751E+00
(PID.TID 0000.0001) %MON dynstat_uvel_mean            =   2.4770764483500E-03
(PID.TID 0000.0001) %MON dynstat_uvel_sd              =   2.8846184064142E-02
(PID.TID 0000.0001) %MON dynstat_uvel_del2            =   3.2900610004289E-05
(PID.TID 0000.0001) %MON dynstat_vvel_max             =   4.3749177998278E+00
(PID.TID 0000.0001) %MON dynstat_vvel_min             =  -3.1207238072125E+00
(PID.TID 0000.0001) %MON dynstat_vvel_mean            =   1.1252010681686E-03
(PID.TID 0000.0001) %MON dynstat_vvel_sd              =   3.0062064458454E-02
(PID.TID 0000.0001) %MON dynstat_vvel_del2            =   3.2808842393531E-05
(PID.TID 0000.0001) %MON dynstat_wvel_max             =   6.8678295067904E-03
(PID.TID 0000.0001) %MON dynstat_wvel_min             =  -7.0896681866708E-03
(PID.TID 0000.0001) %MON dynstat_wvel_mean            =  -2.5214374466308E-07
(PID.TID 0000.0001) %MON dynstat_wvel_sd              =   7.6477552699798E-05
(PID.TID 0000.0001) %MON dynstat_wvel_del2            =   1.1980482576323E-07
(PID.TID 0000.0001) %MON dynstat_theta_max            =   3.2125083288921E+01
(PID.TID 0000.0001) %MON dynstat_theta_min            =  -1.9911998747255E+00
(PID.TID 0000.0001) %MON dynstat_theta_mean           =   3.5922376083565E+00
(PID.TID 0000.0001) %MON dynstat_theta_sd             =   4.4419907334375E+00
(PID.TID 0000.0001) %MON dynstat_theta_del2           =   1.1439099576614E-04
(PID.TID 0000.0001) %MON dynstat_salt_max             =   4.0655996770398E+01
(PID.TID 0000.0001) %MON dynstat_salt_min             =   1.6431409490612E+01
(PID.TID 0000.0001) %MON dynstat_salt_mean            =   3.4724913127339E+01
(PID.TID 0000.0001) %MON dynstat_salt_sd              =   3.7943916554641E-01
(PID.TID 0000.0001) %MON dynstat_salt_del2            =   9.4709732721036E-05
(PID.TID 0000.0001) %MON dynstat_sst_max              =   3.2125083288921E+01
(PID.TID 0000.0001) %MON dynstat_sst_min              =  -1.9911998747255E+00
(PID.TID 0000.0001) %MON dynstat_sst_mean             =   1.8175341593462E+01
(PID.TID 0000.0001) %MON dynstat_sst_sd               =   1.0113040314854E+01
(PID.TID 0000.0001) %MON dynstat_sst_del2             =   1.0471753239589E-03
(PID.TID 0000.0001) %MON dynstat_sss_max              =   3.9488854353942E+01
(PID.TID 0000.0001) %MON dynstat_sss_min              =   1.6431409490612E+01
(PID.TID 0000.0001) %MON dynstat_sss_mean             =   3.4661712256840E+01
(PID.TID 0000.0001) %MON dynstat_sss_sd               =   1.2706018359304E+00
(PID.TID 0000.0001) %MON dynstat_sss_del2             =   1.5892702152244E-03
(PID.TID 0000.0001) %MON forcing_qnet_max             =   6.5485300781250E+04
(PID.TID 0000.0001) %MON forcing_qnet_min             =  -2.6700046875000E+04
(PID.TID 0000.0001) %MON forcing_qnet_mean            =  -1.2370519335199E+02
(PID.TID 0000.0001) %MON forcing_qnet_sd              =   4.3713188128436E+02
(PID.TID 0000.0001) %MON forcing_qnet_del2            =   4.7649999349517E+00
(PID.TID 0000.0001) %MON forcing_qsw_max              =   0.0000000000000E+00
(PID.TID 0000.0001) %MON forcing_qsw_min              =  -1.4387473356223E+02
(PID.TID 0000.0001) %MON forcing_qsw_mean             =  -2.2146850007452E+01
(PID.TID 0000.0001) %MON forcing_qsw_sd               =   3.1617946868630E+01
(PID.TID 0000.0001) %MON forcing_qsw_del2             =   2.4774577823098E-02
(PID.TID 0000.0001) %MON forcing_empmr_max            =   8.1959366798401E-02
(PID.TID 0000.0001) %MON forcing_empmr_min            =  -5.7986576110125E-02
(PID.TID 0000.0001) %MON forcing_empmr_mean           =   5.9943179675456E-05
(PID.TID 0000.0001) %MON forcing_empmr_sd             =   7.5293663503034E-04
(PID.TID 0000.0001) %MON forcing_empmr_del2           =   8.8960647312818E-06
(PID.TID 0000.0001) %MON forcing_fu_max               =   2.1592562541758E+00
(PID.TID 0000.0001) %MON forcing_fu_min               =  -1.6900608388852E+00
(PID.TID 0000.0001) %MON forcing_fu_mean              =   6.7547245023374E-03
(PID.TID 0000.0001) %MON forcing_fu_sd                =   1.1266849415618E-01
(PID.TID 0000.0001) %MON forcing_fu_del2              =   3.5649920678721E-04
(PID.TID 0000.0001) %MON forcing_fv_max               =   2.7526202984512E+00
(PID.TID 0000.0001) %MON forcing_fv_min               =  -1.4981455925560E+00
(PID.TID 0000.0001) %MON forcing_fv_mean              =  -5.5126937815239E-04
(PID.TID 0000.0001) %MON forcing_fv_sd                =   1.1288101378160E-01
(PID.TID 0000.0001) %MON forcing_fv_del2              =   3.6780886736457E-04
(PID.TID 0000.0001) %MON trAdv_CFL_u_max              =   5.3925985133216E-02
(PID.TID 0000.0001) %MON trAdv_CFL_v_max              =   4.4480426797470E-02
(PID.TID 0000.0001) %MON trAdv_CFL_w_max              =   1.7709614029640E-01
(PID.TID 0000.0001) %MON advcfl_uvel_max              =   5.3080413811775E-02
(PID.TID 0000.0001) %MON advcfl_vvel_max              =   4.3825124671794E-02
(PID.TID 0000.0001) %MON advcfl_wvel_max              =   3.8913335213629E-01
(PID.TID 0000.0001) %MON advcfl_W_hf_max              =   1.7093188646516E-01
(PID.TID 0000.0001) %MON pe_b_mean                    =   2.1705788298546E-03
(PID.TID 0000.0001) %MON ke_max                       =   9.0271164576326E+00
(PID.TID 0000.0001) %MON ke_mean                      =   8.4057832921154E-04
(PID.TID 0000.0001) %MON ke_vol                       =   1.3350064351420E+18
(PID.TID 0000.0001) %MON vort_r_min                   =  -2.3476882770615E-04
(PID.TID 0000.0001) %MON vort_r_max                   =   1.3011048665015E-04
(PID.TID 0000.0001) %MON vort_a_mean                  =  -1.9725088387863E-05
(PID.TID 0000.0001) %MON vort_a_sd                    =   7.4538484086510E-05
(PID.TID 0000.0001) %MON vort_p_mean                  =  -2.1669094482147E-05
(PID.TID 0000.0001) %MON vort_p_sd                    =   9.3614781697199E-05
(PID.TID 0000.0001) %MON surfExpan_theta_mean         =   7.1824204194414E-06
(PID.TID 0000.0001) %MON surfExpan_salt_mean          =  -3.8399997593651E-06
(PID.TID 0000.0001) // =======================================================
(PID.TID 0000.0001) // End MONITOR dynamic field statistics
(PID.TID 0000.0001) // =======================================================
(PID.TID 0000.0001) // =======================================================
(PID.TID 0000.0001) // Begin MONITOR SEAICE statistics
(PID.TID 0000.0001) // =======================================================
(PID.TID 0000.0001) %MON seaice_tsnumber              =                174599
(PID.TID 0000.0001) %MON seaice_time_sec              =   7.8569550000000E+07
(PID.TID 0000.0001) %MON seaice_uice_max              =   4.7273349917383E+00
(PID.TID 0000.0001) %MON seaice_uice_min              =  -4.9829589012866E+00
(PID.TID 0000.0001) %MON seaice_uice_mean             =  -1.4138645248180E-03
(PID.TID 0000.0001) %MON seaice_uice_sd               =   1.9227787356529E-01
(PID.TID 0000.0001) %MON seaice_uice_del2             =   7.1530903439088E-04
(PID.TID 0000.0001) %MON seaice_vice_max              =   4.4012609887357E+00
(PID.TID 0000.0001) %MON seaice_vice_min              =  -3.3125690026051E+00
(PID.TID 0000.0001) %MON seaice_vice_mean             =  -1.5823080231786E-02
(PID.TID 0000.0001) %MON seaice_vice_sd               =   1.9909409358266E-01
(PID.TID 0000.0001) %MON seaice_vice_del2             =   7.2578307462708E-04
(PID.TID 0000.0001) %MON seaice_area_max              =   1.0217062774969E+00
(PID.TID 0000.0001) %MON seaice_area_min              =   0.0000000000000E+00
(PID.TID 0000.0001) %MON seaice_area_mean             =   5.7212842859937E-02
(PID.TID 0000.0001) %MON seaice_area_sd               =   2.2244637224763E-01
(PID.TID 0000.0001) %MON seaice_area_del2             =   4.0064925437243E-04
(PID.TID 0000.0001) %MON seaice_heff_max              =   9.9527563221274E+00
(PID.TID 0000.0001) %MON seaice_heff_min              =   0.0000000000000E+00
(PID.TID 0000.0001) %MON seaice_heff_mean             =   1.5007904521845E-01
(PID.TID 0000.0001) %MON seaice_heff_sd               =   7.2174979624285E-01
(PID.TID 0000.0001) %MON seaice_heff_del2             =   1.8260621363477E-03
(PID.TID 0000.0001) %MON seaice_hsnow_max             =   3.2873943596398E+00
(PID.TID 0000.0001) %MON seaice_hsnow_min             =   0.0000000000000E+00
(PID.TID 0000.0001) %MON seaice_hsnow_mean            =   1.2791599970108E-02
(PID.TID 0000.0001) %MON seaice_hsnow_sd              =   7.1020933716197E-02
(PID.TID 0000.0001) %MON seaice_hsnow_del2            =   5.2593193884625E-04
(PID.TID 0000.0001) // =======================================================
(PID.TID 0000.0001) // End MONITOR SEAICE statistics
(PID.TID 0000.0001) // =======================================================
(PID.TID 0000.0001) // =======================================================
(PID.TID 0000.0001) // Begin MONITOR dynamic field statistics
(PID.TID 0000.0001) // =======================================================
(PID.TID 0000.0001) %MON time_tsnumber                =                174600
(PID.TID 0000.0001) %MON time_secondsf                =   7.8570000000000E+07
(PID.TID 0000.0001) %MON dynstat_eta_max              =   8.7732170265536E+00
(PID.TID 0000.0001) %MON dynstat_eta_min              =  -1.7007998926720E+01
(PID.TID 0000.0001) %MON dynstat_eta_mean             =   6.7700750126266E-02
(PID.TID 0000.0001) %MON dynstat_eta_sd               =   8.2588917343372E-01
(PID.TID 0000.0001) %MON dynstat_eta_del2             =   2.4311956622247E-03
(PID.TID 0000.0001) %MON dynstat_uvel_max             =   4.4249028267773E+00
(PID.TID 0000.0001) %MON dynstat_uvel_min             =  -4.6776965479056E+00
(PID.TID 0000.0001) %MON dynstat_uvel_mean            =   2.3738399697272E-03
(PID.TID 0000.0001) %MON dynstat_uvel_sd              =   2.8894441185709E-02
(PID.TID 0000.0001) %MON dynstat_uvel_del2            =   3.2230502450001E-05
(PID.TID 0000.0001) %MON dynstat_vvel_max             =   4.2443667741316E+00
(PID.TID 0000.0001) %MON dynstat_vvel_min             =  -3.1158111675391E+00
(PID.TID 0000.0001) %MON dynstat_vvel_mean            =   1.1026815259415E-03
(PID.TID 0000.0001) %MON dynstat_vvel_sd              =   3.0132536556133E-02
(PID.TID 0000.0001) %MON dynstat_vvel_del2            =   3.2123968457578E-05
(PID.TID 0000.0001) %MON dynstat_wvel_max             =   6.6693379474805E-03
(PID.TID 0000.0001) %MON dynstat_wvel_min             =  -7.3074371521974E-03
(PID.TID 0000.0001) %MON dynstat_wvel_mean            =  -2.4659036674383E-07
(PID.TID 0000.0001) %MON dynstat_wvel_sd              =   7.6023124480339E-05
(PID.TID 0000.0001) %MON dynstat_wvel_del2            =   1.1896220694108E-07
(PID.TID 0000.0001) %MON dynstat_theta_max            =   3.2129666355374E+01
(PID.TID 0000.0001) %MON dynstat_theta_min            =  -1.9942596980353E+00
(PID.TID 0000.0001) %MON dynstat_theta_mean           =   3.5922403578514E+00
(PID.TID 0000.0001) %MON dynstat_theta_sd             =   4.4420022931337E+00
(PID.TID 0000.0001) %MON dynstat_theta_del2           =   1.1456465967736E-04
(PID.TID 0000.0001) %MON dynstat_salt_max             =   4.0655996770391E+01
(PID.TID 0000.0001) %MON dynstat_salt_min             =   1.6428679950241E+01
(PID.TID 0000.0001) %MON dynstat_salt_mean            =   3.4724912142036E+01
(PID.TID 0000.0001) %MON dynstat_salt_sd              =   3.7943622444128E-01
(PID.TID 0000.0001) %MON dynstat_salt_del2            =   9.3820016181599E-05
(PID.TID 0000.0001) %MON dynstat_sst_max              =   3.2129666355374E+01
(PID.TID 0000.0001) %MON dynstat_sst_min              =  -1.9942596980353E+00
(PID.TID 0000.0001) %MON dynstat_sst_mean             =   1.8175946596861E+01
(PID.TID 0000.0001) %MON dynstat_sst_sd               =   1.0114048271960E+01
(PID.TID 0000.0001) %MON dynstat_sst_del2             =   1.0518611387120E-03
(PID.TID 0000.0001) %MON dynstat_sss_max              =   3.9488888109739E+01
(PID.TID 0000.0001) %MON dynstat_sss_min              =   1.6428679950241E+01
(PID.TID 0000.0001) %MON dynstat_sss_mean             =   3.4661467302255E+01
(PID.TID 0000.0001) %MON dynstat_sss_sd               =   1.2709140150649E+00
(PID.TID 0000.0001) %MON dynstat_sss_del2             =   1.5918896325295E-03
(PID.TID 0000.0001) %MON forcing_qnet_max             =   1.9822837890625E+04
(PID.TID 0000.0001) %MON forcing_qnet_min             =  -9.3231117617322E+03
(PID.TID 0000.0001) %MON forcing_qnet_mean            =  -1.2051093001931E+02
(PID.TID 0000.0001) %MON forcing_qnet_sd              =   3.7922725581394E+02
(PID.TID 0000.0001) %MON forcing_qnet_del2            =   2.5611839623707E+00
(PID.TID 0000.0001) %MON forcing_qsw_max              =   0.0000000000000E+00
(PID.TID 0000.0001) %MON forcing_qsw_min              =  -1.4476130382998E+02
(PID.TID 0000.0001) %MON forcing_qsw_mean             =  -2.2022132187652E+01
(PID.TID 0000.0001) %MON forcing_qsw_sd               =   3.1502227970175E+01
(PID.TID 0000.0001) %MON forcing_qsw_del2             =   2.4849981348711E-02
(PID.TID 0000.0001) %MON forcing_empmr_max            =   8.7434895336628E-02
(PID.TID 0000.0001) %MON forcing_empmr_min            =  -5.9571724385023E-02
(PID.TID 0000.0001) %MON forcing_empmr_mean           =   5.8877315850618E-05
(PID.TID 0000.0001) %MON forcing_empmr_sd             =   7.5941452941897E-04
(PID.TID 0000.0001) %MON forcing_empmr_del2           =   9.0460678622289E-06
(PID.TID 0000.0001) %MON forcing_fu_max               =   2.1057873206172E+00
(PID.TID 0000.0001) %MON forcing_fu_min               =  -1.6094720479241E+00
(PID.TID 0000.0001) %MON forcing_fu_mean              =   6.8442227391711E-03
(PID.TID 0000.0001) %MON forcing_fu_sd                =   1.1222298195870E-01
(PID.TID 0000.0001) %MON forcing_fu_del2              =   3.3145791786428E-04
(PID.TID 0000.0001) %MON forcing_fv_max               =   2.6457450201554E+00
(PID.TID 0000.0001) %MON forcing_fv_min               =  -1.6354037784787E+00
(PID.TID 0000.0001) %MON forcing_fv_mean              =  -6.1880549596021E-04
(PID.TID 0000.0001) %MON forcing_fv_sd                =   1.1243963807150E-01
(PID.TID 0000.0001) %MON forcing_fv_del2              =   3.4647974756815E-04
(PID.TID 0000.0001) %MON trAdv_CFL_u_max              =   5.7996762067350E-02
(PID.TID 0000.0001) %MON trAdv_CFL_v_max              =   4.3153095494916E-02
(PID.TID 0000.0001) %MON trAdv_CFL_w_max              =   1.7371152709016E-01
(PID.TID 0000.0001) %MON advcfl_uvel_max              =   5.7087360067193E-02
(PID.TID 0000.0001) %MON advcfl_vvel_max              =   4.2517348105709E-02
(PID.TID 0000.0001) %MON advcfl_wvel_max              =   4.1226072975012E-01
(PID.TID 0000.0001) %MON advcfl_W_hf_max              =   1.6914616917912E-01
(PID.TID 0000.0001) %MON pe_b_mean                    =   2.1557555777573E-03
(PID.TID 0000.0001) %MON ke_max                       =   8.0652664635811E+00
(PID.TID 0000.0001) %MON ke_mean                      =   8.4370178262495E-04
(PID.TID 0000.0001) %MON ke_vol                       =   1.3350064351420E+18
(PID.TID 0000.0001) %MON vort_r_min                   =  -2.5422172051967E-04
(PID.TID 0000.0001) %MON vort_r_max                   =   1.1713229724391E-04
(PID.TID 0000.0001) %MON vort_a_mean                  =  -1.9725089370541E-05
(PID.TID 0000.0001) %MON vort_a_sd                    =   7.4538474730105E-05
(PID.TID 0000.0001) %MON vort_p_mean                  =  -2.1669095561672E-05
(PID.TID 0000.0001) %MON vort_p_sd                    =   9.3614221275157E-05
(PID.TID 0000.0001) %MON surfExpan_theta_mean         =   7.1302890017364E-06
(PID.TID 0000.0001) %MON surfExpan_salt_mean          =  -3.2550766638888E-06
(PID.TID 0000.0001) // =======================================================
(PID.TID 0000.0001) // End MONITOR dynamic field statistics
(PID.TID 0000.0001) // =======================================================
(PID.TID 0000.0001) // =======================================================
(PID.TID 0000.0001) // Begin MONITOR SEAICE statistics
(PID.TID 0000.0001) // =======================================================
(PID.TID 0000.0001) %MON seaice_tsnumber              =                174600
(PID.TID 0000.0001) %MON seaice_time_sec              =   7.8570000000000E+07
(PID.TID 0000.0001) %MON seaice_uice_max              =   4.7294390814293E+00
(PID.TID 0000.0001) %MON seaice_uice_min              =  -4.6753831482186E+00
(PID.TID 0000.0001) %MON seaice_uice_mean             =  -1.5585894317219E-03
(PID.TID 0000.0001) %MON seaice_uice_sd               =   1.9425620136020E-01
(PID.TID 0000.0001) %MON seaice_uice_del2             =   7.0712206657584E-04
(PID.TID 0000.0001) %MON seaice_vice_max              =   4.5035917333365E+00
(PID.TID 0000.0001) %MON seaice_vice_min              =  -3.1270766048795E+00
(PID.TID 0000.0001) %MON seaice_vice_mean             =  -1.6174721198526E-02
(PID.TID 0000.0001) %MON seaice_vice_sd               =   2.0122334897007E-01
(PID.TID 0000.0001) %MON seaice_vice_del2             =   7.1798404211723E-04
(PID.TID 0000.0001) %MON seaice_area_max              =   1.0198812182441E+00
(PID.TID 0000.0001) %MON seaice_area_min              =   0.0000000000000E+00
(PID.TID 0000.0001) %MON seaice_area_mean             =   5.7210575325153E-02
(PID.TID 0000.0001) %MON seaice_area_sd               =   2.2242172077732E-01
(PID.TID 0000.0001) %MON seaice_area_del2             =   3.9885034088677E-04
(PID.TID 0000.0001) %MON seaice_heff_max              =   9.9525343663108E+00
(PID.TID 0000.0001) %MON seaice_heff_min              =   0.0000000000000E+00
(PID.TID 0000.0001) %MON seaice_heff_mean             =   1.5008735079116E-01
(PID.TID 0000.0001) %MON seaice_heff_sd               =   7.2174934852547E-01
(PID.TID 0000.0001) %MON seaice_heff_del2             =   1.8140257701642E-03
(PID.TID 0000.0001) %MON seaice_hsnow_max             =   3.2873210992876E+00
(PID.TID 0000.0001) %MON seaice_hsnow_min             =   0.0000000000000E+00
(PID.TID 0000.0001) %MON seaice_hsnow_mean            =   1.2790860731836E-02
(PID.TID 0000.0001) %MON seaice_hsnow_sd              =   7.0951017943592E-02
(PID.TID 0000.0001) %MON seaice_hsnow_del2            =   5.2168842992415E-04
(PID.TID 0000.0001) // =======================================================
(PID.TID 0000.0001) // End MONITOR SEAICE statistics
(PID.TID 0000.0001) // =======================================================
(PID.TID 0000.0001) // =======================================================
(PID.TID 0000.0001) // Begin MONITOR dynamic field statistics
(PID.TID 0000.0001) // =======================================================
(PID.TID 0000.0001) %MON time_tsnumber                =                174601
(PID.TID 0000.0001) %MON time_secondsf                =   7.8570450000000E+07
(PID.TID 0000.0001) %MON dynstat_eta_max              =   7.2125805238097E+00
(PID.TID 0000.0001) %MON dynstat_eta_min              =  -1.6596185128846E+01
(PID.TID 0000.0001) %MON dynstat_eta_mean             =   6.7598273008264E-02
(PID.TID 0000.0001) %MON dynstat_eta_sd               =   8.2452704930412E-01
(PID.TID 0000.0001) %MON dynstat_eta_del2             =   2.4076924625394E-03
(PID.TID 0000.0001) %MON dynstat_uvel_max             =   4.3330876469864E+00
(PID.TID 0000.0001) %MON dynstat_uvel_min             =  -4.8441477176442E+00
(PID.TID 0000.0001) %MON dynstat_uvel_mean            =   2.2705447311612E-03
(PID.TID 0000.0001) %MON dynstat_uvel_sd              =   2.8912938845942E-02
(PID.TID 0000.0001) %MON dynstat_uvel_del2            =   3.1689760599028E-05
(PID.TID 0000.0001) %MON dynstat_vvel_max             =   3.9541901774971E+00
(PID.TID 0000.0001) %MON dynstat_vvel_min             =  -3.0804543523059E+00
(PID.TID 0000.0001) %MON dynstat_vvel_mean            =   1.0794271646729E-03
(PID.TID 0000.0001) %MON dynstat_vvel_sd              =   3.0185510036332E-02
(PID.TID 0000.0001) %MON dynstat_vvel_del2            =   3.1619477407329E-05
(PID.TID 0000.0001) %MON dynstat_wvel_max             =   6.3528497092818E-03
(PID.TID 0000.0001) %MON dynstat_wvel_min             =  -7.3127896354396E-03
(PID.TID 0000.0001) %MON dynstat_wvel_mean            =  -2.4273324872651E-07
(PID.TID 0000.0001) %MON dynstat_wvel_sd              =   7.5145760845713E-05
(PID.TID 0000.0001) %MON dynstat_wvel_del2            =   1.1712595657003E-07
(PID.TID 0000.0001) %MON dynstat_theta_max            =   3.2134264640518E+01
(PID.TID 0000.0001) %MON dynstat_theta_min            =  -1.9966721362293E+00
(PID.TID 0000.0001) %MON dynstat_theta_mean           =   3.5922430304148E+00
(PID.TID 0000.0001) %MON dynstat_theta_sd             =   4.4420142730827E+00
(PID.TID 0000.0001) %MON dynstat_theta_del2           =   1.1475641063866E-04
(PID.TID 0000.0001) %MON dynstat_salt_max             =   4.0655996770383E+01
(PID.TID 0000.0001) %MON dynstat_salt_min             =   1.6425231947168E+01
(PID.TID 0000.0001) %MON dynstat_salt_mean            =   3.4724911156180E+01
(PID.TID 0000.0001) %MON dynstat_salt_sd              =   3.7943432069059E-01
(PID.TID 0000.0001) %MON dynstat_salt_del2            =   9.3083002251571E-05
(PID.TID 0000.0001) %MON dynstat_sst_max              =   3.2134264640518E+01
(PID.TID 0000.0001) %MON dynstat_sst_min              =  -1.9966721362293E+00
(PID.TID 0000.0001) %MON dynstat_sst_mean             =   1.8176512824599E+01
(PID.TID 0000.0001) %MON dynstat_sst_sd               =   1.0115048303725E+01
(PID.TID 0000.0001) %MON dynstat_sst_del2             =   1.0579382232499E-03
(PID.TID 0000.0001) %MON dynstat_sss_max              =   3.9488920917563E+01
(PID.TID 0000.0001) %MON dynstat_sss_min              =   1.6425231947168E+01
(PID.TID 0000.0001) %MON dynstat_sss_mean             =   3.4661241729001E+01
(PID.TID 0000.0001) %MON dynstat_sss_sd               =   1.2711937897077E+00
(PID.TID 0000.0001) %MON dynstat_sss_del2             =   1.5922989004411E-03
(PID.TID 0000.0001) %MON forcing_qnet_max             =   3.7035980468750E+04
(PID.TID 0000.0001) %MON forcing_qnet_min             =  -2.0317351562500E+04
(PID.TID 0000.0001) %MON forcing_qnet_mean            =  -1.1716521759140E+02
(PID.TID 0000.0001) %MON forcing_qnet_sd              =   4.0225457721882E+02
(PID.TID 0000.0001) %MON forcing_qnet_del2            =   3.7329735767613E+00
(PID.TID 0000.0001) %MON forcing_qsw_max              =   0.0000000000000E+00
(PID.TID 0000.0001) %MON forcing_qsw_min              =  -1.4548183183040E+02
(PID.TID 0000.0001) %MON forcing_qsw_mean             =  -2.1884518917243E+01
(PID.TID 0000.0001) %MON forcing_qsw_sd               =   3.1373691550277E+01
(PID.TID 0000.0001) %MON forcing_qsw_del2             =   2.4913983837231E-02
(PID.TID 0000.0001) %MON forcing_empmr_max            =   9.6945531666279E-02
(PID.TID 0000.0001) %MON forcing_empmr_min            =  -5.9530954807997E-02
(PID.TID 0000.0001) %MON forcing_empmr_mean           =   5.7998247918541E-05
(PID.TID 0000.0001) %MON forcing_empmr_sd             =   7.6983090532564E-04
(PID.TID 0000.0001) %MON forcing_empmr_del2           =   9.3192543370468E-06
(PID.TID 0000.0001) %MON forcing_fu_max               =   2.0781666896788E+00
(PID.TID 0000.0001) %MON forcing_fu_min               =  -1.6253309441597E+00
(PID.TID 0000.0001) %MON forcing_fu_mean              =   6.9370914120893E-03
(PID.TID 0000.0001) %MON forcing_fu_sd                =   1.1188443574977E-01
(PID.TID 0000.0001) %MON forcing_fu_del2              =   3.1126093715941E-04
(PID.TID 0000.0001) %MON forcing_fv_max               =   2.5109564159849E+00
(PID.TID 0000.0001) %MON forcing_fv_min               =  -1.7513756627064E+00
(PID.TID 0000.0001) %MON forcing_fv_mean              =  -6.8295108617939E-04
(PID.TID 0000.0001) %MON forcing_fv_sd                =   1.1204542616711E-01
(PID.TID 0000.0001) %MON forcing_fv_del2              =   3.2899499944388E-04
(PID.TID 0000.0001) %MON trAdv_CFL_u_max              =   6.0060519044379E-02
(PID.TID 0000.0001) %MON trAdv_CFL_v_max              =   4.0202827751498E-02
(PID.TID 0000.0001) %MON trAdv_CFL_w_max              =   1.7112362163523E-01
(PID.TID 0000.0001) %MON advcfl_uvel_max              =   5.9118756880381E-02
(PID.TID 0000.0001) %MON advcfl_vvel_max              =   3.9610544799634E-02
(PID.TID 0000.0001) %MON advcfl_wvel_max              =   4.1849129493990E-01
(PID.TID 0000.0001) %MON advcfl_W_hf_max              =   1.7112362163523E-01
(PID.TID 0000.0001) %MON pe_b_mean                    =   2.1430201133259E-03
(PID.TID 0000.0001) %MON ke_max                       =   7.7957941480452E+00
(PID.TID 0000.0001) %MON ke_mean                      =   8.4550247162889E-04
(PID.TID 0000.0001) %MON ke_vol                       =   1.3350064351420E+18
(PID.TID 0000.0001) %MON vort_r_min                   =  -2.6527631511521E-04
(PID.TID 0000.0001) %MON vort_r_max                   =   1.2748372343339E-04
(PID.TID 0000.0001) %MON vort_a_mean                  =  -1.9725089954255E-05
(PID.TID 0000.0001) %MON vort_a_sd                    =   7.4538463106806E-05
(PID.TID 0000.0001) %MON vort_p_mean                  =  -2.1669096202914E-05
(PID.TID 0000.0001) %MON vort_p_sd                    =   9.3613702694040E-05
(PID.TID 0000.0001) %MON surfExpan_theta_mean         =   6.9468813127868E-06
(PID.TID 0000.0001) %MON surfExpan_salt_mean          =  -2.8150164794789E-06
(PID.TID 0000.0001) // =======================================================
(PID.TID 0000.0001) // End MONITOR dynamic field statistics
(PID.TID 0000.0001) // =======================================================
(PID.TID 0000.0001) // =======================================================
(PID.TID 0000.0001) // Begin MONITOR SEAICE statistics
(PID.TID 0000.0001) // =======================================================
(PID.TID 0000.0001) %MON seaice_tsnumber              =                174601
(PID.TID 0000.0001) %MON seaice_time_sec              =   7.8570450000000E+07
(PID.TID 0000.0001) %MON seaice_uice_max              =   4.6692378904740E+00
(PID.TID 0000.0001) %MON seaice_uice_min              =  -4.5193809455026E+00
(PID.TID 0000.0001) %MON seaice_uice_mean             =  -1.7003249910148E-03
(PID.TID 0000.0001) %MON seaice_uice_sd               =   1.9581766692837E-01
(PID.TID 0000.0001) %MON seaice_uice_del2             =   6.9723730907061E-04
(PID.TID 0000.0001) %MON seaice_vice_max              =   4.4515330334029E+00
(PID.TID 0000.0001) %MON seaice_vice_min              =  -3.1371140763713E+00
(PID.TID 0000.0001) %MON seaice_vice_mean             =  -1.6509371293356E-02
(PID.TID 0000.0001) %MON seaice_vice_sd               =   2.0292332627094E-01
(PID.TID 0000.0001) %MON seaice_vice_del2             =   7.1017591043745E-04
(PID.TID 0000.0001) %MON seaice_area_max              =   1.0174948836538E+00
(PID.TID 0000.0001) %MON seaice_area_min              =   0.0000000000000E+00
(PID.TID 0000.0001) %MON seaice_area_mean             =   5.7208585071324E-02
(PID.TID 0000.0001) %MON seaice_area_sd               =   2.2239921525169E-01
(PID.TID 0000.0001) %MON seaice_area_del2             =   3.9705256159897E-04
(PID.TID 0000.0001) %MON seaice_heff_max              =   9.9523657165539E+00
(PID.TID 0000.0001) %MON seaice_heff_min              =   0.0000000000000E+00
(PID.TID 0000.0001) %MON seaice_heff_mean             =   1.5009534921235E-01
(PID.TID 0000.0001) %MON seaice_heff_sd               =   7.2175376223732E-01
(PID.TID 0000.0001) %MON seaice_heff_del2             =   1.8022949124673E-03
(PID.TID 0000.0001) %MON seaice_hsnow_max             =   3.2872659746354E+00
(PID.TID 0000.0001) %MON seaice_hsnow_min             =   0.0000000000000E+00
(PID.TID 0000.0001) %MON seaice_hsnow_mean            =   1.2790145376319E-02
(PID.TID 0000.0001) %MON seaice_hsnow_sd              =   7.0887985422005E-02
(PID.TID 0000.0001) %MON seaice_hsnow_del2            =   5.1756645569835E-04
(PID.TID 0000.0001) // =======================================================
(PID.TID 0000.0001) // End MONITOR SEAICE statistics
(PID.TID 0000.0001) // =======================================================
(PID.TID 0000.0001) // =======================================================
(PID.TID 0000.0001) // Begin MONITOR dynamic field statistics
(PID.TID 0000.0001) // =======================================================
(PID.TID 0000.0001) %MON time_tsnumber                =                174602
(PID.TID 0000.0001) %MON time_secondsf                =   7.8570900000000E+07
(PID.TID 0000.0001) %MON dynstat_eta_max              =   6.3900693931006E+00
(PID.TID 0000.0001) %MON dynstat_eta_min              =  -1.5719168819755E+01
(PID.TID 0000.0001) %MON dynstat_eta_mean             =   6.7500752855781E-02
(PID.TID 0000.0001) %MON dynstat_eta_sd               =   8.2371896959912E-01
(PID.TID 0000.0001) %MON dynstat_eta_del2             =   2.3835712781981E-03
(PID.TID 0000.0001) %MON dynstat_uvel_max             =   4.1862483722940E+00
(PID.TID 0000.0001) %MON dynstat_uvel_min             =  -4.8281394852655E+00
(PID.TID 0000.0001) %MON dynstat_uvel_mean            =   2.1696189640362E-03
(PID.TID 0000.0001) %MON dynstat_uvel_sd              =   2.8904390748060E-02
(PID.TID 0000.0001) %MON dynstat_uvel_del2            =   3.1218705531699E-05
(PID.TID 0000.0001) %MON dynstat_vvel_max             =   3.5297962502281E+00
(PID.TID 0000.0001) %MON dynstat_vvel_min             =  -3.0033882121160E+00
(PID.TID 0000.0001) %MON dynstat_vvel_mean            =   1.0551559775649E-03
(PID.TID 0000.0001) %MON dynstat_vvel_sd              =   3.0221928831070E-02
(PID.TID 0000.0001) %MON dynstat_vvel_del2            =   3.1219406816924E-05
(PID.TID 0000.0001) %MON dynstat_wvel_max             =   5.9798467500934E-03
(PID.TID 0000.0001) %MON dynstat_wvel_min             =  -6.9244665645766E-03
(PID.TID 0000.0001) %MON dynstat_wvel_mean            =  -2.4021455044953E-07
(PID.TID 0000.0001) %MON dynstat_wvel_sd              =   7.3882386539366E-05
(PID.TID 0000.0001) %MON dynstat_wvel_del2            =   1.1445328392154E-07
(PID.TID 0000.0001) %MON dynstat_theta_max            =   3.2138890249557E+01
(PID.TID 0000.0001) %MON dynstat_theta_min            =  -1.9978241146978E+00
(PID.TID 0000.0001) %MON dynstat_theta_mean           =   3.5922456819343E+00
(PID.TID 0000.0001) %MON dynstat_theta_sd             =   4.4420267006249E+00
(PID.TID 0000.0001) %MON dynstat_theta_del2           =   1.1494016227363E-04
(PID.TID 0000.0001) %MON dynstat_salt_max             =   4.0655996770376E+01
(PID.TID 0000.0001) %MON dynstat_salt_min             =   1.6421288896135E+01
(PID.TID 0000.0001) %MON dynstat_salt_mean            =   3.4724910188781E+01
(PID.TID 0000.0001) %MON dynstat_salt_sd              =   3.7943297766225E-01
(PID.TID 0000.0001) %MON dynstat_salt_del2            =   9.2424478633621E-05
(PID.TID 0000.0001) %MON dynstat_sst_max              =   3.2138890249557E+01
(PID.TID 0000.0001) %MON dynstat_sst_min              =  -1.9978241146978E+00
(PID.TID 0000.0001) %MON dynstat_sst_mean             =   1.8177038617109E+01
(PID.TID 0000.0001) %MON dynstat_sst_sd               =   1.0116061017380E+01
(PID.TID 0000.0001) %MON dynstat_sst_del2             =   1.0647151606818E-03
(PID.TID 0000.0001) %MON dynstat_sss_max              =   3.9488952919943E+01
(PID.TID 0000.0001) %MON dynstat_sss_min              =   1.6421288896135E+01
(PID.TID 0000.0001) %MON dynstat_sss_mean             =   3.4661023946248E+01
(PID.TID 0000.0001) %MON dynstat_sss_sd               =   1.2714554803311E+00
(PID.TID 0000.0001) %MON dynstat_sss_del2             =   1.5920597892425E-03
(PID.TID 0000.0001) %MON forcing_qnet_max             =   6.1103921875000E+04
(PID.TID 0000.0001) %MON forcing_qnet_min             =  -3.5600731015380E+04
(PID.TID 0000.0001) %MON forcing_qnet_mean            =  -1.1529121045752E+02
(PID.TID 0000.0001) %MON forcing_qnet_sd              =   4.2574327081900E+02
(PID.TID 0000.0001) %MON forcing_qnet_del2            =   4.2270877684550E+00
(PID.TID 0000.0001) %MON forcing_qsw_max              =   0.0000000000000E+00
(PID.TID 0000.0001) %MON forcing_qsw_min              =  -1.4603768777934E+02
(PID.TID 0000.0001) %MON forcing_qsw_mean             =  -2.1734348822693E+01
(PID.TID 0000.0001) %MON forcing_qsw_sd               =   3.1232711118280E+01
(PID.TID 0000.0001) %MON forcing_qsw_del2             =   2.4966016642698E-02
(PID.TID 0000.0001) %MON forcing_empmr_max            =   1.1539144068956E-01
(PID.TID 0000.0001) %MON forcing_empmr_min            =  -5.9067510068417E-02
(PID.TID 0000.0001) %MON forcing_empmr_mean           =   5.7074063273006E-05
(PID.TID 0000.0001) %MON forcing_empmr_sd             =   7.9412847404333E-04
(PID.TID 0000.0001) %MON forcing_empmr_del2           =   9.9344364927990E-06
(PID.TID 0000.0001) %MON forcing_fu_max               =   2.0261787286078E+00
(PID.TID 0000.0001) %MON forcing_fu_min               =  -1.6070988510274E+00
(PID.TID 0000.0001) %MON forcing_fu_mean              =   7.0213531939116E-03
(PID.TID 0000.0001) %MON forcing_fu_sd                =   1.1158694141109E-01
(PID.TID 0000.0001) %MON forcing_fu_del2              =   2.9391132797141E-04
(PID.TID 0000.0001) %MON forcing_fv_max               =   2.2709625678647E+00
(PID.TID 0000.0001) %MON forcing_fv_min               =  -1.7477369703397E+00
(PID.TID 0000.0001) %MON forcing_fv_mean              =  -7.4216522070354E-04
(PID.TID 0000.0001) %MON forcing_fv_sd                =   1.1169844367957E-01
(PID.TID 0000.0001) %MON forcing_fv_del2              =   3.1189923014097E-04
(PID.TID 0000.0001) %MON trAdv_CFL_u_max              =   5.9862039806815E-02
(PID.TID 0000.0001) %MON trAdv_CFL_v_max              =   4.1085189238905E-02
(PID.TID 0000.0001) %MON trAdv_CFL_w_max              =   1.6577293992927E-01
(PID.TID 0000.0001) %MON advcfl_uvel_max              =   5.8923389840967E-02
(PID.TID 0000.0001) %MON advcfl_vvel_max              =   4.1163108432492E-02
(PID.TID 0000.0001) %MON advcfl_wvel_max              =   4.0616015235556E-01
(PID.TID 0000.0001) %MON advcfl_W_hf_max              =   1.6577293992927E-01
(PID.TID 0000.0001) %MON pe_b_mean                    =   2.1321428035588E-03
(PID.TID 0000.0001) %MON ke_max                       =   7.6985133720631E+00
(PID.TID 0000.0001) %MON ke_mean                      =   8.4608411998934E-04
(PID.TID 0000.0001) %MON ke_vol                       =   1.3350064351420E+18
(PID.TID 0000.0001) %MON vort_r_min                   =  -2.6646877492114E-04
(PID.TID 0000.0001) %MON vort_r_max                   =   1.3267634542827E-04
(PID.TID 0000.0001) %MON vort_a_mean                  =  -1.9725090016480E-05
(PID.TID 0000.0001) %MON vort_a_sd                    =   7.4538449462522E-05
(PID.TID 0000.0001) %MON vort_p_mean                  =  -2.1669096271272E-05
(PID.TID 0000.0001) %MON vort_p_sd                    =   9.3613229452860E-05
(PID.TID 0000.0001) %MON surfExpan_theta_mean         =   6.6575610913541E-06
(PID.TID 0000.0001) %MON surfExpan_salt_mean          =  -2.4717171875434E-06
(PID.TID 0000.0001) // =======================================================
(PID.TID 0000.0001) // End MONITOR dynamic field statistics
(PID.TID 0000.0001) // =======================================================
(PID.TID 0000.0001) // =======================================================
(PID.TID 0000.0001) // Begin MONITOR SEAICE statistics
(PID.TID 0000.0001) // =======================================================
(PID.TID 0000.0001) %MON seaice_tsnumber              =                174602
(PID.TID 0000.0001) %MON seaice_time_sec              =   7.8570900000000E+07
(PID.TID 0000.0001) %MON seaice_uice_max              =   4.5535195553532E+00
(PID.TID 0000.0001) %MON seaice_uice_min              =  -4.6705738727029E+00
(PID.TID 0000.0001) %MON seaice_uice_mean             =  -1.8199759643706E-03
(PID.TID 0000.0001) %MON seaice_uice_sd               =   1.9701752524039E-01
(PID.TID 0000.0001) %MON seaice_uice_del2             =   6.8770419928997E-04
(PID.TID 0000.0001) %MON seaice_vice_max              =   4.2404500605947E+00
(PID.TID 0000.0001) %MON seaice_vice_min              =  -3.1003165218164E+00
(PID.TID 0000.0001) %MON seaice_vice_mean             =  -1.6836336972401E-02
(PID.TID 0000.0001) %MON seaice_vice_sd               =   2.0427888374584E-01
(PID.TID 0000.0001) %MON seaice_vice_del2             =   7.0305522647250E-04
(PID.TID 0000.0001) %MON seaice_area_max              =   1.0208661022036E+00
(PID.TID 0000.0001) %MON seaice_area_min              =   0.0000000000000E+00
(PID.TID 0000.0001) %MON seaice_area_mean             =   5.7207008362502E-02
(PID.TID 0000.0001) %MON seaice_area_sd               =   2.2237921514068E-01
(PID.TID 0000.0001) %MON seaice_area_del2             =   3.9527262328860E-04
(PID.TID 0000.0001) %MON seaice_heff_max              =   9.9522350940584E+00
(PID.TID 0000.0001) %MON seaice_heff_min              =   0.0000000000000E+00
(PID.TID 0000.0001) %MON seaice_heff_mean             =   1.5010306071433E-01
(PID.TID 0000.0001) %MON seaice_heff_sd               =   7.2176121917050E-01
(PID.TID 0000.0001) %MON seaice_heff_del2             =   1.7909219416064E-03
(PID.TID 0000.0001) %MON seaice_hsnow_max             =   3.2872231605459E+00
(PID.TID 0000.0001) %MON seaice_hsnow_min             =   0.0000000000000E+00
(PID.TID 0000.0001) %MON seaice_hsnow_mean            =   1.2789461336160E-02
(PID.TID 0000.0001) %MON seaice_hsnow_sd              =   7.0830186271450E-02
(PID.TID 0000.0001) %MON seaice_hsnow_del2            =   5.1359219056274E-04
(PID.TID 0000.0001) // =======================================================
(PID.TID 0000.0001) // End MONITOR SEAICE statistics
(PID.TID 0000.0001) // =======================================================
(PID.TID 0000.0001) // =======================================================
(PID.TID 0000.0001) // Begin MONITOR dynamic field statistics
(PID.TID 0000.0001) // =======================================================
(PID.TID 0000.0001) %MON time_tsnumber                =                174603
(PID.TID 0000.0001) %MON time_secondsf                =   7.8571350000000E+07
(PID.TID 0000.0001) %MON dynstat_eta_max              =   6.1791556748709E+00
(PID.TID 0000.0001) %MON dynstat_eta_min              =  -1.4495472568614E+01
(PID.TID 0000.0001) %MON dynstat_eta_mean             =   6.7406817286675E-02
(PID.TID 0000.0001) %MON dynstat_eta_sd               =   8.2338458913465E-01
(PID.TID 0000.0001) %MON dynstat_eta_del2             =   2.3591937108335E-03
(PID.TID 0000.0001) %MON dynstat_uvel_max             =   3.9880326743025E+00
(PID.TID 0000.0001) %MON dynstat_uvel_min             =  -4.8109429956039E+00
(PID.TID 0000.0001) %MON dynstat_uvel_mean            =   2.0731805973825E-03
(PID.TID 0000.0001) %MON dynstat_uvel_sd              =   2.8874270170045E-02
(PID.TID 0000.0001) %MON dynstat_uvel_del2            =   3.0802712007778E-05
(PID.TID 0000.0001) %MON dynstat_vvel_max             =   3.0035932307872E+00
(PID.TID 0000.0001) %MON dynstat_vvel_min             =  -3.0300880591858E+00
(PID.TID 0000.0001) %MON dynstat_vvel_mean            =   1.0293327876726E-03
(PID.TID 0000.0001) %MON dynstat_vvel_sd              =   3.0242704256150E-02
(PID.TID 0000.0001) %MON dynstat_vvel_del2            =   3.0929858183802E-05
(PID.TID 0000.0001) %MON dynstat_wvel_max             =   5.5994333075106E-03
(PID.TID 0000.0001) %MON dynstat_wvel_min             =  -6.1911996169555E-03
(PID.TID 0000.0001) %MON dynstat_wvel_mean            =  -2.3902536129041E-07
(PID.TID 0000.0001) %MON dynstat_wvel_sd              =   7.2336011712935E-05
(PID.TID 0000.0001) %MON dynstat_wvel_del2            =   1.1119721205128E-07
(PID.TID 0000.0001) %MON dynstat_theta_max            =   3.2143554145459E+01
(PID.TID 0000.0001) %MON dynstat_theta_min            =  -1.9948779343357E+00
(PID.TID 0000.0001) %MON dynstat_theta_mean           =   3.5922482671578E+00
(PID.TID 0000.0001) %MON dynstat_theta_sd             =   4.4420394217487E+00
(PID.TID 0000.0001) %MON dynstat_theta_del2           =   1.1514487121531E-04
(PID.TID 0000.0001) %MON dynstat_salt_max             =   4.0655996770367E+01
(PID.TID 0000.0001) %MON dynstat_salt_min             =   1.6417042193077E+01
(PID.TID 0000.0001) %MON dynstat_salt_mean            =   3.4724909223555E+01
(PID.TID 0000.0001) %MON dynstat_salt_sd              =   3.7943242882304E-01
(PID.TID 0000.0001) %MON dynstat_salt_del2            =   9.1838232564753E-05
(PID.TID 0000.0001) %MON dynstat_sst_max              =   3.2143554145459E+01
(PID.TID 0000.0001) %MON dynstat_sst_min              =  -1.9948779343357E+00
(PID.TID 0000.0001) %MON dynstat_sst_mean             =   1.8177554252720E+01
(PID.TID 0000.0001) %MON dynstat_sst_sd               =   1.0117060353332E+01
(PID.TID 0000.0001) %MON dynstat_sst_del2             =   1.0706356467772E-03
(PID.TID 0000.0001) %MON dynstat_sss_max              =   3.9488984265282E+01
(PID.TID 0000.0001) %MON dynstat_sss_min              =   1.6417042193077E+01
(PID.TID 0000.0001) %MON dynstat_sss_mean             =   3.4660823527497E+01
(PID.TID 0000.0001) %MON dynstat_sss_sd               =   1.2717090780240E+00
(PID.TID 0000.0001) %MON dynstat_sss_del2             =   1.5913595120508E-03
(PID.TID 0000.0001) %MON forcing_qnet_max             =   6.4610363120247E+04
(PID.TID 0000.0001) %MON forcing_qnet_min             =  -9.5496233747572E+03
(PID.TID 0000.0001) %MON forcing_qnet_mean            =  -1.1143972445929E+02
(PID.TID 0000.0001) %MON forcing_qnet_sd              =   3.8600484470328E+02
(PID.TID 0000.0001) %MON forcing_qnet_del2            =   3.3476851249068E+00
(PID.TID 0000.0001) %MON forcing_qsw_max              =   0.0000000000000E+00
(PID.TID 0000.0001) %MON forcing_qsw_min              =  -1.4642981494480E+02
(PID.TID 0000.0001) %MON forcing_qsw_mean             =  -2.1571783993227E+01
(PID.TID 0000.0001) %MON forcing_qsw_sd               =   3.1079783066723E+01
(PID.TID 0000.0001) %MON forcing_qsw_del2             =   2.5005639969641E-02
(PID.TID 0000.0001) %MON forcing_empmr_max            =   1.7011176049709E-01
(PID.TID 0000.0001) %MON forcing_empmr_min            =  -6.2011986970901E-02
(PID.TID 0000.0001) %MON forcing_empmr_mean           =   5.6904382389393E-05
(PID.TID 0000.0001) %MON forcing_empmr_sd             =   8.8117124560282E-04
(PID.TID 0000.0001) %MON forcing_empmr_del2           =   1.2140522881229E-05
(PID.TID 0000.0001) %MON forcing_fu_max               =   1.9213312859141E+00
(PID.TID 0000.0001) %MON forcing_fu_min               =  -1.4753268008209E+00
(PID.TID 0000.0001) %MON forcing_fu_mean              =   7.0954395515296E-03
(PID.TID 0000.0001) %MON forcing_fu_sd                =   1.1131517396169E-01
(PID.TID 0000.0001) %MON forcing_fu_del2              =   2.7854722414168E-04
(PID.TID 0000.0001) %MON forcing_fv_max               =   2.1318070863794E+00
(PID.TID 0000.0001) %MON forcing_fv_min               =  -1.6764540960560E+00
(PID.TID 0000.0001) %MON forcing_fv_mean              =  -7.9821234209578E-04
(PID.TID 0000.0001) %MON forcing_fv_sd                =   1.1138532223372E-01
(PID.TID 0000.0001) %MON forcing_fv_del2              =   2.9280316275375E-04
(PID.TID 0000.0001) %MON trAdv_CFL_u_max              =   5.8603351206915E-02
(PID.TID 0000.0001) %MON trAdv_CFL_v_max              =   4.2713370402146E-02
(PID.TID 0000.0001) %MON trAdv_CFL_w_max              =   1.7910102593448E-01
(PID.TID 0000.0001) %MON advcfl_uvel_max              =   5.7701518711731E-02
(PID.TID 0000.0001) %MON advcfl_vvel_max              =   4.2794377486177E-02
(PID.TID 0000.0001) %MON advcfl_wvel_max              =   3.8416550594911E-01
(PID.TID 0000.0001) %MON advcfl_W_hf_max              =   1.7910102593448E-01
(PID.TID 0000.0001) %MON pe_b_mean                    =   2.1228778176258E-03
(PID.TID 0000.0001) %MON ke_max                       =   7.1746091045683E+00
(PID.TID 0000.0001) %MON ke_mean                      =   8.4562767578239E-04
(PID.TID 0000.0001) %MON ke_vol                       =   1.3350064351420E+18
(PID.TID 0000.0001) %MON vort_r_min                   =  -2.5737892693715E-04
(PID.TID 0000.0001) %MON vort_r_max                   =   1.3238582906288E-04
(PID.TID 0000.0001) %MON vort_a_mean                  =  -1.9725089501799E-05
(PID.TID 0000.0001) %MON vort_a_sd                    =   7.4538434063340E-05
(PID.TID 0000.0001) %MON vort_p_mean                  =  -2.1669095705867E-05
(PID.TID 0000.0001) %MON vort_p_sd                    =   9.3612811869137E-05
(PID.TID 0000.0001) %MON surfExpan_theta_mean         =   6.2692007853400E-06
(PID.TID 0000.0001) %MON surfExpan_salt_mean          =  -2.2067742957110E-06
(PID.TID 0000.0001) // =======================================================
(PID.TID 0000.0001) // End MONITOR dynamic field statistics
(PID.TID 0000.0001) // =======================================================
(PID.TID 0000.0001) // =======================================================
(PID.TID 0000.0001) // Begin MONITOR SEAICE statistics
(PID.TID 0000.0001) // =======================================================
(PID.TID 0000.0001) %MON seaice_tsnumber              =                174603
(PID.TID 0000.0001) %MON seaice_time_sec              =   7.8571350000000E+07
(PID.TID 0000.0001) %MON seaice_uice_max              =   4.3863332618780E+00
(PID.TID 0000.0001) %MON seaice_uice_min              =  -4.6510328433902E+00
(PID.TID 0000.0001) %MON seaice_uice_mean             =  -1.9255008046332E-03
(PID.TID 0000.0001) %MON seaice_uice_sd               =   1.9787578270111E-01
(PID.TID 0000.0001) %MON seaice_uice_del2             =   6.7950774181455E-04
(PID.TID 0000.0001) %MON seaice_vice_max              =   3.8757617832116E+00
(PID.TID 0000.0001) %MON seaice_vice_min              =  -3.0213165445013E+00
(PID.TID 0000.0001) %MON seaice_vice_mean             =  -1.7160846009850E-02
(PID.TID 0000.0001) %MON seaice_vice_sd               =   2.0530305771920E-01
(PID.TID 0000.0001) %MON seaice_vice_del2             =   6.9773008127817E-04
(PID.TID 0000.0001) %MON seaice_area_max              =   1.0172089514751E+00
(PID.TID 0000.0001) %MON seaice_area_min              =   0.0000000000000E+00
(PID.TID 0000.0001) %MON seaice_area_mean             =   5.7205745527314E-02
(PID.TID 0000.0001) %MON seaice_area_sd               =   2.2236092269563E-01
(PID.TID 0000.0001) %MON seaice_area_del2             =   3.9349851687917E-04
(PID.TID 0000.0001) %MON seaice_heff_max              =   9.9521276269323E+00
(PID.TID 0000.0001) %MON seaice_heff_min              =   0.0000000000000E+00
(PID.TID 0000.0001) %MON seaice_heff_mean             =   1.5011052124131E-01
(PID.TID 0000.0001) %MON seaice_heff_sd               =   7.2177064594356E-01
(PID.TID 0000.0001) %MON seaice_heff_del2             =   1.7799553550407E-03
(PID.TID 0000.0001) %MON seaice_hsnow_max             =   3.2871883634792E+00
(PID.TID 0000.0001) %MON seaice_hsnow_min             =   0.0000000000000E+00
(PID.TID 0000.0001) %MON seaice_hsnow_mean            =   1.2788808110427E-02
(PID.TID 0000.0001) %MON seaice_hsnow_sd              =   7.0776446109357E-02
(PID.TID 0000.0001) %MON seaice_hsnow_del2            =   5.0978575742522E-04
(PID.TID 0000.0001) // =======================================================
(PID.TID 0000.0001) // End MONITOR SEAICE statistics
(PID.TID 0000.0001) // =======================================================
(PID.TID 0000.0001) // =======================================================
(PID.TID 0000.0001) // Begin MONITOR dynamic field statistics
(PID.TID 0000.0001) // =======================================================
(PID.TID 0000.0001) %MON time_tsnumber                =                174604
(PID.TID 0000.0001) %MON time_secondsf                =   7.8571800000000E+07
(PID.TID 0000.0001) %MON dynstat_eta_max              =   5.9390524941795E+00
(PID.TID 0000.0001) %MON dynstat_eta_min              =  -1.4415840784400E+01
(PID.TID 0000.0001) %MON dynstat_eta_mean             =   6.7315601234449E-02
(PID.TID 0000.0001) %MON dynstat_eta_sd               =   8.2342567592225E-01
(PID.TID 0000.0001) %MON dynstat_eta_del2             =   2.3350922336381E-03
(PID.TID 0000.0001) %MON dynstat_uvel_max             =   3.7540794790009E+00
(PID.TID 0000.0001) %MON dynstat_uvel_min             =  -5.3104932061979E+00
(PID.TID 0000.0001) %MON dynstat_uvel_mean            =   1.9829613163437E-03
(PID.TID 0000.0001) %MON dynstat_uvel_sd              =   2.8827748607766E-02
(PID.TID 0000.0001) %MON dynstat_uvel_del2            =   3.0389476483874E-05
(PID.TID 0000.0001) %MON dynstat_vvel_max             =   2.7415690702987E+00
(PID.TID 0000.0001) %MON dynstat_vvel_min             =  -2.9704960362446E+00
(PID.TID 0000.0001) %MON dynstat_vvel_mean            =   1.0012865658905E-03
(PID.TID 0000.0001) %MON dynstat_vvel_sd              =   3.0246541018666E-02
(PID.TID 0000.0001) %MON dynstat_vvel_del2            =   3.0680953398786E-05
(PID.TID 0000.0001) %MON dynstat_wvel_max             =   5.2421935894128E-03
(PID.TID 0000.0001) %MON dynstat_wvel_min             =  -5.2800539096451E-03
(PID.TID 0000.0001) %MON dynstat_wvel_mean            =  -2.3886985437981E-07
(PID.TID 0000.0001) %MON dynstat_wvel_sd              =   7.0653523405771E-05
(PID.TID 0000.0001) %MON dynstat_wvel_del2            =   1.0767732641520E-07
(PID.TID 0000.0001) %MON dynstat_theta_max            =   3.2148284693578E+01
(PID.TID 0000.0001) %MON dynstat_theta_min            =  -1.9771833965991E+00
(PID.TID 0000.0001) %MON dynstat_theta_mean           =   3.5922508166275E+00
(PID.TID 0000.0001) %MON dynstat_theta_sd             =   4.4420522394858E+00
(PID.TID 0000.0001) %MON dynstat_theta_del2           =   1.1533649813810E-04
(PID.TID 0000.0001) %MON dynstat_salt_max             =   4.0655996770359E+01
(PID.TID 0000.0001) %MON dynstat_salt_min             =   1.6412627969677E+01
(PID.TID 0000.0001) %MON dynstat_salt_mean            =   3.4724908267026E+01
(PID.TID 0000.0001) %MON dynstat_salt_sd              =   3.7943219742225E-01
(PID.TID 0000.0001) %MON dynstat_salt_del2            =   9.1292749089017E-05
(PID.TID 0000.0001) %MON dynstat_sst_max              =   3.2148284693578E+01
(PID.TID 0000.0001) %MON dynstat_sst_min              =  -1.9771833965991E+00
(PID.TID 0000.0001) %MON dynstat_sst_mean             =   1.8178017995423E+01
(PID.TID 0000.0001) %MON dynstat_sst_sd               =   1.0118062061142E+01
(PID.TID 0000.0001) %MON dynstat_sst_del2             =   1.0761093950093E-03
(PID.TID 0000.0001) %MON dynstat_sss_max              =   3.9489014896180E+01
(PID.TID 0000.0001) %MON dynstat_sss_min              =   1.6412627969677E+01
(PID.TID 0000.0001) %MON dynstat_sss_mean             =   3.4660640985995E+01
(PID.TID 0000.0001) %MON dynstat_sss_sd               =   1.2719246519879E+00
(PID.TID 0000.0001) %MON dynstat_sss_del2             =   1.5895664827259E-03
(PID.TID 0000.0001) %MON forcing_qnet_max             =   8.7918759765625E+03
(PID.TID 0000.0001) %MON forcing_qnet_min             =  -1.0307426757812E+04
(PID.TID 0000.0001) %MON forcing_qnet_mean            =  -1.0827909711980E+02
(PID.TID 0000.0001) %MON forcing_qnet_sd              =   3.5363642018268E+02
(PID.TID 0000.0001) %MON forcing_qnet_del2            =   2.2350662154523E+00
(PID.TID 0000.0001) %MON forcing_qsw_max              =   0.0000000000000E+00
(PID.TID 0000.0001) %MON forcing_qsw_min              =  -1.4665901980358E+02
(PID.TID 0000.0001) %MON forcing_qsw_mean             =  -2.1396491086357E+01
(PID.TID 0000.0001) %MON forcing_qsw_sd               =   3.0915701076185E+01
(PID.TID 0000.0001) %MON forcing_qsw_del2             =   2.5032527097037E-02
(PID.TID 0000.0001) %MON forcing_empmr_max            =   1.6875135898590E-01
(PID.TID 0000.0001) %MON forcing_empmr_min            =  -6.0653224587440E-02
(PID.TID 0000.0001) %MON forcing_empmr_mean           =   5.6858370408072E-05
(PID.TID 0000.0001) %MON forcing_empmr_sd             =   9.4500941239264E-04
(PID.TID 0000.0001) %MON forcing_empmr_del2           =   1.2337635694614E-05
(PID.TID 0000.0001) %MON forcing_fu_max               =   1.7529908111088E+00
(PID.TID 0000.0001) %MON forcing_fu_min               =  -1.4085242153176E+00
(PID.TID 0000.0001) %MON forcing_fu_mean              =   7.1718036447934E-03
(PID.TID 0000.0001) %MON forcing_fu_sd                =   1.1113446865533E-01
(PID.TID 0000.0001) %MON forcing_fu_del2              =   2.6468720699152E-04
(PID.TID 0000.0001) %MON forcing_fv_max               =   1.9844581171222E+00
(PID.TID 0000.0001) %MON forcing_fv_min               =  -1.6818969553760E+00
(PID.TID 0000.0001) %MON forcing_fv_mean              =  -8.4784630478044E-04
(PID.TID 0000.0001) %MON forcing_fv_sd                =   1.1116642815940E-01
(PID.TID 0000.0001) %MON forcing_fv_del2              =   2.7453640296356E-04
(PID.TID 0000.0001) %MON trAdv_CFL_u_max              =   6.4688502592762E-02
(PID.TID 0000.0001) %MON trAdv_CFL_v_max              =   4.3078425884263E-02
(PID.TID 0000.0001) %MON trAdv_CFL_w_max              =   1.9292033899700E-01
(PID.TID 0000.0001) %MON advcfl_uvel_max              =   6.3693027206091E-02
(PID.TID 0000.0001) %MON advcfl_vvel_max              =   4.3160125306076E-02
(PID.TID 0000.0001) %MON advcfl_wvel_max              =   3.9745559221983E-01
(PID.TID 0000.0001) %MON advcfl_W_hf_max              =   1.9292033899700E-01
(PID.TID 0000.0001) %MON pe_b_mean                    =   2.1149795430715E-03
(PID.TID 0000.0001) %MON ke_max                       =   8.5024684174899E+00
(PID.TID 0000.0001) %MON ke_mean                      =   8.4424154225035E-04
(PID.TID 0000.0001) %MON ke_vol                       =   1.3350064351420E+18
(PID.TID 0000.0001) %MON vort_r_min                   =  -2.6706774678420E-04
(PID.TID 0000.0001) %MON vort_r_max                   =   1.2875731578255E-04
(PID.TID 0000.0001) %MON vort_a_mean                  =  -1.9725088412077E-05
(PID.TID 0000.0001) %MON vort_a_sd                    =   7.4538416937978E-05
(PID.TID 0000.0001) %MON vort_p_mean                  =  -2.1669094508747E-05
(PID.TID 0000.0001) %MON vort_p_sd                    =   9.3612449610223E-05
(PID.TID 0000.0001) %MON surfExpan_theta_mean         =   5.7919789805193E-06
(PID.TID 0000.0001) %MON surfExpan_salt_mean          =  -1.9908888319945E-06
(PID.TID 0000.0001) // =======================================================
(PID.TID 0000.0001) // End MONITOR dynamic field statistics
(PID.TID 0000.0001) // =======================================================
(PID.TID 0000.0001) // =======================================================
(PID.TID 0000.0001) // Begin MONITOR SEAICE statistics
(PID.TID 0000.0001) // =======================================================
(PID.TID 0000.0001) %MON seaice_tsnumber              =                174604
(PID.TID 0000.0001) %MON seaice_time_sec              =   7.8571800000000E+07
(PID.TID 0000.0001) %MON seaice_uice_max              =   4.1715796042470E+00
(PID.TID 0000.0001) %MON seaice_uice_min              =  -4.8109429956039E+00
(PID.TID 0000.0001) %MON seaice_uice_mean             =  -2.0071897224451E-03
(PID.TID 0000.0001) %MON seaice_uice_sd               =   1.9843130885400E-01
(PID.TID 0000.0001) %MON seaice_uice_del2             =   6.7289446532187E-04
(PID.TID 0000.0001) %MON seaice_vice_max              =   3.3762506088183E+00
(PID.TID 0000.0001) %MON seaice_vice_min              =  -3.0300880591858E+00
(PID.TID 0000.0001) %MON seaice_vice_mean             =  -1.7482708539318E-02
(PID.TID 0000.0001) %MON seaice_vice_sd               =   2.0604436835985E-01
(PID.TID 0000.0001) %MON seaice_vice_del2             =   6.9350970994657E-04
(PID.TID 0000.0001) %MON seaice_area_max              =   1.0144810279648E+00
(PID.TID 0000.0001) %MON seaice_area_min              =   0.0000000000000E+00
(PID.TID 0000.0001) %MON seaice_area_mean             =   5.7204895379683E-02
(PID.TID 0000.0001) %MON seaice_area_sd               =   2.2234459236544E-01
(PID.TID 0000.0001) %MON seaice_area_del2             =   3.9173737864768E-04
(PID.TID 0000.0001) %MON seaice_heff_max              =   9.9520343952773E+00
(PID.TID 0000.0001) %MON seaice_heff_min              =   0.0000000000000E+00
(PID.TID 0000.0001) %MON seaice_heff_mean             =   1.5011772403788E-01
(PID.TID 0000.0001) %MON seaice_heff_sd               =   7.2178097816611E-01
(PID.TID 0000.0001) %MON seaice_heff_del2             =   1.7693695491512E-03
(PID.TID 0000.0001) %MON seaice_hsnow_max             =   3.2871570553790E+00
(PID.TID 0000.0001) %MON seaice_hsnow_min             =   0.0000000000000E+00
(PID.TID 0000.0001) %MON seaice_hsnow_mean            =   1.2788163663846E-02
(PID.TID 0000.0001) %MON seaice_hsnow_sd              =   7.0725841285315E-02
(PID.TID 0000.0001) %MON seaice_hsnow_del2            =   5.0615087269407E-04
(PID.TID 0000.0001) // =======================================================
(PID.TID 0000.0001) // End MONITOR SEAICE statistics
(PID.TID 0000.0001) // =======================================================
(PID.TID 0000.0001) // =======================================================
(PID.TID 0000.0001) // Begin MONITOR dynamic field statistics
(PID.TID 0000.0001) // =======================================================
(PID.TID 0000.0001) %MON time_tsnumber                =                174605
(PID.TID 0000.0001) %MON time_secondsf                =   7.8572250000000E+07
(PID.TID 0000.0001) %MON dynstat_eta_max              =   5.6715434538176E+00
(PID.TID 0000.0001) %MON dynstat_eta_min              =  -1.4647375099712E+01
(PID.TID 0000.0001) %MON dynstat_eta_mean             =   6.7228201628617E-02
(PID.TID 0000.0001) %MON dynstat_eta_sd               =   8.2373386196730E-01
(PID.TID 0000.0001) %MON dynstat_eta_del2             =   2.3117963041362E-03
(PID.TID 0000.0001) %MON dynstat_uvel_max             =   3.4892581728879E+00
(PID.TID 0000.0001) %MON dynstat_uvel_min             =  -5.7007001944889E+00
(PID.TID 0000.0001) %MON dynstat_uvel_mean            =   1.9002916453724E-03
(PID.TID 0000.0001) %MON dynstat_uvel_sd              =   2.8771915769003E-02
(PID.TID 0000.0001) %MON dynstat_uvel_del2            =   2.9966402378871E-05
(PID.TID 0000.0001) %MON dynstat_vvel_max             =   2.7169719751950E+00
(PID.TID 0000.0001) %MON dynstat_vvel_min             =  -3.0723387988716E+00
(PID.TID 0000.0001) %MON dynstat_vvel_mean            =   9.7030914967430E-04
(PID.TID 0000.0001) %MON dynstat_vvel_sd              =   3.0235183314816E-02
(PID.TID 0000.0001) %MON dynstat_vvel_del2            =   3.0430969607160E-05
(PID.TID 0000.0001) %MON dynstat_wvel_max             =   4.9184655245585E-03
(PID.TID 0000.0001) %MON dynstat_wvel_min             =  -4.6459612106279E-03
(PID.TID 0000.0001) %MON dynstat_wvel_mean            =  -2.3975994974048E-07
(PID.TID 0000.0001) %MON dynstat_wvel_sd              =   6.8994405414534E-05
(PID.TID 0000.0001) %MON dynstat_wvel_del2            =   1.0424433530934E-07
(PID.TID 0000.0001) %MON dynstat_theta_max            =   3.2153107631623E+01
(PID.TID 0000.0001) %MON dynstat_theta_min            =  -1.9677140053418E+00
(PID.TID 0000.0001) %MON dynstat_theta_mean           =   3.5922532944887E+00
(PID.TID 0000.0001) %MON dynstat_theta_sd             =   4.4420650749794E+00
(PID.TID 0000.0001) %MON dynstat_theta_del2           =   1.1544888618342E-04
(PID.TID 0000.0001) %MON dynstat_salt_max             =   4.0655996770350E+01
(PID.TID 0000.0001) %MON dynstat_salt_min             =   1.6408124478409E+01
(PID.TID 0000.0001) %MON dynstat_salt_mean            =   3.4724907312209E+01
(PID.TID 0000.0001) %MON dynstat_salt_sd              =   3.7943214301832E-01
(PID.TID 0000.0001) %MON dynstat_salt_del2            =   9.0767019207010E-05
(PID.TID 0000.0001) %MON dynstat_sst_max              =   3.2153107631623E+01
(PID.TID 0000.0001) %MON dynstat_sst_min              =  -1.9677140053418E+00
(PID.TID 0000.0001) %MON dynstat_sst_mean             =   1.8178439014270E+01
(PID.TID 0000.0001) %MON dynstat_sst_sd               =   1.0119036793007E+01
(PID.TID 0000.0001) %MON dynstat_sst_del2             =   1.0800583164348E-03
(PID.TID 0000.0001) %MON dynstat_sss_max              =   3.9489044923402E+01
(PID.TID 0000.0001) %MON dynstat_sss_min              =   1.6408124478409E+01
(PID.TID 0000.0001) %MON dynstat_sss_mean             =   3.4660466865935E+01
(PID.TID 0000.0001) %MON dynstat_sss_sd               =   1.2721357260632E+00
(PID.TID 0000.0001) %MON dynstat_sss_del2             =   1.5875575040183E-03
(PID.TID 0000.0001) %MON forcing_qnet_max             =   1.1871313476562E+04
(PID.TID 0000.0001) %MON forcing_qnet_min             =  -1.1757872070312E+04
(PID.TID 0000.0001) %MON forcing_qnet_mean            =  -1.0391355828261E+02
(PID.TID 0000.0001) %MON forcing_qnet_sd              =   3.5104814364808E+02
(PID.TID 0000.0001) %MON forcing_qnet_del2            =   2.2782544733833E+00
(PID.TID 0000.0001) %MON forcing_qsw_max              =   0.0000000000000E+00
(PID.TID 0000.0001) %MON forcing_qsw_min              =  -1.4786965449392E+02
(PID.TID 0000.0001) %MON forcing_qsw_mean             =  -2.0943891741802E+01
(PID.TID 0000.0001) %MON forcing_qsw_sd               =   3.0542947221248E+01
(PID.TID 0000.0001) %MON forcing_qsw_del2             =   2.5301233932043E-02
(PID.TID 0000.0001) %MON forcing_empmr_max            =   4.7404244542122E-02
(PID.TID 0000.0001) %MON forcing_empmr_min            =  -6.1199635267258E-02
(PID.TID 0000.0001) %MON forcing_empmr_mean           =   5.2448785938435E-05
(PID.TID 0000.0001) %MON forcing_empmr_sd             =   6.8022297891655E-04
(PID.TID 0000.0001) %MON forcing_empmr_del2           =   7.5348803451666E-06
(PID.TID 0000.0001) %MON forcing_fu_max               =   1.5156949072578E+00
(PID.TID 0000.0001) %MON forcing_fu_min               =  -1.5736026298793E+00
(PID.TID 0000.0001) %MON forcing_fu_mean              =   7.2548798757691E-03
(PID.TID 0000.0001) %MON forcing_fu_sd                =   1.1107741458023E-01
(PID.TID 0000.0001) %MON forcing_fu_del2              =   2.5275517269160E-04
(PID.TID 0000.0001) %MON forcing_fv_max               =   2.0100233726282E+00
(PID.TID 0000.0001) %MON forcing_fv_min               =  -1.7432628808430E+00
(PID.TID 0000.0001) %MON forcing_fv_mean              =  -8.9027767174395E-04
(PID.TID 0000.0001) %MON forcing_fv_sd                =   1.1100924216356E-01
(PID.TID 0000.0001) %MON forcing_fv_del2              =   2.6157959959303E-04
(PID.TID 0000.0001) %MON trAdv_CFL_u_max              =   6.9441715673671E-02
(PID.TID 0000.0001) %MON trAdv_CFL_v_max              =   5.0847562574049E-02
(PID.TID 0000.0001) %MON trAdv_CFL_w_max              =   2.0046348528364E-01
(PID.TID 0000.0001) %MON advcfl_uvel_max              =   6.8373094265063E-02
(PID.TID 0000.0001) %MON advcfl_vvel_max              =   5.0777071596210E-02
(PID.TID 0000.0001) %MON advcfl_wvel_max              =   3.9838760368637E-01
(PID.TID 0000.0001) %MON advcfl_W_hf_max              =   2.0046348528364E-01
(PID.TID 0000.0001) %MON pe_b_mean                    =   2.1082395003317E-03
(PID.TID 0000.0001) %MON ke_max                       =   9.7965630715773E+00
(PID.TID 0000.0001) %MON ke_mean                      =   8.4217559043098E-04
(PID.TID 0000.0001) %MON ke_vol                       =   1.3350064351420E+18
(PID.TID 0000.0001) %MON vort_r_min                   =  -2.9049955370140E-04
(PID.TID 0000.0001) %MON vort_r_max                   =   1.2302367808704E-04
(PID.TID 0000.0001) %MON vort_a_mean                  =  -1.9725086802335E-05
(PID.TID 0000.0001) %MON vort_a_sd                    =   7.4538398499402E-05
(PID.TID 0000.0001) %MON vort_p_mean                  =  -2.1669092740357E-05
(PID.TID 0000.0001) %MON vort_p_sd                    =   9.3612139119701E-05
(PID.TID 0000.0001) %MON surfExpan_theta_mean         =   5.2522499024697E-06
(PID.TID 0000.0001) %MON surfExpan_salt_mean          =  -1.8105228749481E-06
(PID.TID 0000.0001) // =======================================================
(PID.TID 0000.0001) // End MONITOR dynamic field statistics
(PID.TID 0000.0001) // =======================================================
(PID.TID 0000.0001) // =======================================================
(PID.TID 0000.0001) // Begin MONITOR SEAICE statistics
(PID.TID 0000.0001) // =======================================================
(PID.TID 0000.0001) %MON seaice_tsnumber              =                174605
(PID.TID 0000.0001) %MON seaice_time_sec              =   7.8572250000000E+07
(PID.TID 0000.0001) %MON seaice_uice_max              =   3.9184612201140E+00
(PID.TID 0000.0001) %MON seaice_uice_min              =  -5.3104932061979E+00
(PID.TID 0000.0001) %MON seaice_uice_mean             =  -2.0651127967548E-03
(PID.TID 0000.0001) %MON seaice_uice_sd               =   1.9866653798060E-01
(PID.TID 0000.0001) %MON seaice_uice_del2             =   6.6722229885627E-04
(PID.TID 0000.0001) %MON seaice_vice_max              =   2.7763504163201E+00
(PID.TID 0000.0001) %MON seaice_vice_min              =  -3.0551398352168E+00
(PID.TID 0000.0001) %MON seaice_vice_mean             =  -1.7791693712207E-02
(PID.TID 0000.0001) %MON seaice_vice_sd               =   2.0635778606648E-01
(PID.TID 0000.0001) %MON seaice_vice_del2             =   6.8889190369529E-04
(PID.TID 0000.0001) %MON seaice_area_max              =   1.0113550750130E+00
(PID.TID 0000.0001) %MON seaice_area_min              =   0.0000000000000E+00
(PID.TID 0000.0001) %MON seaice_area_mean             =   5.7204375884729E-02
(PID.TID 0000.0001) %MON seaice_area_sd               =   2.2232975374432E-01
(PID.TID 0000.0001) %MON seaice_area_del2             =   3.9000754862530E-04
(PID.TID 0000.0001) %MON seaice_heff_max              =   9.9519480592866E+00
(PID.TID 0000.0001) %MON seaice_heff_min              =   0.0000000000000E+00
(PID.TID 0000.0001) %MON seaice_heff_mean             =   1.5012467586147E-01
(PID.TID 0000.0001) %MON seaice_heff_sd               =   7.2179192035768E-01
(PID.TID 0000.0001) %MON seaice_heff_del2             =   1.7592548776240E-03
(PID.TID 0000.0001) %MON seaice_hsnow_max             =   3.2871294141983E+00
(PID.TID 0000.0001) %MON seaice_hsnow_min             =   0.0000000000000E+00
(PID.TID 0000.0001) %MON seaice_hsnow_mean            =   1.2787544112749E-02
(PID.TID 0000.0001) %MON seaice_hsnow_sd              =   7.0678235576887E-02
(PID.TID 0000.0001) %MON seaice_hsnow_del2            =   5.0272636052186E-04
(PID.TID 0000.0001) // =======================================================
(PID.TID 0000.0001) // End MONITOR SEAICE statistics
(PID.TID 0000.0001) // =======================================================
(PID.TID 0000.0001) // =======================================================
(PID.TID 0000.0001) // Begin MONITOR dynamic field statistics
(PID.TID 0000.0001) // =======================================================
(PID.TID 0000.0001) %MON time_tsnumber                =                174606
(PID.TID 0000.0001) %MON time_secondsf                =   7.8572700000000E+07
(PID.TID 0000.0001) %MON dynstat_eta_max              =   5.4817451653493E+00
(PID.TID 0000.0001) %MON dynstat_eta_min              =  -1.4736683716190E+01
(PID.TID 0000.0001) %MON dynstat_eta_mean             =   6.7142510656952E-02
(PID.TID 0000.0001) %MON dynstat_eta_sd               =   8.2418773645057E-01
(PID.TID 0000.0001) %MON dynstat_eta_del2             =   2.2898048907575E-03
(PID.TID 0000.0001) %MON dynstat_uvel_max             =   3.1970957947480E+00
(PID.TID 0000.0001) %MON dynstat_uvel_min             =  -5.9402056565403E+00
(PID.TID 0000.0001) %MON dynstat_uvel_mean            =   1.8260968264656E-03
(PID.TID 0000.0001) %MON dynstat_uvel_sd              =   2.8713964913542E-02
(PID.TID 0000.0001) %MON dynstat_uvel_del2            =   2.9533095127133E-05
(PID.TID 0000.0001) %MON dynstat_vvel_max             =   2.7356530995590E+00
(PID.TID 0000.0001) %MON dynstat_vvel_min             =  -3.1550108126304E+00
(PID.TID 0000.0001) %MON dynstat_vvel_mean            =   9.3572782870811E-04
(PID.TID 0000.0001) %MON dynstat_vvel_sd              =   3.0210011658797E-02
(PID.TID 0000.0001) %MON dynstat_vvel_del2            =   3.0158633268440E-05
(PID.TID 0000.0001) %MON dynstat_wvel_max             =   4.6206827086808E-03
(PID.TID 0000.0001) %MON dynstat_wvel_min             =  -4.9004823956586E-03
(PID.TID 0000.0001) %MON dynstat_wvel_mean            =  -2.4159653989940E-07
(PID.TID 0000.0001) %MON dynstat_wvel_sd              =   6.7498434009199E-05
(PID.TID 0000.0001) %MON dynstat_wvel_del2            =   1.0120010513435E-07
(PID.TID 0000.0001) %MON dynstat_theta_max            =   3.2158009329388E+01
(PID.TID 0000.0001) %MON dynstat_theta_min            =  -1.9686482360861E+00
(PID.TID 0000.0001) %MON dynstat_theta_mean           =   3.5922557934919E+00
(PID.TID 0000.0001) %MON dynstat_theta_sd             =   4.4420783131227E+00
(PID.TID 0000.0001) %MON dynstat_theta_del2           =   1.1561145980770E-04
(PID.TID 0000.0001) %MON dynstat_salt_max             =   4.0655996770340E+01
(PID.TID 0000.0001) %MON dynstat_salt_min             =   1.6403573294706E+01
(PID.TID 0000.0001) %MON dynstat_salt_mean            =   3.4724906372130E+01
(PID.TID 0000.0001) %MON dynstat_salt_sd              =   3.7943243425509E-01
(PID.TID 0000.0001) %MON dynstat_salt_del2            =   9.0278441633055E-05
(PID.TID 0000.0001) %MON dynstat_sst_max              =   3.2158009329388E+01
(PID.TID 0000.0001) %MON dynstat_sst_min              =  -1.9686482360861E+00
(PID.TID 0000.0001) %MON dynstat_sst_mean             =   1.8178843563403E+01
(PID.TID 0000.0001) %MON dynstat_sst_sd               =   1.0120005012723E+01
(PID.TID 0000.0001) %MON dynstat_sst_del2             =   1.0842469393991E-03
(PID.TID 0000.0001) %MON dynstat_sss_max              =   3.9489074258525E+01
(PID.TID 0000.0001) %MON dynstat_sss_min              =   1.6403573294706E+01
(PID.TID 0000.0001) %MON dynstat_sss_mean             =   3.4660303360099E+01
(PID.TID 0000.0001) %MON dynstat_sss_sd               =   1.2723344442701E+00
(PID.TID 0000.0001) %MON dynstat_sss_del2             =   1.5856396254589E-03
(PID.TID 0000.0001) %MON forcing_qnet_max             =   4.7299996093750E+04
(PID.TID 0000.0001) %MON forcing_qnet_min             =  -2.4912587890625E+04
(PID.TID 0000.0001) %MON forcing_qnet_mean            =  -1.0229455746405E+02
(PID.TID 0000.0001) %MON forcing_qnet_sd              =   3.9820688963785E+02
(PID.TID 0000.0001) %MON forcing_qnet_del2            =   3.9268040502852E+00
(PID.TID 0000.0001) %MON forcing_qsw_max              =   0.0000000000000E+00
(PID.TID 0000.0001) %MON forcing_qsw_min              =  -1.4777523595179E+02
(PID.TID 0000.0001) %MON forcing_qsw_mean             =  -2.0855591540316E+01
(PID.TID 0000.0001) %MON forcing_qsw_sd               =   3.0442440475516E+01
(PID.TID 0000.0001) %MON forcing_qsw_del2             =   2.5364767304803E-02
(PID.TID 0000.0001) %MON forcing_empmr_max            =   4.6812336891890E-02
(PID.TID 0000.0001) %MON forcing_empmr_min            =  -6.1672106385231E-02
(PID.TID 0000.0001) %MON forcing_empmr_mean           =   5.1175517486406E-05
(PID.TID 0000.0001) %MON forcing_empmr_sd             =   6.7049522728315E-04
(PID.TID 0000.0001) %MON forcing_empmr_del2           =   7.4142618111498E-06
(PID.TID 0000.0001) %MON forcing_fu_max               =   1.3697182747866E+00
(PID.TID 0000.0001) %MON forcing_fu_min               =  -1.8733260190809E+00
(PID.TID 0000.0001) %MON forcing_fu_mean              =   7.3232910698244E-03
(PID.TID 0000.0001) %MON forcing_fu_sd                =   1.1102989776294E-01
(PID.TID 0000.0001) %MON forcing_fu_del2              =   2.4489997303279E-04
(PID.TID 0000.0001) %MON forcing_fv_max               =   2.2840249679466E+00
(PID.TID 0000.0001) %MON forcing_fv_min               =  -1.9875156735971E+00
(PID.TID 0000.0001) %MON forcing_fv_mean              =  -9.4438758269712E-04
(PID.TID 0000.0001) %MON forcing_fv_sd                =   1.1089496037019E-01
(PID.TID 0000.0001) %MON forcing_fv_del2              =   2.5588477120326E-04
(PID.TID 0000.0001) %MON trAdv_CFL_u_max              =   7.2359194164146E-02
(PID.TID 0000.0001) %MON trAdv_CFL_v_max              =   5.9069477786888E-02
(PID.TID 0000.0001) %MON trAdv_CFL_w_max              =   2.0055466146369E-01
(PID.TID 0000.0001) %MON advcfl_uvel_max              =   7.1245676399741E-02
(PID.TID 0000.0001) %MON advcfl_vvel_max              =   5.8987588605995E-02
(PID.TID 0000.0001) %MON advcfl_wvel_max              =   4.0036078959289E-01
(PID.TID 0000.0001) %MON advcfl_W_hf_max              =   2.0055466146369E-01
(PID.TID 0000.0001) %MON pe_b_mean                    =   2.1023215900352E-03
(PID.TID 0000.0001) %MON ke_max                       =   1.1044542985868E+01
(PID.TID 0000.0001) %MON ke_mean                      =   8.3967065913980E-04
(PID.TID 0000.0001) %MON ke_vol                       =   1.3350064351420E+18
(PID.TID 0000.0001) %MON vort_r_min                   =  -3.0689161570091E-04
(PID.TID 0000.0001) %MON vort_r_max                   =   1.1392605571221E-04
(PID.TID 0000.0001) %MON vort_a_mean                  =  -1.9725084754934E-05
(PID.TID 0000.0001) %MON vort_a_sd                    =   7.4538379227987E-05
(PID.TID 0000.0001) %MON vort_p_mean                  =  -2.1669090491174E-05
(PID.TID 0000.0001) %MON vort_p_sd                    =   9.3611878272940E-05
(PID.TID 0000.0001) %MON surfExpan_theta_mean         =   4.6610592055683E-06
(PID.TID 0000.0001) %MON surfExpan_salt_mean          =  -1.6527783802389E-06
(PID.TID 0000.0001) // =======================================================
(PID.TID 0000.0001) // End MONITOR dynamic field statistics
(PID.TID 0000.0001) // =======================================================
(PID.TID 0000.0001) // =======================================================
(PID.TID 0000.0001) // Begin MONITOR SEAICE statistics
(PID.TID 0000.0001) // =======================================================
(PID.TID 0000.0001) %MON seaice_tsnumber              =                174606
(PID.TID 0000.0001) %MON seaice_time_sec              =   7.8572700000000E+07
(PID.TID 0000.0001) %MON seaice_uice_max              =   3.6342050403242E+00
(PID.TID 0000.0001) %MON seaice_uice_min              =  -5.7007001944889E+00
(PID.TID 0000.0001) %MON seaice_uice_mean             =  -2.1009776435722E-03
(PID.TID 0000.0001) %MON seaice_uice_sd               =   1.9865418328467E-01
(PID.TID 0000.0001) %MON seaice_uice_del2             =   6.6148498634651E-04
(PID.TID 0000.0001) %MON seaice_vice_max              =   2.7201350266889E+00
(PID.TID 0000.0001) %MON seaice_vice_min              =  -3.1595198714510E+00
(PID.TID 0000.0001) %MON seaice_vice_mean             =  -1.8094952815320E-02
(PID.TID 0000.0001) %MON seaice_vice_sd               =   2.0645262653173E-01
(PID.TID 0000.0001) %MON seaice_vice_del2             =   6.8413752051523E-04
(PID.TID 0000.0001) %MON seaice_area_max              =   1.0178181146361E+00
(PID.TID 0000.0001) %MON seaice_area_min              =   0.0000000000000E+00
(PID.TID 0000.0001) %MON seaice_area_mean             =   5.7204084571730E-02
(PID.TID 0000.0001) %MON seaice_area_sd               =   2.2231594628880E-01
(PID.TID 0000.0001) %MON seaice_area_del2             =   3.8831400854890E-04
(PID.TID 0000.0001) %MON seaice_heff_max              =   9.9518682251200E+00
(PID.TID 0000.0001) %MON seaice_heff_min              =   0.0000000000000E+00
(PID.TID 0000.0001) %MON seaice_heff_mean             =   1.5013136275460E-01
(PID.TID 0000.0001) %MON seaice_heff_sd               =   7.2180323068956E-01
(PID.TID 0000.0001) %MON seaice_heff_del2             =   1.7496530719261E-03
(PID.TID 0000.0001) %MON seaice_hsnow_max             =   3.2871029092363E+00
(PID.TID 0000.0001) %MON seaice_hsnow_min             =   0.0000000000000E+00
(PID.TID 0000.0001) %MON seaice_hsnow_mean            =   1.2786927977933E-02
(PID.TID 0000.0001) %MON seaice_hsnow_sd              =   7.0633625072918E-02
(PID.TID 0000.0001) %MON seaice_hsnow_del2            =   4.9953706498745E-04
(PID.TID 0000.0001) // =======================================================
(PID.TID 0000.0001) // End MONITOR SEAICE statistics
(PID.TID 0000.0001) // =======================================================
(PID.TID 0000.0001) // =======================================================
(PID.TID 0000.0001) // Begin MONITOR dynamic field statistics
(PID.TID 0000.0001) // =======================================================
(PID.TID 0000.0001) %MON time_tsnumber                =                174607
(PID.TID 0000.0001) %MON time_secondsf                =   7.8573150000000E+07
(PID.TID 0000.0001) %MON dynstat_eta_max              =   5.2371163309598E+00
(PID.TID 0000.0001) %MON dynstat_eta_min              =  -1.4707306886497E+01
(PID.TID 0000.0001) %MON dynstat_eta_mean             =   6.7057684881096E-02
(PID.TID 0000.0001) %MON dynstat_eta_sd               =   8.2467209230846E-01
(PID.TID 0000.0001) %MON dynstat_eta_del2             =   2.2698082131003E-03
(PID.TID 0000.0001) %MON dynstat_uvel_max             =   2.8876929309593E+00
(PID.TID 0000.0001) %MON dynstat_uvel_min             =  -5.9937455196413E+00
(PID.TID 0000.0001) %MON dynstat_uvel_mean            =   1.7609453128296E-03
(PID.TID 0000.0001) %MON dynstat_uvel_sd              =   2.8661325561688E-02
(PID.TID 0000.0001) %MON dynstat_uvel_del2            =   2.9092170170601E-05
(PID.TID 0000.0001) %MON dynstat_vvel_max             =   2.8046969541480E+00
(PID.TID 0000.0001) %MON dynstat_vvel_min             =  -3.2175890979164E+00
(PID.TID 0000.0001) %MON dynstat_vvel_mean            =   8.9700929994930E-04
(PID.TID 0000.0001) %MON dynstat_vvel_sd              =   3.0173472845347E-02
(PID.TID 0000.0001) %MON dynstat_vvel_del2            =   2.9843195986288E-05
(PID.TID 0000.0001) %MON dynstat_wvel_max             =   4.3285199289292E-03
(PID.TID 0000.0001) %MON dynstat_wvel_min             =  -5.0097194802083E-03
(PID.TID 0000.0001) %MON dynstat_wvel_mean            =  -2.4449942605863E-07
(PID.TID 0000.0001) %MON dynstat_wvel_sd              =   6.6262289804277E-05
(PID.TID 0000.0001) %MON dynstat_wvel_del2            =   9.8740202139310E-08
(PID.TID 0000.0001) %MON dynstat_theta_max            =   3.2163005689621E+01
(PID.TID 0000.0001) %MON dynstat_theta_min            =  -1.9695889321113E+00
(PID.TID 0000.0001) %MON dynstat_theta_mean           =   3.5922582640267E+00
(PID.TID 0000.0001) %MON dynstat_theta_sd             =   4.4420914958266E+00
(PID.TID 0000.0001) %MON dynstat_theta_del2           =   1.1575707964513E-04
(PID.TID 0000.0001) %MON dynstat_salt_max             =   4.0655996770331E+01
(PID.TID 0000.0001) %MON dynstat_salt_min             =   1.6399008367692E+01
(PID.TID 0000.0001) %MON dynstat_salt_mean            =   3.4724905419447E+01
(PID.TID 0000.0001) %MON dynstat_salt_sd              =   3.7943280325646E-01
(PID.TID 0000.0001) %MON dynstat_salt_del2            =   8.9794804855822E-05
(PID.TID 0000.0001) %MON dynstat_sst_max              =   3.2163005689621E+01
(PID.TID 0000.0001) %MON dynstat_sst_min              =  -1.9695889321113E+00
(PID.TID 0000.0001) %MON dynstat_sst_mean             =   1.8179216532501E+01
(PID.TID 0000.0001) %MON dynstat_sst_sd               =   1.0120952295195E+01
(PID.TID 0000.0001) %MON dynstat_sst_del2             =   1.0899176299293E-03
(PID.TID 0000.0001) %MON dynstat_sss_max              =   3.9489103047803E+01
(PID.TID 0000.0001) %MON dynstat_sss_min              =   1.6399008367692E+01
(PID.TID 0000.0001) %MON dynstat_sss_mean             =   3.4660143147528E+01
(PID.TID 0000.0001) %MON dynstat_sss_sd               =   1.2725347001891E+00
(PID.TID 0000.0001) %MON dynstat_sss_del2             =   1.5832928300679E-03
(PID.TID 0000.0001) %MON forcing_qnet_max             =   4.4369938589671E+04
(PID.TID 0000.0001) %MON forcing_qnet_min             =  -2.7701535156250E+04
(PID.TID 0000.0001) %MON forcing_qnet_mean            =  -9.8841824772165E+01
(PID.TID 0000.0001) %MON forcing_qnet_sd              =   3.8045454689580E+02
(PID.TID 0000.0001) %MON forcing_qnet_del2            =   2.6141029582259E+00
(PID.TID 0000.0001) %MON forcing_qsw_max              =   0.0000000000000E+00
(PID.TID 0000.0001) %MON forcing_qsw_min              =  -1.4752037213407E+02
(PID.TID 0000.0001) %MON forcing_qsw_mean             =  -2.0754976085106E+01
(PID.TID 0000.0001) %MON forcing_qsw_sd               =   3.0332814155451E+01
(PID.TID 0000.0001) %MON forcing_qsw_del2             =   2.5414264688562E-02
(PID.TID 0000.0001) %MON forcing_empmr_max            =   4.5810278505087E-02
(PID.TID 0000.0001) %MON forcing_empmr_min            =  -5.9363752603531E-02
(PID.TID 0000.0001) %MON forcing_empmr_mean           =   4.9896338405175E-05
(PID.TID 0000.0001) %MON forcing_empmr_sd             =   6.6703613109046E-04
(PID.TID 0000.0001) %MON forcing_empmr_del2           =   7.3628579539779E-06
(PID.TID 0000.0001) %MON forcing_fu_max               =   1.4241491269209E+00
(PID.TID 0000.0001) %MON forcing_fu_min               =  -2.1760168765406E+00
(PID.TID 0000.0001) %MON forcing_fu_mean              =   7.3905674398162E-03
(PID.TID 0000.0001) %MON forcing_fu_sd                =   1.1105653845306E-01
(PID.TID 0000.0001) %MON forcing_fu_del2              =   2.4271349830159E-04
(PID.TID 0000.0001) %MON forcing_fv_max               =   2.5700798701752E+00
(PID.TID 0000.0001) %MON forcing_fv_min               =  -2.1296729716519E+00
(PID.TID 0000.0001) %MON forcing_fv_mean              =  -1.0026445095569E-03
(PID.TID 0000.0001) %MON forcing_fv_sd                =   1.1083305513087E-01
(PID.TID 0000.0001) %MON forcing_fv_del2              =   2.5456411016057E-04
(PID.TID 0000.0001) %MON trAdv_CFL_u_max              =   7.3011377198479E-02
(PID.TID 0000.0001) %MON trAdv_CFL_v_max              =   6.5729811493546E-02
(PID.TID 0000.0001) %MON trAdv_CFL_w_max              =   1.9263248113051E-01
(PID.TID 0000.0001) %MON advcfl_uvel_max              =   7.1887823150464E-02
(PID.TID 0000.0001) %MON advcfl_vvel_max              =   6.5638688960807E-02
(PID.TID 0000.0001) %MON advcfl_wvel_max              =   4.1302021045254E-01
(PID.TID 0000.0001) %MON advcfl_W_hf_max              =   1.9263248113051E-01
(PID.TID 0000.0001) %MON pe_b_mean                    =   2.0969248015185E-03
(PID.TID 0000.0001) %MON ke_max                       =   1.1703505640511E+01
(PID.TID 0000.0001) %MON ke_mean                      =   8.3700365880790E-04
(PID.TID 0000.0001) %MON ke_vol                       =   1.3350064351420E+18
(PID.TID 0000.0001) %MON vort_r_min                   =  -3.1418000560009E-04
(PID.TID 0000.0001) %MON vort_r_max                   =   1.0247342651523E-04
(PID.TID 0000.0001) %MON vort_a_mean                  =  -1.9725082374873E-05
(PID.TID 0000.0001) %MON vort_a_sd                    =   7.4538359788243E-05
(PID.TID 0000.0001) %MON vort_p_mean                  =  -2.1669087876547E-05
(PID.TID 0000.0001) %MON vort_p_sd                    =   9.3611662385560E-05
(PID.TID 0000.0001) %MON surfExpan_theta_mean         =   4.0261639480792E-06
(PID.TID 0000.0001) %MON surfExpan_salt_mean          =  -1.5205001849916E-06
(PID.TID 0000.0001) // =======================================================
(PID.TID 0000.0001) // End MONITOR dynamic field statistics
(PID.TID 0000.0001) // =======================================================
(PID.TID 0000.0001) // =======================================================
(PID.TID 0000.0001) // Begin MONITOR SEAICE statistics
(PID.TID 0000.0001) // =======================================================
(PID.TID 0000.0001) %MON seaice_tsnumber              =                174607
(PID.TID 0000.0001) %MON seaice_time_sec              =   7.8573150000000E+07
(PID.TID 0000.0001) %MON seaice_uice_max              =   3.3245671918355E+00
(PID.TID 0000.0001) %MON seaice_uice_min              =  -5.9402056565403E+00
(PID.TID 0000.0001) %MON seaice_uice_mean             =  -2.1157271892638E-03
(PID.TID 0000.0001) %MON seaice_uice_sd               =   1.9837116653374E-01
(PID.TID 0000.0001) %MON seaice_uice_del2             =   6.5463925324199E-04
(PID.TID 0000.0001) %MON seaice_vice_max              =   2.7356530995590E+00
(PID.TID 0000.0001) %MON seaice_vice_min              =  -3.2420786628246E+00
(PID.TID 0000.0001) %MON seaice_vice_mean             =  -1.8399723898394E-02
(PID.TID 0000.0001) %MON seaice_vice_sd               =   2.0629034376501E-01
(PID.TID 0000.0001) %MON seaice_vice_del2             =   6.7823228643299E-04
(PID.TID 0000.0001) %MON seaice_area_max              =   1.0176809496270E+00
(PID.TID 0000.0001) %MON seaice_area_min              =   0.0000000000000E+00
(PID.TID 0000.0001) %MON seaice_area_mean             =   5.7203985021540E-02
(PID.TID 0000.0001) %MON seaice_area_sd               =   2.2230305774854E-01
(PID.TID 0000.0001) %MON seaice_area_del2             =   3.8666665822636E-04
(PID.TID 0000.0001) %MON seaice_heff_max              =   9.9518009423281E+00
(PID.TID 0000.0001) %MON seaice_heff_min              =   0.0000000000000E+00
(PID.TID 0000.0001) %MON seaice_heff_mean             =   1.5013775768592E-01
(PID.TID 0000.0001) %MON seaice_heff_sd               =   7.2181428717995E-01
(PID.TID 0000.0001) %MON seaice_heff_del2             =   1.7405078397781E-03
(PID.TID 0000.0001) %MON seaice_hsnow_max             =   3.2870814236010E+00
(PID.TID 0000.0001) %MON seaice_hsnow_min             =   0.0000000000000E+00
(PID.TID 0000.0001) %MON seaice_hsnow_mean            =   1.2786318319082E-02
(PID.TID 0000.0001) %MON seaice_hsnow_sd              =   7.0591413737872E-02
(PID.TID 0000.0001) %MON seaice_hsnow_del2            =   4.9655486055750E-04
(PID.TID 0000.0001) // =======================================================
(PID.TID 0000.0001) // End MONITOR SEAICE statistics
(PID.TID 0000.0001) // =======================================================
(PID.TID 0000.0001) // =======================================================
(PID.TID 0000.0001) // Begin MONITOR dynamic field statistics
(PID.TID 0000.0001) // =======================================================
(PID.TID 0000.0001) %MON time_tsnumber                =                174608
(PID.TID 0000.0001) %MON time_secondsf                =   7.8573600000000E+07
(PID.TID 0000.0001) %MON dynstat_eta_max              =   5.5693423296404E+00
(PID.TID 0000.0001) %MON dynstat_eta_min              =  -1.4587596451739E+01
(PID.TID 0000.0001) %MON dynstat_eta_mean             =   6.6973339627417E-02
(PID.TID 0000.0001) %MON dynstat_eta_sd               =   8.2508551832737E-01
(PID.TID 0000.0001) %MON dynstat_eta_del2             =   2.2524750018938E-03
(PID.TID 0000.0001) %MON dynstat_uvel_max             =   2.8330626209850E+00
(PID.TID 0000.0001) %MON dynstat_uvel_min             =  -5.8418305173968E+00
(PID.TID 0000.0001) %MON dynstat_uvel_mean            =   1.7051112369985E-03
(PID.TID 0000.0001) %MON dynstat_uvel_sd              =   2.8620342084006E-02
(PID.TID 0000.0001) %MON dynstat_uvel_del2            =   2.8649059955156E-05
(PID.TID 0000.0001) %MON dynstat_vvel_max             =   2.8549308482713E+00
(PID.TID 0000.0001) %MON dynstat_vvel_min             =  -3.4237170643054E+00
(PID.TID 0000.0001) %MON dynstat_vvel_mean            =   8.5381527480648E-04
(PID.TID 0000.0001) %MON dynstat_vvel_sd              =   3.0128480191863E-02
(PID.TID 0000.0001) %MON dynstat_vvel_del2            =   2.9481172502301E-05
(PID.TID 0000.0001) %MON dynstat_wvel_max             =   4.0190268885926E-03
(PID.TID 0000.0001) %MON dynstat_wvel_min             =  -4.9897093933061E-03
(PID.TID 0000.0001) %MON dynstat_wvel_mean            =  -2.4773946896816E-07
(PID.TID 0000.0001) %MON dynstat_wvel_sd              =   6.5330051171474E-05
(PID.TID 0000.0001) %MON dynstat_wvel_del2            =   9.6940337256189E-08
(PID.TID 0000.0001) %MON dynstat_theta_max            =   3.2168094412903E+01
(PID.TID 0000.0001) %MON dynstat_theta_min            =  -1.9705548188441E+00
(PID.TID 0000.0001) %MON dynstat_theta_mean           =   3.5922606939732E+00
(PID.TID 0000.0001) %MON dynstat_theta_sd             =   4.4421048745599E+00
(PID.TID 0000.0001) %MON dynstat_theta_del2           =   1.1593233255237E-04
(PID.TID 0000.0001) %MON dynstat_salt_max             =   4.0655996770321E+01
(PID.TID 0000.0001) %MON dynstat_salt_min             =   1.6394439708049E+01
(PID.TID 0000.0001) %MON dynstat_salt_mean            =   3.4724904444725E+01
(PID.TID 0000.0001) %MON dynstat_salt_sd              =   3.7943350592512E-01
(PID.TID 0000.0001) %MON dynstat_salt_del2            =   8.9335186755100E-05
(PID.TID 0000.0001) %MON dynstat_sst_max              =   3.2168094412903E+01
(PID.TID 0000.0001) %MON dynstat_sst_min              =  -1.9705548188441E+00
(PID.TID 0000.0001) %MON dynstat_sst_mean             =   1.8179568363810E+01
(PID.TID 0000.0001) %MON dynstat_sst_sd               =   1.0121882420191E+01
(PID.TID 0000.0001) %MON dynstat_sst_del2             =   1.0947989524889E-03
(PID.TID 0000.0001) %MON dynstat_sss_max              =   3.9489131320064E+01
(PID.TID 0000.0001) %MON dynstat_sss_min              =   1.6394439708049E+01
(PID.TID 0000.0001) %MON dynstat_sss_mean             =   3.4659984990496E+01
(PID.TID 0000.0001) %MON dynstat_sss_sd               =   1.2727276997729E+00
(PID.TID 0000.0001) %MON dynstat_sss_del2             =   1.5808960301269E-03
(PID.TID 0000.0001) %MON forcing_qnet_max             =   5.3837250000000E+04
(PID.TID 0000.0001) %MON forcing_qnet_min             =  -1.4355819335938E+04
(PID.TID 0000.0001) %MON forcing_qnet_mean            =  -9.5005774289021E+01
(PID.TID 0000.0001) %MON forcing_qnet_sd              =   3.5700632610053E+02
(PID.TID 0000.0001) %MON forcing_qnet_del2            =   3.6067905998581E+00
(PID.TID 0000.0001) %MON forcing_qsw_max              =   0.0000000000000E+00
(PID.TID 0000.0001) %MON forcing_qsw_min              =  -1.4710619192241E+02
(PID.TID 0000.0001) %MON forcing_qsw_mean             =  -2.0642772909007E+01
(PID.TID 0000.0001) %MON forcing_qsw_sd               =   3.0214146210998E+01
(PID.TID 0000.0001) %MON forcing_qsw_del2             =   2.5449533155477E-02
(PID.TID 0000.0001) %MON forcing_empmr_max            =   4.3934464454651E-02
(PID.TID 0000.0001) %MON forcing_empmr_min            =  -6.2316376715899E-02
(PID.TID 0000.0001) %MON forcing_empmr_mean           =   4.8928864888661E-05
(PID.TID 0000.0001) %MON forcing_empmr_sd             =   6.7029799470644E-04
(PID.TID 0000.0001) %MON forcing_empmr_del2           =   7.3669089392921E-06
(PID.TID 0000.0001) %MON forcing_fu_max               =   1.7859406444306E+00
(PID.TID 0000.0001) %MON forcing_fu_min               =  -2.2777283712984E+00
(PID.TID 0000.0001) %MON forcing_fu_mean              =   7.4606646862703E-03
(PID.TID 0000.0001) %MON forcing_fu_sd                =   1.1113142758388E-01
(PID.TID 0000.0001) %MON forcing_fu_del2              =   2.4386215343130E-04
(PID.TID 0000.0001) %MON forcing_fv_max               =   2.7355092646827E+00
(PID.TID 0000.0001) %MON forcing_fv_min               =  -2.1866161367399E+00
(PID.TID 0000.0001) %MON forcing_fv_mean              =  -1.0607755755047E-03
(PID.TID 0000.0001) %MON forcing_fv_sd                =   1.1079269735994E-01
(PID.TID 0000.0001) %MON forcing_fv_del2              =   2.5474575029791E-04
(PID.TID 0000.0001) %MON trAdv_CFL_u_max              =   7.1160860940384E-02
(PID.TID 0000.0001) %MON trAdv_CFL_v_max              =   7.0074937574941E-02
(PID.TID 0000.0001) %MON trAdv_CFL_w_max              =   1.7693023057061E-01
(PID.TID 0000.0001) %MON advcfl_uvel_max              =   7.0065784029941E-02
(PID.TID 0000.0001) %MON advcfl_vvel_max              =   6.9977791308304E-02
(PID.TID 0000.0001) %MON advcfl_wvel_max              =   4.1103059879519E-01
(PID.TID 0000.0001) %MON advcfl_W_hf_max              =   1.7693023057061E-01
(PID.TID 0000.0001) %MON pe_b_mean                    =   2.0917720855519E-03
(PID.TID 0000.0001) %MON ke_max                       =   1.1599618719579E+01
(PID.TID 0000.0001) %MON ke_mean                      =   8.3443363632426E-04
(PID.TID 0000.0001) %MON ke_vol                       =   1.3350064351420E+18
(PID.TID 0000.0001) %MON vort_r_min                   =  -3.1101842036310E-04
(PID.TID 0000.0001) %MON vort_r_max                   =   9.3057004446270E-05
(PID.TID 0000.0001) %MON vort_a_mean                  =  -1.9725079779653E-05
(PID.TID 0000.0001) %MON vort_a_sd                    =   7.4538340977956E-05
(PID.TID 0000.0001) %MON vort_p_mean                  =  -2.1669085025555E-05
(PID.TID 0000.0001) %MON vort_p_sd                    =   9.3611489272317E-05
(PID.TID 0000.0001) %MON surfExpan_theta_mean         =   3.3997713962759E-06
(PID.TID 0000.0001) %MON surfExpan_salt_mean          =  -1.3687158904069E-06
(PID.TID 0000.0001) // =======================================================
(PID.TID 0000.0001) // End MONITOR dynamic field statistics
(PID.TID 0000.0001) // =======================================================
(PID.TID 0000.0001) // =======================================================
(PID.TID 0000.0001) // Begin MONITOR SEAICE statistics
(PID.TID 0000.0001) // =======================================================
(PID.TID 0000.0001) %MON seaice_tsnumber              =                174608
(PID.TID 0000.0001) %MON seaice_time_sec              =   7.8573600000000E+07
(PID.TID 0000.0001) %MON seaice_uice_max              =   2.9972260991330E+00
(PID.TID 0000.0001) %MON seaice_uice_min              =  -5.9937455196413E+00
(PID.TID 0000.0001) %MON seaice_uice_mean             =  -2.1135641925765E-03
(PID.TID 0000.0001) %MON seaice_uice_sd               =   1.9789760540797E-01
(PID.TID 0000.0001) %MON seaice_uice_del2             =   6.4666468437839E-04
(PID.TID 0000.0001) %MON seaice_vice_max              =   2.8046969541480E+00
(PID.TID 0000.0001) %MON seaice_vice_min              =  -3.3036056217563E+00
(PID.TID 0000.0001) %MON seaice_vice_mean             =  -1.8699753059300E-02
(PID.TID 0000.0001) %MON seaice_vice_sd               =   2.0587744534146E-01
(PID.TID 0000.0001) %MON seaice_vice_del2             =   6.7123760885671E-04
(PID.TID 0000.0001) %MON seaice_area_max              =   1.0147170447189E+00
(PID.TID 0000.0001) %MON seaice_area_min              =   0.0000000000000E+00
(PID.TID 0000.0001) %MON seaice_area_mean             =   5.7204072659807E-02
(PID.TID 0000.0001) %MON seaice_area_sd               =   2.2229113314347E-01
(PID.TID 0000.0001) %MON seaice_area_del2             =   3.8508123324461E-04
(PID.TID 0000.0001) %MON seaice_heff_max              =   9.9517501839878E+00
(PID.TID 0000.0001) %MON seaice_heff_min              =   0.0000000000000E+00
(PID.TID 0000.0001) %MON seaice_heff_mean             =   1.5014375204053E-01
(PID.TID 0000.0001) %MON seaice_heff_sd               =   7.2182512651744E-01
(PID.TID 0000.0001) %MON seaice_heff_del2             =   1.7319336708710E-03
(PID.TID 0000.0001) %MON seaice_hsnow_max             =   3.2870653601763E+00
(PID.TID 0000.0001) %MON seaice_hsnow_min             =   0.0000000000000E+00
(PID.TID 0000.0001) %MON seaice_hsnow_mean            =   1.2785699824857E-02
(PID.TID 0000.0001) %MON seaice_hsnow_sd              =   7.0551719932278E-02
(PID.TID 0000.0001) %MON seaice_hsnow_del2            =   4.9381393553797E-04
(PID.TID 0000.0001) // =======================================================
(PID.TID 0000.0001) // End MONITOR SEAICE statistics
(PID.TID 0000.0001) // =======================================================
(PID.TID 0000.0001) // =======================================================
(PID.TID 0000.0001) // Begin MONITOR dynamic field statistics
(PID.TID 0000.0001) // =======================================================
(PID.TID 0000.0001) %MON time_tsnumber                =                174609
(PID.TID 0000.0001) %MON time_secondsf                =   7.8574050000000E+07
(PID.TID 0000.0001) %MON dynstat_eta_max              =   5.6841801507869E+00
(PID.TID 0000.0001) %MON dynstat_eta_min              =  -1.4408117761257E+01
(PID.TID 0000.0001) %MON dynstat_eta_mean             =   6.6889574169744E-02
(PID.TID 0000.0001) %MON dynstat_eta_sd               =   8.2534639696848E-01
(PID.TID 0000.0001) %MON dynstat_eta_del2             =   2.2382417577367E-03
(PID.TID 0000.0001) %MON dynstat_uvel_max             =   2.7886740695514E+00
(PID.TID 0000.0001) %MON dynstat_uvel_min             =  -5.4884916459131E+00
(PID.TID 0000.0001) %MON dynstat_uvel_mean            =   1.6585948813784E-03
(PID.TID 0000.0001) %MON dynstat_uvel_sd              =   2.8595476309043E-02
(PID.TID 0000.0001) %MON dynstat_uvel_del2            =   2.8199226909960E-05
(PID.TID 0000.0001) %MON dynstat_vvel_max             =   2.8869341862128E+00
(PID.TID 0000.0001) %MON dynstat_vvel_min             =  -3.4962317893869E+00
(PID.TID 0000.0001) %MON dynstat_vvel_mean            =   8.0599903531698E-04
(PID.TID 0000.0001) %MON dynstat_vvel_sd              =   3.0078002661399E-02
(PID.TID 0000.0001) %MON dynstat_vvel_del2            =   2.9076637878651E-05
(PID.TID 0000.0001) %MON dynstat_wvel_max             =   3.6942917403012E-03
(PID.TID 0000.0001) %MON dynstat_wvel_min             =  -4.8680393515222E-03
(PID.TID 0000.0001) %MON dynstat_wvel_mean            =  -2.5081712915077E-07
(PID.TID 0000.0001) %MON dynstat_wvel_sd              =   6.4698768630781E-05
(PID.TID 0000.0001) %MON dynstat_wvel_del2            =   9.5792336631487E-08
(PID.TID 0000.0001) %MON dynstat_theta_max            =   3.2173302908995E+01
(PID.TID 0000.0001) %MON dynstat_theta_min            =  -1.9715534623008E+00
(PID.TID 0000.0001) %MON dynstat_theta_mean           =   3.5922631080324E+00
(PID.TID 0000.0001) %MON dynstat_theta_sd             =   4.4421183442087E+00
(PID.TID 0000.0001) %MON dynstat_theta_del2           =   1.1606340117820E-04
(PID.TID 0000.0001) %MON dynstat_salt_max             =   4.0655996770311E+01
(PID.TID 0000.0001) %MON dynstat_salt_min             =   1.6389955251311E+01
(PID.TID 0000.0001) %MON dynstat_salt_mean            =   3.4724903455295E+01
(PID.TID 0000.0001) %MON dynstat_salt_sd              =   3.7943445554177E-01
(PID.TID 0000.0001) %MON dynstat_salt_del2            =   8.8925105517924E-05
(PID.TID 0000.0001) %MON dynstat_sst_max              =   3.2173302908995E+01
(PID.TID 0000.0001) %MON dynstat_sst_min              =  -1.9715534623008E+00
(PID.TID 0000.0001) %MON dynstat_sst_mean             =   1.8179903282864E+01
(PID.TID 0000.0001) %MON dynstat_sst_sd               =   1.0122788113488E+01
(PID.TID 0000.0001) %MON dynstat_sst_del2             =   1.0979812326695E-03
(PID.TID 0000.0001) %MON dynstat_sss_max              =   3.9489159067681E+01
(PID.TID 0000.0001) %MON dynstat_sss_min              =   1.6389955251311E+01
(PID.TID 0000.0001) %MON dynstat_sss_mean             =   3.4659836277646E+01
(PID.TID 0000.0001) %MON dynstat_sss_sd               =   1.2729062401578E+00
(PID.TID 0000.0001) %MON dynstat_sss_del2             =   1.5786676416117E-03
(PID.TID 0000.0001) %MON forcing_qnet_max             =   1.0777071327311E+04
(PID.TID 0000.0001) %MON forcing_qnet_min             =  -2.2088224609375E+04
(PID.TID 0000.0001) %MON forcing_qnet_mean            =  -9.2216042851178E+01
(PID.TID 0000.0001) %MON forcing_qnet_sd              =   3.3670890612075E+02
(PID.TID 0000.0001) %MON forcing_qnet_del2            =   2.3304096489634E+00
(PID.TID 0000.0001) %MON forcing_qsw_max              =   0.0000000000000E+00
(PID.TID 0000.0001) %MON forcing_qsw_min              =  -1.4653408380683E+02
(PID.TID 0000.0001) %MON forcing_qsw_mean             =  -2.0518959681666E+01
(PID.TID 0000.0001) %MON forcing_qsw_sd               =   3.0087011213416E+01
(PID.TID 0000.0001) %MON forcing_qsw_del2             =   2.5470481591901E-02
(PID.TID 0000.0001) %MON forcing_empmr_max            =   3.9878744632006E-02
(PID.TID 0000.0001) %MON forcing_empmr_min            =  -6.0932178050280E-02
(PID.TID 0000.0001) %MON forcing_empmr_mean           =   4.7887484169597E-05
(PID.TID 0000.0001) %MON forcing_empmr_sd             =   6.6993890458914E-04
(PID.TID 0000.0001) %MON forcing_empmr_del2           =   7.2864038904596E-06
(PID.TID 0000.0001) %MON forcing_fu_max               =   2.0820224156152E+00
(PID.TID 0000.0001) %MON forcing_fu_min               =  -2.2448801907386E+00
(PID.TID 0000.0001) %MON forcing_fu_mean              =   7.5449162322582E-03
(PID.TID 0000.0001) %MON forcing_fu_sd                =   1.1120154979830E-01
(PID.TID 0000.0001) %MON forcing_fu_del2              =   2.4543042946759E-04
(PID.TID 0000.0001) %MON forcing_fv_max               =   2.8038092807992E+00
(PID.TID 0000.0001) %MON forcing_fv_min               =  -2.1832699996413E+00
(PID.TID 0000.0001) %MON forcing_fv_mean              =  -1.1268990923847E-03
(PID.TID 0000.0001) %MON forcing_fv_sd                =   1.1073917726158E-01
(PID.TID 0000.0001) %MON forcing_fv_del2              =   2.5467685973185E-04
(PID.TID 0000.0001) %MON trAdv_CFL_u_max              =   6.6856748004617E-02
(PID.TID 0000.0001) %MON trAdv_CFL_v_max              =   7.1559132891875E-02
(PID.TID 0000.0001) %MON trAdv_CFL_w_max              =   1.5449795500897E-01
(PID.TID 0000.0001) %MON advcfl_uvel_max              =   6.5827906024915E-02
(PID.TID 0000.0001) %MON advcfl_vvel_max              =   7.1459929056028E-02
(PID.TID 0000.0001) %MON advcfl_wvel_max              =   3.9337558485249E-01
(PID.TID 0000.0001) %MON advcfl_W_hf_max              =   1.5449795500897E-01
(PID.TID 0000.0001) %MON pe_b_mean                    =   2.0866333397291E-03
(PID.TID 0000.0001) %MON ke_max                       =   1.0708738887912E+01
(PID.TID 0000.0001) %MON ke_mean                      =   8.3216839597351E-04
(PID.TID 0000.0001) %MON ke_vol                       =   1.3350064351420E+18
(PID.TID 0000.0001) %MON vort_r_min                   =  -2.9725838101881E-04
(PID.TID 0000.0001) %MON vort_r_max                   =   9.6027743148944E-05
(PID.TID 0000.0001) %MON vort_a_mean                  =  -1.9725077088523E-05
(PID.TID 0000.0001) %MON vort_a_sd                    =   7.4538323507868E-05
(PID.TID 0000.0001) %MON vort_p_mean                  =  -2.1669082069200E-05
(PID.TID 0000.0001) %MON vort_p_sd                    =   9.3611355115410E-05
(PID.TID 0000.0001) %MON surfExpan_theta_mean         =   2.8320558618681E-06
(PID.TID 0000.0001) %MON surfExpan_salt_mean          =  -1.1731058518904E-06
(PID.TID 0000.0001) // =======================================================
(PID.TID 0000.0001) // End MONITOR dynamic field statistics
(PID.TID 0000.0001) // =======================================================
(PID.TID 0000.0001) // =======================================================
(PID.TID 0000.0001) // Begin MONITOR SEAICE statistics
(PID.TID 0000.0001) // =======================================================
(PID.TID 0000.0001) %MON seaice_tsnumber              =                174609
(PID.TID 0000.0001) %MON seaice_time_sec              =   7.8574050000000E+07
(PID.TID 0000.0001) %MON seaice_uice_max              =   2.8330626209850E+00
(PID.TID 0000.0001) %MON seaice_uice_min              =  -5.8418305173968E+00
(PID.TID 0000.0001) %MON seaice_uice_mean             =  -2.0943144704851E-03
(PID.TID 0000.0001) %MON seaice_uice_sd               =   1.9726247574964E-01
(PID.TID 0000.0001) %MON seaice_uice_del2             =   6.3685162570542E-04
(PID.TID 0000.0001) %MON seaice_vice_max              =   2.8549308482713E+00
(PID.TID 0000.0001) %MON seaice_vice_min              =  -3.4237170643054E+00
(PID.TID 0000.0001) %MON seaice_vice_mean             =  -1.9005033851734E-02
(PID.TID 0000.0001) %MON seaice_vice_sd               =   2.0524425439384E-01
(PID.TID 0000.0001) %MON seaice_vice_del2             =   6.6253549102033E-04
(PID.TID 0000.0001) %MON seaice_area_max              =   1.0116035237962E+00
(PID.TID 0000.0001) %MON seaice_area_min              =   0.0000000000000E+00
(PID.TID 0000.0001) %MON seaice_area_mean             =   5.7204322362606E-02
(PID.TID 0000.0001) %MON seaice_area_sd               =   2.2228012095210E-01
(PID.TID 0000.0001) %MON seaice_area_del2             =   3.8355942103332E-04
(PID.TID 0000.0001) %MON seaice_heff_max              =   9.9516825212508E+00
(PID.TID 0000.0001) %MON seaice_heff_min              =   0.0000000000000E+00
(PID.TID 0000.0001) %MON seaice_heff_mean             =   1.5014931783045E-01
(PID.TID 0000.0001) %MON seaice_heff_sd               =   7.2183572886219E-01
(PID.TID 0000.0001) %MON seaice_heff_del2             =   1.7239877293275E-03
(PID.TID 0000.0001) %MON seaice_hsnow_max             =   3.2870427909772E+00
(PID.TID 0000.0001) %MON seaice_hsnow_min             =   0.0000000000000E+00
(PID.TID 0000.0001) %MON seaice_hsnow_mean            =   1.2785045363404E-02
(PID.TID 0000.0001) %MON seaice_hsnow_sd              =   7.0514286188441E-02
(PID.TID 0000.0001) %MON seaice_hsnow_del2            =   4.9132495710813E-04
(PID.TID 0000.0001) // =======================================================
(PID.TID 0000.0001) // End MONITOR SEAICE statistics
(PID.TID 0000.0001) // =======================================================
(PID.TID 0000.0001) // =======================================================
(PID.TID 0000.0001) // Begin MONITOR dynamic field statistics
(PID.TID 0000.0001) // =======================================================
(PID.TID 0000.0001) %MON time_tsnumber                =                174610
(PID.TID 0000.0001) %MON time_secondsf                =   7.8574500000000E+07
(PID.TID 0000.0001) %MON dynstat_eta_max              =   5.5167384057116E+00
(PID.TID 0000.0001) %MON dynstat_eta_min              =  -1.4197668110794E+01
(PID.TID 0000.0001) %MON dynstat_eta_mean             =   6.6806304995239E-02
(PID.TID 0000.0001) %MON dynstat_eta_sd               =   8.2539551307597E-01
(PID.TID 0000.0001) %MON dynstat_eta_del2             =   2.2271807508856E-03
(PID.TID 0000.0001) %MON dynstat_uvel_max             =   2.7643506184186E+00
(PID.TID 0000.0001) %MON dynstat_uvel_min             =  -4.9631385920356E+00
(PID.TID 0000.0001) %MON dynstat_uvel_mean            =   1.6211418333418E-03
(PID.TID 0000.0001) %MON dynstat_uvel_sd              =   2.8589156233868E-02
(PID.TID 0000.0001) %MON dynstat_uvel_del2            =   2.7749167634174E-05
(PID.TID 0000.0001) %MON dynstat_vvel_max             =   2.9014172514377E+00
(PID.TID 0000.0001) %MON dynstat_vvel_min             =  -3.4134981867009E+00
(PID.TID 0000.0001) %MON dynstat_vvel_mean            =   7.5360944113986E-04
(PID.TID 0000.0001) %MON dynstat_vvel_sd              =   3.0024750831568E-02
(PID.TID 0000.0001) %MON dynstat_vvel_del2            =   2.8633382102025E-05
(PID.TID 0000.0001) %MON dynstat_wvel_max             =   3.2966342510625E-03
(PID.TID 0000.0001) %MON dynstat_wvel_min             =  -4.6875173527415E-03
(PID.TID 0000.0001) %MON dynstat_wvel_mean            =  -2.5379427147432E-07
(PID.TID 0000.0001) %MON dynstat_wvel_sd              =   6.4334164692276E-05
(PID.TID 0000.0001) %MON dynstat_wvel_del2            =   9.5238877498854E-08
(PID.TID 0000.0001) %MON dynstat_theta_max            =   3.2178634513339E+01
(PID.TID 0000.0001) %MON dynstat_theta_min            =  -1.9725900979050E+00
(PID.TID 0000.0001) %MON dynstat_theta_mean           =   3.5922654820264E+00
(PID.TID 0000.0001) %MON dynstat_theta_sd             =   4.4421315531152E+00
(PID.TID 0000.0001) %MON dynstat_theta_del2           =   1.1614097994146E-04
(PID.TID 0000.0001) %MON dynstat_salt_max             =   4.0655996768980E+01
(PID.TID 0000.0001) %MON dynstat_salt_min             =   1.6385608268565E+01
(PID.TID 0000.0001) %MON dynstat_salt_mean            =   3.4724902443185E+01
(PID.TID 0000.0001) %MON dynstat_salt_sd              =   3.7943543572578E-01
(PID.TID 0000.0001) %MON dynstat_salt_del2            =   8.8526827893524E-05
(PID.TID 0000.0001) %MON dynstat_sst_max              =   3.2178634513339E+01
(PID.TID 0000.0001) %MON dynstat_sst_min              =  -1.9725900979050E+00
(PID.TID 0000.0001) %MON dynstat_sst_mean             =   1.8180198591326E+01
(PID.TID 0000.0001) %MON dynstat_sst_sd               =   1.0123654921579E+01
(PID.TID 0000.0001) %MON dynstat_sst_del2             =   1.1001956373124E-03
(PID.TID 0000.0001) %MON dynstat_sss_max              =   3.9489186379531E+01
(PID.TID 0000.0001) %MON dynstat_sss_min              =   1.6385608268565E+01
(PID.TID 0000.0001) %MON dynstat_sss_mean             =   3.4659693710525E+01
(PID.TID 0000.0001) %MON dynstat_sss_sd               =   1.2730789173585E+00
(PID.TID 0000.0001) %MON dynstat_sss_del2             =   1.5763915196151E-03
(PID.TID 0000.0001) %MON forcing_qnet_max             =   5.1530719809903E+04
(PID.TID 0000.0001) %MON forcing_qnet_min             =  -6.6531215820312E+03
(PID.TID 0000.0001) %MON forcing_qnet_mean            =  -8.8827676181920E+01
(PID.TID 0000.0001) %MON forcing_qnet_sd              =   3.4692737248854E+02
(PID.TID 0000.0001) %MON forcing_qnet_del2            =   3.2403905677421E+00
(PID.TID 0000.0001) %MON forcing_qsw_max              =   0.0000000000000E+00
(PID.TID 0000.0001) %MON forcing_qsw_min              =  -1.4580720743170E+02
(PID.TID 0000.0001) %MON forcing_qsw_mean             =  -2.0383313526788E+01
(PID.TID 0000.0001) %MON forcing_qsw_sd               =   2.9952083713729E+01
(PID.TID 0000.0001) %MON forcing_qsw_del2             =   2.5476953599497E-02
(PID.TID 0000.0001) %MON forcing_empmr_max            =   3.4024566411972E-02
(PID.TID 0000.0001) %MON forcing_empmr_min            =  -6.2813214957714E-02
(PID.TID 0000.0001) %MON forcing_empmr_mean           =   4.7167642466662E-05
(PID.TID 0000.0001) %MON forcing_empmr_sd             =   6.7512768957151E-04
(PID.TID 0000.0001) %MON forcing_empmr_del2           =   7.1967824033401E-06
(PID.TID 0000.0001) %MON forcing_fu_max               =   2.2922190728877E+00
(PID.TID 0000.0001) %MON forcing_fu_min               =  -2.1481546436094E+00
(PID.TID 0000.0001) %MON forcing_fu_mean              =   7.6310916096055E-03
(PID.TID 0000.0001) %MON forcing_fu_sd                =   1.1125278304922E-01
(PID.TID 0000.0001) %MON forcing_fu_del2              =   2.4634879396895E-04
(PID.TID 0000.0001) %MON forcing_fv_max               =   2.8029321561022E+00
(PID.TID 0000.0001) %MON forcing_fv_min               =  -2.1427768058654E+00
(PID.TID 0000.0001) %MON forcing_fv_mean              =  -1.1969745942916E-03
(PID.TID 0000.0001) %MON forcing_fv_sd                =   1.1068642359771E-01
(PID.TID 0000.0001) %MON forcing_fv_del2              =   2.5461396776110E-04
(PID.TID 0000.0001) %MON trAdv_CFL_u_max              =   6.0457285455977E-02
(PID.TID 0000.0001) %MON trAdv_CFL_v_max              =   6.9865782672017E-02
(PID.TID 0000.0001) %MON trAdv_CFL_w_max              =   1.2707368163862E-01
(PID.TID 0000.0001) %MON advcfl_uvel_max              =   5.9526923224604E-02
(PID.TID 0000.0001) %MON advcfl_vvel_max              =   6.9768926360944E-02
(PID.TID 0000.0001) %MON advcfl_wvel_max              =   3.6011556255610E-01
(PID.TID 0000.0001) %MON advcfl_W_hf_max              =   1.2707368163862E-01
(PID.TID 0000.0001) %MON pe_b_mean                    =   2.0813186760258E-03
(PID.TID 0000.0001) %MON ke_max                       =   9.1714705251942E+00
(PID.TID 0000.0001) %MON ke_mean                      =   8.3035202467439E-04
(PID.TID 0000.0001) %MON ke_vol                       =   1.3350064351420E+18
(PID.TID 0000.0001) %MON vort_r_min                   =  -2.7414658389031E-04
(PID.TID 0000.0001) %MON vort_r_max                   =   9.4072796945623E-05
(PID.TID 0000.0001) %MON vort_a_mean                  =  -1.9725074414947E-05
(PID.TID 0000.0001) %MON vort_a_sd                    =   7.4538308119689E-05
(PID.TID 0000.0001) %MON vort_p_mean                  =  -2.1669079132130E-05
(PID.TID 0000.0001) %MON vort_p_sd                    =   9.3611253354522E-05
(PID.TID 0000.0001) %MON surfExpan_theta_mean         =   2.3323755590897E-06
(PID.TID 0000.0001) %MON surfExpan_salt_mean          =  -9.4102068676060E-07
(PID.TID 0000.0001) // =======================================================
(PID.TID 0000.0001) // End MONITOR dynamic field statistics
(PID.TID 0000.0001) // =======================================================
(PID.TID 0000.0001) // =======================================================
(PID.TID 0000.0001) // Begin MONITOR SEAICE statistics
(PID.TID 0000.0001) // =======================================================
(PID.TID 0000.0001) %MON seaice_tsnumber              =                174610
(PID.TID 0000.0001) %MON seaice_time_sec              =   7.8574500000000E+07
(PID.TID 0000.0001) %MON seaice_uice_max              =   2.7886740695514E+00
(PID.TID 0000.0001) %MON seaice_uice_min              =  -5.4884916459131E+00
(PID.TID 0000.0001) %MON seaice_uice_mean             =  -2.0588070862570E-03
(PID.TID 0000.0001) %MON seaice_uice_sd               =   1.9645295923032E-01
(PID.TID 0000.0001) %MON seaice_uice_del2             =   6.2511358523030E-04
(PID.TID 0000.0001) %MON seaice_vice_max              =   2.8869341862128E+00
(PID.TID 0000.0001) %MON seaice_vice_min              =  -3.4962317893869E+00
(PID.TID 0000.0001) %MON seaice_vice_mean             =  -1.9307345234927E-02
(PID.TID 0000.0001) %MON seaice_vice_sd               =   2.0439731647360E-01
(PID.TID 0000.0001) %MON seaice_vice_del2             =   6.5171814607080E-04
(PID.TID 0000.0001) %MON seaice_area_max              =   1.0082848573333E+00
(PID.TID 0000.0001) %MON seaice_area_min              =   0.0000000000000E+00
(PID.TID 0000.0001) %MON seaice_area_mean             =   5.7204776715647E-02
(PID.TID 0000.0001) %MON seaice_area_sd               =   2.2227011532688E-01
(PID.TID 0000.0001) %MON seaice_area_del2             =   3.8209513402004E-04
(PID.TID 0000.0001) %MON seaice_heff_max              =   9.9516226723136E+00
(PID.TID 0000.0001) %MON seaice_heff_min              =   0.0000000000000E+00
(PID.TID 0000.0001) %MON seaice_heff_mean             =   1.5015448261955E-01
(PID.TID 0000.0001) %MON seaice_heff_sd               =   7.2184599866642E-01
(PID.TID 0000.0001) %MON seaice_heff_del2             =   1.7167085620251E-03
(PID.TID 0000.0001) %MON seaice_hsnow_max             =   3.2870238659248E+00
(PID.TID 0000.0001) %MON seaice_hsnow_min             =   0.0000000000000E+00
(PID.TID 0000.0001) %MON seaice_hsnow_mean            =   1.2784346953433E-02
(PID.TID 0000.0001) %MON seaice_hsnow_sd              =   7.0478924066244E-02
(PID.TID 0000.0001) %MON seaice_hsnow_del2            =   4.8909481665196E-04
(PID.TID 0000.0001) // =======================================================
(PID.TID 0000.0001) // End MONITOR SEAICE statistics
(PID.TID 0000.0001) // =======================================================
(PID.TID 0000.0001) // =======================================================
(PID.TID 0000.0001) // Begin MONITOR dynamic field statistics
(PID.TID 0000.0001) // =======================================================
(PID.TID 0000.0001) %MON time_tsnumber                =                174611
(PID.TID 0000.0001) %MON time_secondsf                =   7.8574950000000E+07
(PID.TID 0000.0001) %MON dynstat_eta_max              =   5.7892612535314E+00
(PID.TID 0000.0001) %MON dynstat_eta_min              =  -1.3979462946624E+01
(PID.TID 0000.0001) %MON dynstat_eta_mean             =   6.6723478041268E-02
(PID.TID 0000.0001) %MON dynstat_eta_sd               =   8.2519747534151E-01
(PID.TID 0000.0001) %MON dynstat_eta_del2             =   2.2189760091975E-03
(PID.TID 0000.0001) %MON dynstat_uvel_max             =   2.8273517917204E+00
(PID.TID 0000.0001) %MON dynstat_uvel_min             =  -4.3069644545483E+00
(PID.TID 0000.0001) %MON dynstat_uvel_mean            =   1.5922238998775E-03
(PID.TID 0000.0001) %MON dynstat_uvel_sd              =   2.8603358756379E-02
(PID.TID 0000.0001) %MON dynstat_uvel_del2            =   2.7307522008780E-05
(PID.TID 0000.0001) %MON dynstat_vvel_max             =   2.8991869951281E+00
(PID.TID 0000.0001) %MON dynstat_vvel_min             =  -3.2414145855607E+00
(PID.TID 0000.0001) %MON dynstat_vvel_mean            =   6.9686005660787E-04
(PID.TID 0000.0001) %MON dynstat_vvel_sd              =   2.9973880453465E-02
(PID.TID 0000.0001) %MON dynstat_vvel_del2            =   2.8180389341717E-05
(PID.TID 0000.0001) %MON dynstat_wvel_max             =   3.1636193184818E-03
(PID.TID 0000.0001) %MON dynstat_wvel_min             =  -4.4900567659462E-03
(PID.TID 0000.0001) %MON dynstat_wvel_mean            =  -2.5675585727404E-07
(PID.TID 0000.0001) %MON dynstat_wvel_sd              =   6.4186255892969E-05
(PID.TID 0000.0001) %MON dynstat_wvel_del2            =   9.5214354553953E-08
(PID.TID 0000.0001) %MON dynstat_theta_max            =   3.2184107352648E+01
(PID.TID 0000.0001) %MON dynstat_theta_min            =  -1.9736699659013E+00
(PID.TID 0000.0001) %MON dynstat_theta_mean           =   3.5922678155333E+00
(PID.TID 0000.0001) %MON dynstat_theta_sd             =   4.4421449102575E+00
(PID.TID 0000.0001) %MON dynstat_theta_del2           =   1.1622865053814E-04
(PID.TID 0000.0001) %MON dynstat_salt_max             =   4.0655996760207E+01
(PID.TID 0000.0001) %MON dynstat_salt_min             =   1.6381411531424E+01
(PID.TID 0000.0001) %MON dynstat_salt_mean            =   3.4724901403483E+01
(PID.TID 0000.0001) %MON dynstat_salt_sd              =   3.7943682761387E-01
(PID.TID 0000.0001) %MON dynstat_salt_del2            =   8.8165536723978E-05
(PID.TID 0000.0001) %MON dynstat_sst_max              =   3.2184107352648E+01
(PID.TID 0000.0001) %MON dynstat_sst_min              =  -1.9736699659013E+00
(PID.TID 0000.0001) %MON dynstat_sst_mean             =   1.8180467984232E+01
(PID.TID 0000.0001) %MON dynstat_sst_sd               =   1.0124501726504E+01
(PID.TID 0000.0001) %MON dynstat_sst_del2             =   1.1016721575741E-03
(PID.TID 0000.0001) %MON dynstat_sss_max              =   3.9489193452834E+01
(PID.TID 0000.0001) %MON dynstat_sss_min              =   1.6381411531424E+01
(PID.TID 0000.0001) %MON dynstat_sss_mean             =   3.4659554681721E+01
(PID.TID 0000.0001) %MON dynstat_sss_sd               =   1.2732531681733E+00
(PID.TID 0000.0001) %MON dynstat_sss_del2             =   1.5740433784836E-03
(PID.TID 0000.0001) %MON forcing_qnet_max             =   2.9680382812500E+04
(PID.TID 0000.0001) %MON forcing_qnet_min             =  -4.9045424804688E+03
(PID.TID 0000.0001) %MON forcing_qnet_mean            =  -8.5727633482629E+01
(PID.TID 0000.0001) %MON forcing_qnet_sd              =   3.2860057353308E+02
(PID.TID 0000.0001) %MON forcing_qnet_del2            =   2.6539947269938E+00
(PID.TID 0000.0001) %MON forcing_qsw_max              =   0.0000000000000E+00
(PID.TID 0000.0001) %MON forcing_qsw_min              =  -1.4492632663188E+02
(PID.TID 0000.0001) %MON forcing_qsw_mean             =  -2.0235873724795E+01
(PID.TID 0000.0001) %MON forcing_qsw_sd               =   2.9809818327464E+01
(PID.TID 0000.0001) %MON forcing_qsw_del2             =   2.5468703391580E-02
(PID.TID 0000.0001) %MON forcing_empmr_max            =   3.7434928119183E-02
(PID.TID 0000.0001) %MON forcing_empmr_min            =  -6.2226697802544E-02
(PID.TID 0000.0001) %MON forcing_empmr_mean           =   4.6700504339352E-05
(PID.TID 0000.0001) %MON forcing_empmr_sd             =   6.8625242165767E-04
(PID.TID 0000.0001) %MON forcing_empmr_del2           =   7.1110868766733E-06
(PID.TID 0000.0001) %MON forcing_fu_max               =   2.4148516308299E+00
(PID.TID 0000.0001) %MON forcing_fu_min               =  -2.0300291263319E+00
(PID.TID 0000.0001) %MON forcing_fu_mean              =   7.7060729645682E-03
(PID.TID 0000.0001) %MON forcing_fu_sd                =   1.1123594888914E-01
(PID.TID 0000.0001) %MON forcing_fu_del2              =   2.4569212541267E-04
(PID.TID 0000.0001) %MON forcing_fv_max               =   2.7520195781163E+00
(PID.TID 0000.0001) %MON forcing_fv_min               =  -2.0813802955431E+00
(PID.TID 0000.0001) %MON forcing_fv_mean              =  -1.2761492734684E-03
(PID.TID 0000.0001) %MON forcing_fv_sd                =   1.1058121573780E-01
(PID.TID 0000.0001) %MON forcing_fv_del2              =   2.5398799369032E-04
(PID.TID 0000.0001) %MON trAdv_CFL_u_max              =   5.2464257172915E-02
(PID.TID 0000.0001) %MON trAdv_CFL_v_max              =   6.5002762239317E-02
(PID.TID 0000.0001) %MON trAdv_CFL_w_max              =   1.1394365277106E-01
(PID.TID 0000.0001) %MON advcfl_uvel_max              =   5.1656897679306E-02
(PID.TID 0000.0001) %MON advcfl_vvel_max              =   6.4912647629285E-02
(PID.TID 0000.0001) %MON advcfl_wvel_max              =   3.1249756446209E-01
(PID.TID 0000.0001) %MON advcfl_W_hf_max              =   1.1394365277106E-01
(PID.TID 0000.0001) %MON pe_b_mean                    =   2.0756955493611E-03
(PID.TID 0000.0001) %MON ke_max                       =   7.2350536236039E+00
(PID.TID 0000.0001) %MON ke_mean                      =   8.2918721782808E-04
(PID.TID 0000.0001) %MON ke_vol                       =   1.3350064351420E+18
(PID.TID 0000.0001) %MON vort_r_min                   =  -2.4368581637547E-04
(PID.TID 0000.0001) %MON vort_r_max                   =   8.6594103327894E-05
(PID.TID 0000.0001) %MON vort_a_mean                  =  -1.9725071862574E-05
(PID.TID 0000.0001) %MON vort_a_sd                    =   7.4538295609388E-05
(PID.TID 0000.0001) %MON vort_p_mean                  =  -2.1669076328208E-05
(PID.TID 0000.0001) %MON vort_p_sd                    =   9.3611188008504E-05
(PID.TID 0000.0001) %MON surfExpan_theta_mean         =   1.9177442629277E-06
(PID.TID 0000.0001) %MON surfExpan_salt_mean          =  -6.7634327156214E-07
(PID.TID 0000.0001) // =======================================================
(PID.TID 0000.0001) // End MONITOR dynamic field statistics
(PID.TID 0000.0001) // =======================================================
(PID.TID 0000.0001) // =======================================================
(PID.TID 0000.0001) // Begin MONITOR SEAICE statistics
(PID.TID 0000.0001) // =======================================================
(PID.TID 0000.0001) %MON seaice_tsnumber              =                174611
(PID.TID 0000.0001) %MON seaice_time_sec              =   7.8574950000000E+07
(PID.TID 0000.0001) %MON seaice_uice_max              =   2.7643506184186E+00
(PID.TID 0000.0001) %MON seaice_uice_min              =  -4.9631385920356E+00
(PID.TID 0000.0001) %MON seaice_uice_mean             =  -2.0271439357569E-03
(PID.TID 0000.0001) %MON seaice_uice_sd               =   1.9543228866322E-01
(PID.TID 0000.0001) %MON seaice_uice_del2             =   6.1132337026302E-04
(PID.TID 0000.0001) %MON seaice_vice_max              =   2.9014172514377E+00
(PID.TID 0000.0001) %MON seaice_vice_min              =  -3.4134981867009E+00
(PID.TID 0000.0001) %MON seaice_vice_mean             =  -1.9601526511599E-02
(PID.TID 0000.0001) %MON seaice_vice_sd               =   2.0330036225731E-01
(PID.TID 0000.0001) %MON seaice_vice_del2             =   6.3845459265329E-04
(PID.TID 0000.0001) %MON seaice_area_max              =   1.0063511647997E+00
(PID.TID 0000.0001) %MON seaice_area_min              =   0.0000000000000E+00
(PID.TID 0000.0001) %MON seaice_area_mean             =   5.7205332800411E-02
(PID.TID 0000.0001) %MON seaice_area_sd               =   2.2226059674090E-01
(PID.TID 0000.0001) %MON seaice_area_del2             =   3.8068095832912E-04
(PID.TID 0000.0001) %MON seaice_heff_max              =   9.9515605684238E+00
(PID.TID 0000.0001) %MON seaice_heff_min              =   0.0000000000000E+00
(PID.TID 0000.0001) %MON seaice_heff_mean             =   1.5015927545590E-01
(PID.TID 0000.0001) %MON seaice_heff_sd               =   7.2185591284512E-01
(PID.TID 0000.0001) %MON seaice_heff_del2             =   1.7100701848312E-03
(PID.TID 0000.0001) %MON seaice_hsnow_max             =   3.2870038329416E+00
(PID.TID 0000.0001) %MON seaice_hsnow_min             =   0.0000000000000E+00
(PID.TID 0000.0001) %MON seaice_hsnow_mean            =   1.2783637991922E-02
(PID.TID 0000.0001) %MON seaice_hsnow_sd              =   7.0445470299247E-02
(PID.TID 0000.0001) %MON seaice_hsnow_del2            =   4.8710314576934E-04
(PID.TID 0000.0001) // =======================================================
(PID.TID 0000.0001) // End MONITOR SEAICE statistics
(PID.TID 0000.0001) // =======================================================
(PID.TID 0000.0001) // =======================================================
(PID.TID 0000.0001) // Begin MONITOR dynamic field statistics
(PID.TID 0000.0001) // =======================================================
(PID.TID 0000.0001) %MON time_tsnumber                =                174612
(PID.TID 0000.0001) %MON time_secondsf                =   7.8575400000000E+07
(PID.TID 0000.0001) %MON dynstat_eta_max              =   5.9145218287539E+00
(PID.TID 0000.0001) %MON dynstat_eta_min              =  -1.3768472539934E+01
(PID.TID 0000.0001) %MON dynstat_eta_mean             =   6.6640057219554E-02
(PID.TID 0000.0001) %MON dynstat_eta_sd               =   8.2474044534609E-01
(PID.TID 0000.0001) %MON dynstat_eta_del2             =   2.2130279529455E-03
(PID.TID 0000.0001) %MON dynstat_uvel_max             =   2.8733485392877E+00
(PID.TID 0000.0001) %MON dynstat_uvel_min             =  -3.5651788147357E+00
(PID.TID 0000.0001) %MON dynstat_uvel_mean            =   1.5710897557119E-03
(PID.TID 0000.0001) %MON dynstat_uvel_sd              =   2.8637546414102E-02
(PID.TID 0000.0001) %MON dynstat_uvel_del2            =   2.6892794772014E-05
(PID.TID 0000.0001) %MON dynstat_vvel_max             =   2.8811047904500E+00
(PID.TID 0000.0001) %MON dynstat_vvel_min             =  -3.2032136836373E+00
(PID.TID 0000.0001) %MON dynstat_vvel_mean            =   6.3609906924472E-04
(PID.TID 0000.0001) %MON dynstat_vvel_sd              =   2.9927099781476E-02
(PID.TID 0000.0001) %MON dynstat_vvel_del2            =   2.7727125165693E-05
(PID.TID 0000.0001) %MON dynstat_wvel_max             =   3.0819379448878E-03
(PID.TID 0000.0001) %MON dynstat_wvel_min             =  -4.2973323685941E-03
(PID.TID 0000.0001) %MON dynstat_wvel_mean            =  -2.6016482573655E-07
(PID.TID 0000.0001) %MON dynstat_wvel_sd              =   6.4204678578326E-05
(PID.TID 0000.0001) %MON dynstat_wvel_del2            =   9.5661464611480E-08
(PID.TID 0000.0001) %MON dynstat_theta_max            =   3.2189714405709E+01
(PID.TID 0000.0001) %MON dynstat_theta_min            =  -1.9747969324317E+00
(PID.TID 0000.0001) %MON dynstat_theta_mean           =   3.5922701218518E+00
(PID.TID 0000.0001) %MON dynstat_theta_sd             =   4.4421583842973E+00
(PID.TID 0000.0001) %MON dynstat_theta_del2           =   1.1629892788164E-04
(PID.TID 0000.0001) %MON dynstat_salt_max             =   4.0655996744297E+01
(PID.TID 0000.0001) %MON dynstat_salt_min             =   1.6377376231310E+01
(PID.TID 0000.0001) %MON dynstat_salt_mean            =   3.4724900342738E+01
(PID.TID 0000.0001) %MON dynstat_salt_sd              =   3.7943829369765E-01
(PID.TID 0000.0001) %MON dynstat_salt_del2            =   8.7841752770699E-05
(PID.TID 0000.0001) %MON dynstat_sst_max              =   3.2189714405709E+01
(PID.TID 0000.0001) %MON dynstat_sst_min              =  -1.9747969324317E+00
(PID.TID 0000.0001) %MON dynstat_sst_mean             =   1.8180733795008E+01
(PID.TID 0000.0001) %MON dynstat_sst_sd               =   1.0125321614181E+01
(PID.TID 0000.0001) %MON dynstat_sst_del2             =   1.1025144853986E-03
(PID.TID 0000.0001) %MON dynstat_sss_max              =   3.9489106458336E+01
(PID.TID 0000.0001) %MON dynstat_sss_min              =   1.6377376231310E+01
(PID.TID 0000.0001) %MON dynstat_sss_mean             =   3.4659420754307E+01
(PID.TID 0000.0001) %MON dynstat_sss_sd               =   1.2734131725978E+00
(PID.TID 0000.0001) %MON dynstat_sss_del2             =   1.5716314561924E-03
(PID.TID 0000.0001) %MON forcing_qnet_max             =   3.2741132812500E+04
(PID.TID 0000.0001) %MON forcing_qnet_min             =  -3.4268214843750E+04
(PID.TID 0000.0001) %MON forcing_qnet_mean            =  -8.3283572151749E+01
(PID.TID 0000.0001) %MON forcing_qnet_sd              =   3.7782245637054E+02
(PID.TID 0000.0001) %MON forcing_qnet_del2            =   3.3518740343303E+00
(PID.TID 0000.0001) %MON forcing_qsw_max              =   0.0000000000000E+00
(PID.TID 0000.0001) %MON forcing_qsw_min              =  -1.4389411345742E+02
(PID.TID 0000.0001) %MON forcing_qsw_mean             =  -2.0076592528639E+01
(PID.TID 0000.0001) %MON forcing_qsw_sd               =   2.9660732631602E+01
(PID.TID 0000.0001) %MON forcing_qsw_del2             =   2.5445709708955E-02
(PID.TID 0000.0001) %MON forcing_empmr_max            =   9.9577642977238E-02
(PID.TID 0000.0001) %MON forcing_empmr_min            =  -6.1834346503019E-02
(PID.TID 0000.0001) %MON forcing_empmr_mean           =   4.7708845819322E-05
(PID.TID 0000.0001) %MON forcing_empmr_sd             =   8.5280842004526E-04
(PID.TID 0000.0001) %MON forcing_empmr_del2           =   8.0090491051110E-06
(PID.TID 0000.0001) %MON forcing_fu_max               =   2.4597235799622E+00
(PID.TID 0000.0001) %MON forcing_fu_min               =  -1.9029135210623E+00
(PID.TID 0000.0001) %MON forcing_fu_mean              =   7.7772238519775E-03
(PID.TID 0000.0001) %MON forcing_fu_sd                =   1.1117802538119E-01
(PID.TID 0000.0001) %MON forcing_fu_del2              =   2.4283788563025E-04
(PID.TID 0000.0001) %MON forcing_fv_max               =   2.6645204953996E+00
(PID.TID 0000.0001) %MON forcing_fv_min               =  -2.0074977876008E+00
(PID.TID 0000.0001) %MON forcing_fv_mean              =  -1.3598605555671E-03
(PID.TID 0000.0001) %MON forcing_fv_sd                =   1.1042769641738E-01
(PID.TID 0000.0001) %MON forcing_fv_del2              =   2.5083796095512E-04
(PID.TID 0000.0001) %MON trAdv_CFL_u_max              =   4.3428372854621E-02
(PID.TID 0000.0001) %MON trAdv_CFL_v_max              =   5.7433514369672E-02
(PID.TID 0000.0001) %MON trAdv_CFL_w_max              =   1.0938550706596E-01
(PID.TID 0000.0001) %MON advcfl_uvel_max              =   4.2760064352689E-02
(PID.TID 0000.0001) %MON advcfl_vvel_max              =   5.7155617910732E-02
(PID.TID 0000.0001) %MON advcfl_wvel_max              =   2.5266567831684E-01
(PID.TID 0000.0001) %MON advcfl_W_hf_max              =   1.0938550706596E-01
(PID.TID 0000.0001) %MON pe_b_mean                    =   2.0696673423008E-03
(PID.TID 0000.0001) %MON ke_max                       =   5.1849415188627E+00
(PID.TID 0000.0001) %MON ke_mean                      =   8.2870800803715E-04
(PID.TID 0000.0001) %MON ke_vol                       =   1.3350064351420E+18
(PID.TID 0000.0001) %MON vort_r_min                   =  -2.0810821298843E-04
(PID.TID 0000.0001) %MON vort_r_max                   =   7.6147770686658E-05
(PID.TID 0000.0001) %MON vort_a_mean                  =  -1.9725069517084E-05
(PID.TID 0000.0001) %MON vort_a_sd                    =   7.4538286235918E-05
(PID.TID 0000.0001) %MON vort_p_mean                  =  -2.1669073751559E-05
(PID.TID 0000.0001) %MON vort_p_sd                    =   9.3611147454884E-05
(PID.TID 0000.0001) %MON surfExpan_theta_mean         =   1.5703375989470E-06
(PID.TID 0000.0001) %MON surfExpan_salt_mean          =  -4.2362030250273E-07
(PID.TID 0000.0001) // =======================================================
(PID.TID 0000.0001) // End MONITOR dynamic field statistics
(PID.TID 0000.0001) // =======================================================
(PID.TID 0000.0001) // =======================================================
(PID.TID 0000.0001) // Begin MONITOR SEAICE statistics
(PID.TID 0000.0001) // =======================================================
(PID.TID 0000.0001) %MON seaice_tsnumber              =                174612
(PID.TID 0000.0001) %MON seaice_time_sec              =   7.8575400000000E+07
(PID.TID 0000.0001) %MON seaice_uice_max              =   2.8273517917204E+00
(PID.TID 0000.0001) %MON seaice_uice_min              =  -4.3069644545483E+00
(PID.TID 0000.0001) %MON seaice_uice_mean             =  -1.9786952539896E-03
(PID.TID 0000.0001) %MON seaice_uice_sd               =   1.9437416021658E-01
(PID.TID 0000.0001) %MON seaice_uice_del2             =   5.9677973515820E-04
(PID.TID 0000.0001) %MON seaice_vice_max              =   2.8991869951281E+00
(PID.TID 0000.0001) %MON seaice_vice_min              =  -3.3323800544841E+00
(PID.TID 0000.0001) %MON seaice_vice_mean             =  -1.9905027923022E-02
(PID.TID 0000.0001) %MON seaice_vice_sd               =   2.0219619056243E-01
(PID.TID 0000.0001) %MON seaice_vice_del2             =   6.2419833694217E-04
(PID.TID 0000.0001) %MON seaice_area_max              =   1.0055531449266E+00
(PID.TID 0000.0001) %MON seaice_area_min              =   0.0000000000000E+00
(PID.TID 0000.0001) %MON seaice_area_mean             =   5.7205965052844E-02
(PID.TID 0000.0001) %MON seaice_area_sd               =   2.2225138155953E-01
(PID.TID 0000.0001) %MON seaice_area_del2             =   3.7930793459954E-04
(PID.TID 0000.0001) %MON seaice_heff_max              =   9.9515004138786E+00
(PID.TID 0000.0001) %MON seaice_heff_min              =   0.0000000000000E+00
(PID.TID 0000.0001) %MON seaice_heff_mean             =   1.5016373787393E-01
(PID.TID 0000.0001) %MON seaice_heff_sd               =   7.2186522399015E-01
(PID.TID 0000.0001) %MON seaice_heff_del2             =   1.7039974951767E-03
(PID.TID 0000.0001) %MON seaice_hsnow_max             =   3.2869847877465E+00
(PID.TID 0000.0001) %MON seaice_hsnow_min             =   0.0000000000000E+00
(PID.TID 0000.0001) %MON seaice_hsnow_mean            =   1.2782904430759E-02
(PID.TID 0000.0001) %MON seaice_hsnow_sd              =   7.0413350569455E-02
(PID.TID 0000.0001) %MON seaice_hsnow_del2            =   4.8531082994263E-04
(PID.TID 0000.0001) // =======================================================
(PID.TID 0000.0001) // End MONITOR SEAICE statistics
(PID.TID 0000.0001) // =======================================================
(PID.TID 0000.0001) // =======================================================
(PID.TID 0000.0001) // Begin MONITOR dynamic field statistics
(PID.TID 0000.0001) // =======================================================
(PID.TID 0000.0001) %MON time_tsnumber                =                174613
(PID.TID 0000.0001) %MON time_secondsf                =   7.8575850000000E+07
(PID.TID 0000.0001) %MON dynstat_eta_max              =   5.8356829116495E+00
(PID.TID 0000.0001) %MON dynstat_eta_min              =  -1.3570066654740E+01
(PID.TID 0000.0001) %MON dynstat_eta_mean             =   6.6557146300901E-02
(PID.TID 0000.0001) %MON dynstat_eta_sd               =   8.2402964030056E-01
(PID.TID 0000.0001) %MON dynstat_eta_del2             =   2.2086768275589E-03
(PID.TID 0000.0001) %MON dynstat_uvel_max             =   2.9023101766392E+00
(PID.TID 0000.0001) %MON dynstat_uvel_min             =  -2.7800114408719E+00
(PID.TID 0000.0001) %MON dynstat_uvel_mean            =   1.5567291080940E-03
(PID.TID 0000.0001) %MON dynstat_uvel_sd              =   2.8689856394617E-02
(PID.TID 0000.0001) %MON dynstat_uvel_del2            =   2.6519215600325E-05
(PID.TID 0000.0001) %MON dynstat_vvel_max             =   2.8480457152374E+00
(PID.TID 0000.0001) %MON dynstat_vvel_min             =  -3.1499859434159E+00
(PID.TID 0000.0001) %MON dynstat_vvel_mean            =   5.7176210932258E-04
(PID.TID 0000.0001) %MON dynstat_vvel_sd              =   2.9887213474656E-02
(PID.TID 0000.0001) %MON dynstat_vvel_del2            =   2.7304960013350E-05
(PID.TID 0000.0001) %MON dynstat_wvel_max             =   3.5515937711877E-03
(PID.TID 0000.0001) %MON dynstat_wvel_min             =  -4.1386638592334E-03
(PID.TID 0000.0001) %MON dynstat_wvel_mean            =  -2.6462480683631E-07
(PID.TID 0000.0001) %MON dynstat_wvel_sd              =   6.4348819618416E-05
(PID.TID 0000.0001) %MON dynstat_wvel_del2            =   9.6517186421191E-08
(PID.TID 0000.0001) %MON dynstat_theta_max            =   3.2195459968274E+01
(PID.TID 0000.0001) %MON dynstat_theta_min            =  -1.9759663581522E+00
(PID.TID 0000.0001) %MON dynstat_theta_mean           =   3.5922723176954E+00
(PID.TID 0000.0001) %MON dynstat_theta_sd             =   4.4421717682690E+00
(PID.TID 0000.0001) %MON dynstat_theta_del2           =   1.1635498054419E-04
(PID.TID 0000.0001) %MON dynstat_salt_max             =   4.0655996721683E+01
(PID.TID 0000.0001) %MON dynstat_salt_min             =   1.6373538670550E+01
(PID.TID 0000.0001) %MON dynstat_salt_mean            =   3.4724899249603E+01
(PID.TID 0000.0001) %MON dynstat_salt_sd              =   3.7944009491006E-01
(PID.TID 0000.0001) %MON dynstat_salt_del2            =   8.7548941286266E-05
(PID.TID 0000.0001) %MON dynstat_sst_max              =   3.2195459968274E+01
(PID.TID 0000.0001) %MON dynstat_sst_min              =  -1.9759663581522E+00
(PID.TID 0000.0001) %MON dynstat_sst_mean             =   1.8180952881384E+01
(PID.TID 0000.0001) %MON dynstat_sst_sd               =   1.0126113919348E+01
(PID.TID 0000.0001) %MON dynstat_sst_del2             =   1.1027720872198E-03
(PID.TID 0000.0001) %MON dynstat_sss_max              =   3.9488920738805E+01
(PID.TID 0000.0001) %MON dynstat_sss_min              =   1.6373538670550E+01
(PID.TID 0000.0001) %MON dynstat_sss_mean             =   3.4659283458787E+01
(PID.TID 0000.0001) %MON dynstat_sss_sd               =   1.2735836712585E+00
(PID.TID 0000.0001) %MON dynstat_sss_del2             =   1.5692004747724E-03
(PID.TID 0000.0001) %MON forcing_qnet_max             =   3.3692894531250E+04
(PID.TID 0000.0001) %MON forcing_qnet_min             =  -2.2902337890625E+04
(PID.TID 0000.0001) %MON forcing_qnet_mean            =  -7.8527976456272E+01
(PID.TID 0000.0001) %MON forcing_qnet_sd              =   3.5628083299560E+02
(PID.TID 0000.0001) %MON forcing_qnet_del2            =   3.1435615223289E+00
(PID.TID 0000.0001) %MON forcing_qsw_max              =   0.0000000000000E+00
(PID.TID 0000.0001) %MON forcing_qsw_min              =  -1.4396556067395E+02
(PID.TID 0000.0001) %MON forcing_qsw_mean             =  -1.9676569207978E+01
(PID.TID 0000.0001) %MON forcing_qsw_sd               =   2.9319733914693E+01
(PID.TID 0000.0001) %MON forcing_qsw_del2             =   2.5627220184654E-02
(PID.TID 0000.0001) %MON forcing_empmr_max            =   3.8092669099569E-02
(PID.TID 0000.0001) %MON forcing_empmr_min            =  -6.3390389084816E-02
(PID.TID 0000.0001) %MON forcing_empmr_mean           =   4.4207242238354E-05
(PID.TID 0000.0001) %MON forcing_empmr_sd             =   6.6874223159126E-04
(PID.TID 0000.0001) %MON forcing_empmr_del2           =   6.9865316971527E-06
(PID.TID 0000.0001) %MON forcing_fu_max               =   2.4344763031351E+00
(PID.TID 0000.0001) %MON forcing_fu_min               =  -1.7638717675780E+00
(PID.TID 0000.0001) %MON forcing_fu_mean              =   7.8452736077296E-03
(PID.TID 0000.0001) %MON forcing_fu_sd                =   1.1110487339153E-01
(PID.TID 0000.0001) %MON forcing_fu_del2              =   2.3707611868728E-04
(PID.TID 0000.0001) %MON forcing_fv_max               =   2.5507726764970E+00
(PID.TID 0000.0001) %MON forcing_fv_min               =  -1.9239808916467E+00
(PID.TID 0000.0001) %MON forcing_fv_mean              =  -1.4386446417758E-03
(PID.TID 0000.0001) %MON forcing_fv_sd                =   1.1026481189376E-01
(PID.TID 0000.0001) %MON forcing_fv_del2              =   2.4413210518492E-04
(PID.TID 0000.0001) %MON trAdv_CFL_u_max              =   3.3864044320943E-02
(PID.TID 0000.0001) %MON trAdv_CFL_v_max              =   5.5020267686360E-02
(PID.TID 0000.0001) %MON trAdv_CFL_w_max              =   1.0834004274680E-01
(PID.TID 0000.0001) %MON advcfl_uvel_max              =   3.3342918908180E-02
(PID.TID 0000.0001) %MON advcfl_vvel_max              =   4.7019207236634E-02
(PID.TID 0000.0001) %MON advcfl_wvel_max              =   1.9574877595815E-01
(PID.TID 0000.0001) %MON advcfl_W_hf_max              =   1.0834004274680E-01
(PID.TID 0000.0001) %MON pe_b_mean                    =   2.0632467827486E-03
(PID.TID 0000.0001) %MON ke_max                       =   3.4652979754053E+00
(PID.TID 0000.0001) %MON ke_mean                      =   8.2894407969478E-04
(PID.TID 0000.0001) %MON ke_vol                       =   1.3350064351420E+18
(PID.TID 0000.0001) %MON vort_r_min                   =  -1.6955351087083E-04
(PID.TID 0000.0001) %MON vort_r_max                   =   7.8767171926132E-05
(PID.TID 0000.0001) %MON vort_a_mean                  =  -1.9725067470699E-05
(PID.TID 0000.0001) %MON vort_a_sd                    =   7.4538280309827E-05
(PID.TID 0000.0001) %MON vort_p_mean                  =  -2.1669071503492E-05
(PID.TID 0000.0001) %MON vort_p_sd                    =   9.3611132068048E-05
(PID.TID 0000.0001) %MON surfExpan_theta_mean         =   1.2764606692857E-06
(PID.TID 0000.0001) %MON surfExpan_salt_mean          =  -2.2536033043779E-07
(PID.TID 0000.0001) // =======================================================
(PID.TID 0000.0001) // End MONITOR dynamic field statistics
(PID.TID 0000.0001) // =======================================================
(PID.TID 0000.0001) // =======================================================
(PID.TID 0000.0001) // Begin MONITOR SEAICE statistics
(PID.TID 0000.0001) // =======================================================
(PID.TID 0000.0001) %MON seaice_tsnumber              =                174613
(PID.TID 0000.0001) %MON seaice_time_sec              =   7.8575850000000E+07
(PID.TID 0000.0001) %MON seaice_uice_max              =   2.8733485392877E+00
(PID.TID 0000.0001) %MON seaice_uice_min              =  -3.5651788147357E+00
(PID.TID 0000.0001) %MON seaice_uice_mean             =  -1.9346684305240E-03
(PID.TID 0000.0001) %MON seaice_uice_sd               =   1.9325817073949E-01
(PID.TID 0000.0001) %MON seaice_uice_del2             =   5.8205317889400E-04
(PID.TID 0000.0001) %MON seaice_vice_max              =   2.8811047904500E+00
(PID.TID 0000.0001) %MON seaice_vice_min              =  -3.2903254138469E+00
(PID.TID 0000.0001) %MON seaice_vice_mean             =  -2.0210541096561E-02
(PID.TID 0000.0001) %MON seaice_vice_sd               =   2.0096076617366E-01
(PID.TID 0000.0001) %MON seaice_vice_del2             =   6.0871435031224E-04
(PID.TID 0000.0001) %MON seaice_area_max              =   1.0190512141537E+00
(PID.TID 0000.0001) %MON seaice_area_min              =   0.0000000000000E+00
(PID.TID 0000.0001) %MON seaice_area_mean             =   5.7206673261728E-02
(PID.TID 0000.0001) %MON seaice_area_sd               =   2.2224243117395E-01
(PID.TID 0000.0001) %MON seaice_area_del2             =   3.7795767477545E-04
(PID.TID 0000.0001) %MON seaice_heff_max              =   9.9514320011864E+00
(PID.TID 0000.0001) %MON seaice_heff_min              =   0.0000000000000E+00
(PID.TID 0000.0001) %MON seaice_heff_mean             =   1.5016789405584E-01
(PID.TID 0000.0001) %MON seaice_heff_sd               =   7.2187355507035E-01
(PID.TID 0000.0001) %MON seaice_heff_del2             =   1.6983176275640E-03
(PID.TID 0000.0001) %MON seaice_hsnow_max             =   3.2869619049590E+00
(PID.TID 0000.0001) %MON seaice_hsnow_min             =   0.0000000000000E+00
(PID.TID 0000.0001) %MON seaice_hsnow_mean            =   1.2782203015827E-02
(PID.TID 0000.0001) %MON seaice_hsnow_sd              =   7.0382024316899E-02
(PID.TID 0000.0001) %MON seaice_hsnow_del2            =   4.8364353055932E-04
(PID.TID 0000.0001) // =======================================================
(PID.TID 0000.0001) // End MONITOR SEAICE statistics
(PID.TID 0000.0001) // =======================================================
(PID.TID 0000.0001) // =======================================================
(PID.TID 0000.0001) // Begin MONITOR dynamic field statistics
(PID.TID 0000.0001) // =======================================================
(PID.TID 0000.0001) %MON time_tsnumber                =                174614
(PID.TID 0000.0001) %MON time_secondsf                =   7.8576300000000E+07
(PID.TID 0000.0001) %MON dynstat_eta_max              =   5.5391832857666E+00
(PID.TID 0000.0001) %MON dynstat_eta_min              =  -1.3825953173461E+01
(PID.TID 0000.0001) %MON dynstat_eta_mean             =   6.6473271307035E-02
(PID.TID 0000.0001) %MON dynstat_eta_sd               =   8.2309263020115E-01
(PID.TID 0000.0001) %MON dynstat_eta_del2             =   2.2052987448490E-03
(PID.TID 0000.0001) %MON dynstat_uvel_max             =   2.9145030814005E+00
(PID.TID 0000.0001) %MON dynstat_uvel_min             =  -2.8907404749886E+00
(PID.TID 0000.0001) %MON dynstat_uvel_mean            =   1.5479773699021E-03
(PID.TID 0000.0001) %MON dynstat_uvel_sd              =   2.8756928494248E-02
(PID.TID 0000.0001) %MON dynstat_uvel_del2            =   2.6184171493407E-05
(PID.TID 0000.0001) %MON dynstat_vvel_max             =   2.8008711743637E+00
(PID.TID 0000.0001) %MON dynstat_vvel_min             =  -3.0844968899187E+00
(PID.TID 0000.0001) %MON dynstat_vvel_mean            =   5.0436757542858E-04
(PID.TID 0000.0001) %MON dynstat_vvel_sd              =   2.9853950344644E-02
(PID.TID 0000.0001) %MON dynstat_vvel_del2            =   2.6908948062487E-05
(PID.TID 0000.0001) %MON dynstat_wvel_max             =   3.9784034542870E-03
(PID.TID 0000.0001) %MON dynstat_wvel_min             =  -4.0337987989821E-03
(PID.TID 0000.0001) %MON dynstat_wvel_mean            =  -2.6929455780842E-07
(PID.TID 0000.0001) %MON dynstat_wvel_sd              =   6.4589048221909E-05
(PID.TID 0000.0001) %MON dynstat_wvel_del2            =   9.7704548794987E-08
(PID.TID 0000.0001) %MON dynstat_theta_max            =   3.2201333223716E+01
(PID.TID 0000.0001) %MON dynstat_theta_min            =  -1.9771824414091E+00
(PID.TID 0000.0001) %MON dynstat_theta_mean           =   3.5922744610303E+00
(PID.TID 0000.0001) %MON dynstat_theta_sd             =   4.4421849840406E+00
(PID.TID 0000.0001) %MON dynstat_theta_del2           =   1.1641749031770E-04
(PID.TID 0000.0001) %MON dynstat_salt_max             =   4.0655996692856E+01
(PID.TID 0000.0001) %MON dynstat_salt_min             =   1.6369949949378E+01
(PID.TID 0000.0001) %MON dynstat_salt_mean            =   3.4724898124956E+01
(PID.TID 0000.0001) %MON dynstat_salt_sd              =   3.7944182843725E-01
(PID.TID 0000.0001) %MON dynstat_salt_del2            =   8.7263666424837E-05
(PID.TID 0000.0001) %MON dynstat_sst_max              =   3.2201333223716E+01
(PID.TID 0000.0001) %MON dynstat_sst_min              =  -1.9771824414091E+00
(PID.TID 0000.0001) %MON dynstat_sst_mean             =   1.8181144220041E+01
(PID.TID 0000.0001) %MON dynstat_sst_sd               =   1.0126881016346E+01
(PID.TID 0000.0001) %MON dynstat_sst_del2             =   1.1045386383341E-03
(PID.TID 0000.0001) %MON dynstat_sss_max              =   3.9488649598393E+01
(PID.TID 0000.0001) %MON dynstat_sss_min              =   1.6369949949378E+01
(PID.TID 0000.0001) %MON dynstat_sss_mean             =   3.4659150594315E+01
(PID.TID 0000.0001) %MON dynstat_sss_sd               =   1.2737362988210E+00
(PID.TID 0000.0001) %MON dynstat_sss_del2             =   1.5666396811760E-03
(PID.TID 0000.0001) %MON forcing_qnet_max             =   2.9597511718750E+04
(PID.TID 0000.0001) %MON forcing_qnet_min             =  -4.8454443359375E+03
(PID.TID 0000.0001) %MON forcing_qnet_mean            =  -7.5838652193881E+01
(PID.TID 0000.0001) %MON forcing_qnet_sd              =   3.1601458835071E+02
(PID.TID 0000.0001) %MON forcing_qnet_del2            =   2.3448198872742E+00
(PID.TID 0000.0001) %MON forcing_qsw_max              =   0.0000000000000E+00
(PID.TID 0000.0001) %MON forcing_qsw_min              =  -1.4262423031217E+02
(PID.TID 0000.0001) %MON forcing_qsw_mean             =  -1.9603507942134E+01
(PID.TID 0000.0001) %MON forcing_qsw_sd               =   2.9262957404753E+01
(PID.TID 0000.0001) %MON forcing_qsw_del2             =   2.5619701288236E-02
(PID.TID 0000.0001) %MON forcing_empmr_max            =   3.9770737290382E-02
(PID.TID 0000.0001) %MON forcing_empmr_min            =  -6.2745101749897E-02
(PID.TID 0000.0001) %MON forcing_empmr_mean           =   4.3678727652932E-05
(PID.TID 0000.0001) %MON forcing_empmr_sd             =   6.7580037255137E-04
(PID.TID 0000.0001) %MON forcing_empmr_del2           =   6.9984540175017E-06
(PID.TID 0000.0001) %MON forcing_fu_max               =   2.3404932482436E+00
(PID.TID 0000.0001) %MON forcing_fu_min               =  -1.6060181894074E+00
(PID.TID 0000.0001) %MON forcing_fu_mean              =   7.9051497517922E-03
(PID.TID 0000.0001) %MON forcing_fu_sd                =   1.1100729181670E-01
(PID.TID 0000.0001) %MON forcing_fu_del2              =   2.3006040615242E-04
(PID.TID 0000.0001) %MON forcing_fv_max               =   2.4242812839098E+00
(PID.TID 0000.0001) %MON forcing_fv_min               =  -1.8352559289801E+00
(PID.TID 0000.0001) %MON forcing_fv_mean              =  -1.5060431280906E-03
(PID.TID 0000.0001) %MON forcing_fv_sd                =   1.1011016432263E-01
(PID.TID 0000.0001) %MON forcing_fv_del2              =   2.3748512283204E-04
(PID.TID 0000.0001) %MON trAdv_CFL_u_max              =   2.5564390129824E-02
(PID.TID 0000.0001) %MON trAdv_CFL_v_max              =   5.1392401246220E-02
(PID.TID 0000.0001) %MON trAdv_CFL_w_max              =   1.1192006172114E-01
(PID.TID 0000.0001) %MON advcfl_uvel_max              =   2.3876868684849E-02
(PID.TID 0000.0001) %MON advcfl_vvel_max              =   4.4783607929902E-02
(PID.TID 0000.0001) %MON advcfl_wvel_max              =   2.0879109784203E-01
(PID.TID 0000.0001) %MON advcfl_W_hf_max              =   1.1192006172114E-01
(PID.TID 0000.0001) %MON pe_b_mean                    =   2.0564408355603E-03
(PID.TID 0000.0001) %MON ke_max                       =   3.3271537445765E+00
(PID.TID 0000.0001) %MON ke_mean                      =   8.2979528657508E-04
(PID.TID 0000.0001) %MON ke_vol                       =   1.3350064351420E+18
(PID.TID 0000.0001) %MON vort_r_min                   =  -1.3001853158915E-04
(PID.TID 0000.0001) %MON vort_r_max                   =   7.7252936335049E-05
(PID.TID 0000.0001) %MON vort_a_mean                  =  -1.9725065719176E-05
(PID.TID 0000.0001) %MON vort_a_sd                    =   7.4538277715012E-05
(PID.TID 0000.0001) %MON vort_p_mean                  =  -2.1669069579347E-05
(PID.TID 0000.0001) %MON vort_p_sd                    =   9.3611134462911E-05
(PID.TID 0000.0001) %MON surfExpan_theta_mean         =   1.0566551226937E-06
(PID.TID 0000.0001) %MON surfExpan_salt_mean          =  -3.8875074084156E-08
(PID.TID 0000.0001) // =======================================================
(PID.TID 0000.0001) // End MONITOR dynamic field statistics
(PID.TID 0000.0001) // =======================================================
(PID.TID 0000.0001) // =======================================================
(PID.TID 0000.0001) // Begin MONITOR SEAICE statistics
(PID.TID 0000.0001) // =======================================================
(PID.TID 0000.0001) %MON seaice_tsnumber              =                174614
(PID.TID 0000.0001) %MON seaice_time_sec              =   7.8576300000000E+07
(PID.TID 0000.0001) %MON seaice_uice_max              =   2.9023101766392E+00
(PID.TID 0000.0001) %MON seaice_uice_min              =  -2.7800114408719E+00
(PID.TID 0000.0001) %MON seaice_uice_mean             =  -1.8929097271125E-03
(PID.TID 0000.0001) %MON seaice_uice_sd               =   1.9211235267772E-01
(PID.TID 0000.0001) %MON seaice_uice_del2             =   5.6755854441759E-04
(PID.TID 0000.0001) %MON seaice_vice_max              =   2.8480457152374E+00
(PID.TID 0000.0001) %MON seaice_vice_min              =  -3.2329081193138E+00
(PID.TID 0000.0001) %MON seaice_vice_mean             =  -2.0498882236964E-02
(PID.TID 0000.0001) %MON seaice_vice_sd               =   1.9973532247666E-01
(PID.TID 0000.0001) %MON seaice_vice_del2             =   5.9309502131705E-04
(PID.TID 0000.0001) %MON seaice_area_max              =   1.0178266315059E+00
(PID.TID 0000.0001) %MON seaice_area_min              =   0.0000000000000E+00
(PID.TID 0000.0001) %MON seaice_area_mean             =   5.7207509697392E-02
(PID.TID 0000.0001) %MON seaice_area_sd               =   2.2223368192575E-01
(PID.TID 0000.0001) %MON seaice_area_del2             =   3.7660703765122E-04
(PID.TID 0000.0001) %MON seaice_heff_max              =   9.9513667548352E+00
(PID.TID 0000.0001) %MON seaice_heff_min              =   0.0000000000000E+00
(PID.TID 0000.0001) %MON seaice_heff_mean             =   1.5017173845517E-01
(PID.TID 0000.0001) %MON seaice_heff_sd               =   7.2188053379496E-01
(PID.TID 0000.0001) %MON seaice_heff_del2             =   1.6928743842385E-03
(PID.TID 0000.0001) %MON seaice_hsnow_max             =   3.2869405566824E+00
(PID.TID 0000.0001) %MON seaice_hsnow_min             =   0.0000000000000E+00
(PID.TID 0000.0001) %MON seaice_hsnow_mean            =   1.2781471016279E-02
(PID.TID 0000.0001) %MON seaice_hsnow_sd              =   7.0350758716441E-02
(PID.TID 0000.0001) %MON seaice_hsnow_del2            =   4.8203488018555E-04
(PID.TID 0000.0001) // =======================================================
(PID.TID 0000.0001) // End MONITOR SEAICE statistics
(PID.TID 0000.0001) // =======================================================
(PID.TID 0000.0001) // =======================================================
(PID.TID 0000.0001) // Begin MONITOR dynamic field statistics
(PID.TID 0000.0001) // =======================================================
(PID.TID 0000.0001) %MON time_tsnumber                =                174615
(PID.TID 0000.0001) %MON time_secondsf                =   7.8576750000000E+07
(PID.TID 0000.0001) %MON dynstat_eta_max              =   5.0236533869786E+00
(PID.TID 0000.0001) %MON dynstat_eta_min              =  -1.3979665455117E+01
(PID.TID 0000.0001) %MON dynstat_eta_mean             =   6.6387644219788E-02
(PID.TID 0000.0001) %MON dynstat_eta_sd               =   8.2196995119190E-01
(PID.TID 0000.0001) %MON dynstat_eta_del2             =   2.2024257201507E-03
(PID.TID 0000.0001) %MON dynstat_uvel_max             =   2.9104851290670E+00
(PID.TID 0000.0001) %MON dynstat_uvel_min             =  -3.0289152128060E+00
(PID.TID 0000.0001) %MON dynstat_uvel_mean            =   1.5435583296651E-03
(PID.TID 0000.0001) %MON dynstat_uvel_sd              =   2.8837643727109E-02
(PID.TID 0000.0001) %MON dynstat_uvel_del2            =   2.5902779631548E-05
(PID.TID 0000.0001) %MON dynstat_vvel_max             =   2.7404192576837E+00
(PID.TID 0000.0001) %MON dynstat_vvel_min             =  -3.0047985378582E+00
(PID.TID 0000.0001) %MON dynstat_vvel_mean            =   4.3443779504590E-04
(PID.TID 0000.0001) %MON dynstat_vvel_sd              =   2.9827523738133E-02
(PID.TID 0000.0001) %MON dynstat_vvel_del2            =   2.6543641936373E-05
(PID.TID 0000.0001) %MON dynstat_wvel_max             =   4.3259200930781E-03
(PID.TID 0000.0001) %MON dynstat_wvel_min             =  -4.0685196992810E-03
(PID.TID 0000.0001) %MON dynstat_wvel_mean            =  -2.7485145212495E-07
(PID.TID 0000.0001) %MON dynstat_wvel_sd              =   6.4899969216431E-05
(PID.TID 0000.0001) %MON dynstat_wvel_del2            =   9.9127539757599E-08
(PID.TID 0000.0001) %MON dynstat_theta_max            =   3.2207324494591E+01
(PID.TID 0000.0001) %MON dynstat_theta_min            =  -1.9784283817459E+00
(PID.TID 0000.0001) %MON dynstat_theta_mean           =   3.5922765651719E+00
(PID.TID 0000.0001) %MON dynstat_theta_sd             =   4.4421983054710E+00
(PID.TID 0000.0001) %MON dynstat_theta_del2           =   1.1646789518157E-04
(PID.TID 0000.0001) %MON dynstat_salt_max             =   4.0655996658328E+01
(PID.TID 0000.0001) %MON dynstat_salt_min             =   1.6366667539700E+01
(PID.TID 0000.0001) %MON dynstat_salt_mean            =   3.4724896976987E+01
(PID.TID 0000.0001) %MON dynstat_salt_sd              =   3.7944381581810E-01
(PID.TID 0000.0001) %MON dynstat_salt_del2            =   8.6980558581611E-05
(PID.TID 0000.0001) %MON dynstat_sst_max              =   3.2207324494591E+01
(PID.TID 0000.0001) %MON dynstat_sst_min              =  -1.9784283817459E+00
(PID.TID 0000.0001) %MON dynstat_sst_mean             =   1.8181334434502E+01
(PID.TID 0000.0001) %MON dynstat_sst_sd               =   1.0127633369670E+01
(PID.TID 0000.0001) %MON dynstat_sst_del2             =   1.1056677877668E-03
(PID.TID 0000.0001) %MON dynstat_sss_max              =   3.9488307148653E+01
(PID.TID 0000.0001) %MON dynstat_sss_min              =   1.6366667539700E+01
(PID.TID 0000.0001) %MON dynstat_sss_mean             =   3.4659017711326E+01
(PID.TID 0000.0001) %MON dynstat_sss_sd               =   1.2739029816019E+00
(PID.TID 0000.0001) %MON dynstat_sss_del2             =   1.5638894651288E-03
(PID.TID 0000.0001) %MON forcing_qnet_max             =   8.6418134765625E+03
(PID.TID 0000.0001) %MON forcing_qnet_min             =  -1.3002964843750E+04
(PID.TID 0000.0001) %MON forcing_qnet_mean            =  -7.3839413594690E+01
(PID.TID 0000.0001) %MON forcing_qnet_sd              =   3.1283109892346E+02
(PID.TID 0000.0001) %MON forcing_qnet_del2            =   1.8569722587606E+00
(PID.TID 0000.0001) %MON forcing_qsw_max              =   0.0000000000000E+00
(PID.TID 0000.0001) %MON forcing_qsw_min              =  -1.4113720490603E+02
(PID.TID 0000.0001) %MON forcing_qsw_mean             =  -1.9517321686526E+01
(PID.TID 0000.0001) %MON forcing_qsw_sd               =   2.9201850213511E+01
(PID.TID 0000.0001) %MON forcing_qsw_del2             =   2.5596598786060E-02
(PID.TID 0000.0001) %MON forcing_empmr_max            =   4.6919655054808E-02
(PID.TID 0000.0001) %MON forcing_empmr_min            =  -6.2599711120129E-02
(PID.TID 0000.0001) %MON forcing_empmr_mean           =   4.3282094551528E-05
(PID.TID 0000.0001) %MON forcing_empmr_sd             =   6.9994514448049E-04
(PID.TID 0000.0001) %MON forcing_empmr_del2           =   7.0928086745439E-06
(PID.TID 0000.0001) %MON forcing_fu_max               =   2.1777577192549E+00
(PID.TID 0000.0001) %MON forcing_fu_min               =  -1.4248054403219E+00
(PID.TID 0000.0001) %MON forcing_fu_mean              =   7.9600401610767E-03
(PID.TID 0000.0001) %MON forcing_fu_sd                =   1.1091653210275E-01
(PID.TID 0000.0001) %MON forcing_fu_del2              =   2.2189233017881E-04
(PID.TID 0000.0001) %MON forcing_fv_max               =   2.2918469000803E+00
(PID.TID 0000.0001) %MON forcing_fv_min               =  -1.7422960242781E+00
(PID.TID 0000.0001) %MON forcing_fv_mean              =  -1.5642688799922E-03
(PID.TID 0000.0001) %MON forcing_fv_sd                =   1.1000167275777E-01
(PID.TID 0000.0001) %MON forcing_fv_del2              =   2.3093762019563E-04
(PID.TID 0000.0001) %MON trAdv_CFL_u_max              =   2.4888802806335E-02
(PID.TID 0000.0001) %MON trAdv_CFL_v_max              =   4.7013841944899E-02
(PID.TID 0000.0001) %MON trAdv_CFL_w_max              =   1.2327518207113E-01
(PID.TID 0000.0001) %MON advcfl_uvel_max              =   2.3496075188121E-02
(PID.TID 0000.0001) %MON advcfl_vvel_max              =   4.4151796390676E-02
(PID.TID 0000.0001) %MON advcfl_wvel_max              =   2.1254287658183E-01
(PID.TID 0000.0001) %MON advcfl_W_hf_max              =   1.2339845725320E-01
(PID.TID 0000.0001) %MON pe_b_mean                    =   2.0493141875291E-03
(PID.TID 0000.0001) %MON ke_max                       =   3.2782612792639E+00
(PID.TID 0000.0001) %MON ke_mean                      =   8.3123765198102E-04
(PID.TID 0000.0001) %MON ke_vol                       =   1.3350064351420E+18
(PID.TID 0000.0001) %MON vort_r_min                   =  -9.1332784590662E-05
(PID.TID 0000.0001) %MON vort_r_max                   =   7.3016496997975E-05
(PID.TID 0000.0001) %MON vort_a_mean                  =  -1.9725064292685E-05
(PID.TID 0000.0001) %MON vort_a_sd                    =   7.4538278201579E-05
(PID.TID 0000.0001) %MON vort_p_mean                  =  -2.1669068012269E-05
(PID.TID 0000.0001) %MON vort_p_sd                    =   9.3611149018008E-05
(PID.TID 0000.0001) %MON surfExpan_theta_mean         =   8.9762737078112E-07
(PID.TID 0000.0001) %MON surfExpan_salt_mean          =   8.3592893780983E-08
(PID.TID 0000.0001) // =======================================================
(PID.TID 0000.0001) // End MONITOR dynamic field statistics
(PID.TID 0000.0001) // =======================================================
(PID.TID 0000.0001) // =======================================================
(PID.TID 0000.0001) // Begin MONITOR SEAICE statistics
(PID.TID 0000.0001) // =======================================================
(PID.TID 0000.0001) %MON seaice_tsnumber              =                174615
(PID.TID 0000.0001) %MON seaice_time_sec              =   7.8576750000000E+07
(PID.TID 0000.0001) %MON seaice_uice_max              =   2.9145030814005E+00
(PID.TID 0000.0001) %MON seaice_uice_min              =  -2.8907404749886E+00
(PID.TID 0000.0001) %MON seaice_uice_mean             =  -1.8499453490563E-03
(PID.TID 0000.0001) %MON seaice_uice_sd               =   1.9090823247978E-01
(PID.TID 0000.0001) %MON seaice_uice_del2             =   5.5343885159330E-04
(PID.TID 0000.0001) %MON seaice_vice_max              =   2.8008711743637E+00
(PID.TID 0000.0001) %MON seaice_vice_min              =  -3.1622624253736E+00
(PID.TID 0000.0001) %MON seaice_vice_mean             =  -2.0797819689079E-02
(PID.TID 0000.0001) %MON seaice_vice_sd               =   1.9843620029140E-01
(PID.TID 0000.0001) %MON seaice_vice_del2             =   5.7702237159199E-04
(PID.TID 0000.0001) %MON seaice_area_max              =   1.0095531837038E+00
(PID.TID 0000.0001) %MON seaice_area_min              =   0.0000000000000E+00
(PID.TID 0000.0001) %MON seaice_area_mean             =   5.7208343758565E-02
(PID.TID 0000.0001) %MON seaice_area_sd               =   2.2222475334364E-01
(PID.TID 0000.0001) %MON seaice_area_del2             =   3.7526666903966E-04
(PID.TID 0000.0001) %MON seaice_heff_max              =   9.9513030867823E+00
(PID.TID 0000.0001) %MON seaice_heff_min              =   0.0000000000000E+00
(PID.TID 0000.0001) %MON seaice_heff_mean             =   1.5017523878729E-01
(PID.TID 0000.0001) %MON seaice_heff_sd               =   7.2188616120833E-01
(PID.TID 0000.0001) %MON seaice_heff_del2             =   1.6876110079783E-03
(PID.TID 0000.0001) %MON seaice_hsnow_max             =   3.2869200604729E+00
(PID.TID 0000.0001) %MON seaice_hsnow_min             =   0.0000000000000E+00
(PID.TID 0000.0001) %MON seaice_hsnow_mean            =   1.2780738599047E-02
(PID.TID 0000.0001) %MON seaice_hsnow_sd              =   7.0319560460896E-02
(PID.TID 0000.0001) %MON seaice_hsnow_del2            =   4.8045917741171E-04
(PID.TID 0000.0001) // =======================================================
(PID.TID 0000.0001) // End MONITOR SEAICE statistics
(PID.TID 0000.0001) // =======================================================
(PID.TID 0000.0001) // =======================================================
(PID.TID 0000.0001) // Begin MONITOR dynamic field statistics
(PID.TID 0000.0001) // =======================================================
(PID.TID 0000.0001) %MON time_tsnumber                =                174616
(PID.TID 0000.0001) %MON time_secondsf                =   7.8577200000000E+07
(PID.TID 0000.0001) %MON dynstat_eta_max              =   4.3458345479691E+00
(PID.TID 0000.0001) %MON dynstat_eta_min              =  -1.3771173715730E+01
(PID.TID 0000.0001) %MON dynstat_eta_mean             =   6.6298904275640E-02
(PID.TID 0000.0001) %MON dynstat_eta_sd               =   8.2071113246557E-01
(PID.TID 0000.0001) %MON dynstat_eta_del2             =   2.1997981918199E-03
(PID.TID 0000.0001) %MON dynstat_uvel_max             =   2.8910356698004E+00
(PID.TID 0000.0001) %MON dynstat_uvel_min             =  -3.1530808797236E+00
(PID.TID 0000.0001) %MON dynstat_uvel_mean            =   1.5421646039159E-03
(PID.TID 0000.0001) %MON dynstat_uvel_sd              =   2.8928289277648E-02
(PID.TID 0000.0001) %MON dynstat_uvel_del2            =   2.5656607275486E-05
(PID.TID 0000.0001) %MON dynstat_vvel_max             =   2.6674926475112E+00
(PID.TID 0000.0001) %MON dynstat_vvel_min             =  -2.9101600827997E+00
(PID.TID 0000.0001) %MON dynstat_vvel_mean            =   3.6246987621259E-04
(PID.TID 0000.0001) %MON dynstat_vvel_sd              =   2.9805196422943E-02
(PID.TID 0000.0001) %MON dynstat_vvel_del2            =   2.6198941414022E-05
(PID.TID 0000.0001) %MON dynstat_wvel_max             =   4.5953969663396E-03
(PID.TID 0000.0001) %MON dynstat_wvel_min             =  -4.2531354142144E-03
(PID.TID 0000.0001) %MON dynstat_wvel_mean            =  -2.8157922128052E-07
(PID.TID 0000.0001) %MON dynstat_wvel_sd              =   6.5256073326872E-05
(PID.TID 0000.0001) %MON dynstat_wvel_del2            =   1.0067835982739E-07
(PID.TID 0000.0001) %MON dynstat_theta_max            =   3.2213424521505E+01
(PID.TID 0000.0001) %MON dynstat_theta_min            =  -1.9797070973449E+00
(PID.TID 0000.0001) %MON dynstat_theta_mean           =   3.5922786074425E+00
(PID.TID 0000.0001) %MON dynstat_theta_sd             =   4.4422114117819E+00
(PID.TID 0000.0001) %MON dynstat_theta_del2           =   1.1656210338836E-04
(PID.TID 0000.0001) %MON dynstat_salt_max             =   4.0655996618641E+01
(PID.TID 0000.0001) %MON dynstat_salt_min             =   1.6363741294997E+01
(PID.TID 0000.0001) %MON dynstat_salt_mean            =   3.4724895803918E+01
(PID.TID 0000.0001) %MON dynstat_salt_sd              =   3.7944572258197E-01
(PID.TID 0000.0001) %MON dynstat_salt_del2            =   8.6696024743498E-05
(PID.TID 0000.0001) %MON dynstat_sst_max              =   3.2213424521505E+01
(PID.TID 0000.0001) %MON dynstat_sst_min              =  -1.9797070973449E+00
(PID.TID 0000.0001) %MON dynstat_sst_mean             =   1.8181488066818E+01
(PID.TID 0000.0001) %MON dynstat_sst_sd               =   1.0128363567417E+01
(PID.TID 0000.0001) %MON dynstat_sst_del2             =   1.1093477484014E-03
(PID.TID 0000.0001) %MON dynstat_sss_max              =   3.9487900458856E+01
(PID.TID 0000.0001) %MON dynstat_sss_min              =   1.6363741294997E+01
(PID.TID 0000.0001) %MON dynstat_sss_mean             =   3.4658884151893E+01
(PID.TID 0000.0001) %MON dynstat_sss_sd               =   1.2740600272776E+00
(PID.TID 0000.0001) %MON dynstat_sss_del2             =   1.5610748300289E-03
(PID.TID 0000.0001) %MON forcing_qnet_max             =   7.9279448242188E+03
(PID.TID 0000.0001) %MON forcing_qnet_min             =  -1.3918745117188E+04
(PID.TID 0000.0001) %MON forcing_qnet_mean            =  -7.1227366176612E+01
(PID.TID 0000.0001) %MON forcing_qnet_sd              =   3.2023950839985E+02
(PID.TID 0000.0001) %MON forcing_qnet_del2            =   2.0067546650294E+00
(PID.TID 0000.0001) %MON forcing_qsw_max              =   0.0000000000000E+00
(PID.TID 0000.0001) %MON forcing_qsw_min              =  -1.3950740258649E+02
(PID.TID 0000.0001) %MON forcing_qsw_mean             =  -1.9418554725336E+01
(PID.TID 0000.0001) %MON forcing_qsw_sd               =   2.9136348913867E+01
(PID.TID 0000.0001) %MON forcing_qsw_del2             =   2.5558055054217E-02
(PID.TID 0000.0001) %MON forcing_empmr_max            =   7.5458876788616E-02
(PID.TID 0000.0001) %MON forcing_empmr_min            =  -6.1989754438400E-02
(PID.TID 0000.0001) %MON forcing_empmr_mean           =   4.3774992040142E-05
(PID.TID 0000.0001) %MON forcing_empmr_sd             =   7.9845987681859E-04
(PID.TID 0000.0001) %MON forcing_empmr_del2           =   7.5448007340641E-06
(PID.TID 0000.0001) %MON forcing_fu_max               =   1.9502675550620E+00
(PID.TID 0000.0001) %MON forcing_fu_min               =  -1.2318529780676E+00
(PID.TID 0000.0001) %MON forcing_fu_mean              =   8.0184522943823E-03
(PID.TID 0000.0001) %MON forcing_fu_sd                =   1.1086626739904E-01
(PID.TID 0000.0001) %MON forcing_fu_del2              =   2.1319735928963E-04
(PID.TID 0000.0001) %MON forcing_fv_max               =   2.1521524559431E+00
(PID.TID 0000.0001) %MON forcing_fv_min               =  -1.6503747786979E+00
(PID.TID 0000.0001) %MON forcing_fv_mean              =  -1.6174735261661E-03
(PID.TID 0000.0001) %MON forcing_fv_sd                =   1.0989560090014E-01
(PID.TID 0000.0001) %MON forcing_fv_del2              =   2.2506003218525E-04
(PID.TID 0000.0001) %MON trAdv_CFL_u_max              =   2.3561793823829E-02
(PID.TID 0000.0001) %MON trAdv_CFL_v_max              =   4.2419469086639E-02
(PID.TID 0000.0001) %MON trAdv_CFL_w_max              =   1.3488450983816E-01
(PID.TID 0000.0001) %MON advcfl_uvel_max              =   2.2431732169115E-02
(PID.TID 0000.0001) %MON advcfl_vvel_max              =   4.2491508851405E-02
(PID.TID 0000.0001) %MON advcfl_wvel_max              =   2.0868991372400E-01
(PID.TID 0000.0001) %MON advcfl_W_hf_max              =   1.3501939434800E-01
(PID.TID 0000.0001) %MON pe_b_mean                    =   2.0419441487173E-03
(PID.TID 0000.0001) %MON ke_max                       =   3.2497304081044E+00
(PID.TID 0000.0001) %MON ke_mean                      =   8.3309026194074E-04
(PID.TID 0000.0001) %MON ke_vol                       =   1.3350064351420E+18
(PID.TID 0000.0001) %MON vort_r_min                   =  -6.4652221597332E-05
(PID.TID 0000.0001) %MON vort_r_max                   =   6.7260626672536E-05
(PID.TID 0000.0001) %MON vort_a_mean                  =  -1.9725063177358E-05
(PID.TID 0000.0001) %MON vort_a_sd                    =   7.4538281270502E-05
(PID.TID 0000.0001) %MON vort_p_mean                  =  -2.1669066787020E-05
(PID.TID 0000.0001) %MON vort_p_sd                    =   9.3611169068330E-05
(PID.TID 0000.0001) %MON surfExpan_theta_mean         =   7.8741186981916E-07
(PID.TID 0000.0001) %MON surfExpan_salt_mean          =   1.1312902167795E-07
(PID.TID 0000.0001) // =======================================================
(PID.TID 0000.0001) // End MONITOR dynamic field statistics
(PID.TID 0000.0001) // =======================================================
(PID.TID 0000.0001) // =======================================================
(PID.TID 0000.0001) // Begin MONITOR SEAICE statistics
(PID.TID 0000.0001) // =======================================================
(PID.TID 0000.0001) %MON seaice_tsnumber              =                174616
(PID.TID 0000.0001) %MON seaice_time_sec              =   7.8577200000000E+07
(PID.TID 0000.0001) %MON seaice_uice_max              =   2.9104851290670E+00
(PID.TID 0000.0001) %MON seaice_uice_min              =  -3.0289152128060E+00
(PID.TID 0000.0001) %MON seaice_uice_mean             =  -1.7946741406421E-03
(PID.TID 0000.0001) %MON seaice_uice_sd               =   1.8976105195051E-01
(PID.TID 0000.0001) %MON seaice_uice_del2             =   5.4052631204966E-04
(PID.TID 0000.0001) %MON seaice_vice_max              =   2.7404192576837E+00
(PID.TID 0000.0001) %MON seaice_vice_min              =  -3.0782498169130E+00
(PID.TID 0000.0001) %MON seaice_vice_mean             =  -2.1102329121135E-02
(PID.TID 0000.0001) %MON seaice_vice_sd               =   1.9719091670111E-01
(PID.TID 0000.0001) %MON seaice_vice_del2             =   5.6135819327732E-04
(PID.TID 0000.0001) %MON seaice_area_max              =   1.0053715276767E+00
(PID.TID 0000.0001) %MON seaice_area_min              =   0.0000000000000E+00
(PID.TID 0000.0001) %MON seaice_area_mean             =   5.7209264831539E-02
(PID.TID 0000.0001) %MON seaice_area_sd               =   2.2221598689967E-01
(PID.TID 0000.0001) %MON seaice_area_del2             =   3.7394846555462E-04
(PID.TID 0000.0001) %MON seaice_heff_max              =   9.9512395145942E+00
(PID.TID 0000.0001) %MON seaice_heff_min              =   0.0000000000000E+00
(PID.TID 0000.0001) %MON seaice_heff_mean             =   1.5017840541774E-01
(PID.TID 0000.0001) %MON seaice_heff_sd               =   7.2189061849811E-01
(PID.TID 0000.0001) %MON seaice_heff_del2             =   1.6825099671916E-03
(PID.TID 0000.0001) %MON seaice_hsnow_max             =   3.2868993218958E+00
(PID.TID 0000.0001) %MON seaice_hsnow_min             =   0.0000000000000E+00
(PID.TID 0000.0001) %MON seaice_hsnow_mean            =   1.2779982534790E-02
(PID.TID 0000.0001) %MON seaice_hsnow_sd              =   7.0288391627743E-02
(PID.TID 0000.0001) %MON seaice_hsnow_del2            =   4.7890042517470E-04
(PID.TID 0000.0001) // =======================================================
(PID.TID 0000.0001) // End MONITOR SEAICE statistics
(PID.TID 0000.0001) // =======================================================
(PID.TID 0000.0001) // =======================================================
(PID.TID 0000.0001) // Begin MONITOR dynamic field statistics
(PID.TID 0000.0001) // =======================================================
(PID.TID 0000.0001) %MON time_tsnumber                =                174617
(PID.TID 0000.0001) %MON time_secondsf                =   7.8577650000000E+07
(PID.TID 0000.0001) %MON dynstat_eta_max              =   4.2479309297245E+00
(PID.TID 0000.0001) %MON dynstat_eta_min              =  -1.3258363636174E+01
(PID.TID 0000.0001) %MON dynstat_eta_mean             =   6.6203362288819E-02
(PID.TID 0000.0001) %MON dynstat_eta_sd               =   8.1937294717637E-01
(PID.TID 0000.0001) %MON dynstat_eta_del2             =   2.1973243285318E-03
(PID.TID 0000.0001) %MON dynstat_uvel_max             =   2.8571127396086E+00
(PID.TID 0000.0001) %MON dynstat_uvel_min             =  -3.2624749228775E+00
(PID.TID 0000.0001) %MON dynstat_uvel_mean            =   1.5425203096126E-03
(PID.TID 0000.0001) %MON dynstat_uvel_sd              =   2.9026406014604E-02
(PID.TID 0000.0001) %MON dynstat_uvel_del2            =   2.5436928225996E-05
(PID.TID 0000.0001) %MON dynstat_vvel_max             =   2.5828658528683E+00
(PID.TID 0000.0001) %MON dynstat_vvel_min             =  -2.8034189943513E+00
(PID.TID 0000.0001) %MON dynstat_vvel_mean            =   2.8892638616619E-04
(PID.TID 0000.0001) %MON dynstat_vvel_sd              =   2.9786028231281E-02
(PID.TID 0000.0001) %MON dynstat_vvel_del2            =   2.5872266337182E-05
(PID.TID 0000.0001) %MON dynstat_wvel_max             =   4.7846095549123E-03
(PID.TID 0000.0001) %MON dynstat_wvel_min             =  -4.3402850734069E-03
(PID.TID 0000.0001) %MON dynstat_wvel_mean            =  -2.8875150082500E-07
(PID.TID 0000.0001) %MON dynstat_wvel_sd              =   6.5630674240519E-05
(PID.TID 0000.0001) %MON dynstat_wvel_del2            =   1.0225153835066E-07
(PID.TID 0000.0001) %MON dynstat_theta_max            =   3.2219492049721E+01
(PID.TID 0000.0001) %MON dynstat_theta_min            =  -1.9810143982174E+00
(PID.TID 0000.0001) %MON dynstat_theta_mean           =   3.5922805664162E+00
(PID.TID 0000.0001) %MON dynstat_theta_sd             =   4.4422244611171E+00
(PID.TID 0000.0001) %MON dynstat_theta_del2           =   1.1668971499858E-04
(PID.TID 0000.0001) %MON dynstat_salt_max             =   4.0655996574383E+01
(PID.TID 0000.0001) %MON dynstat_salt_min             =   1.6361188850773E+01
(PID.TID 0000.0001) %MON dynstat_salt_mean            =   3.4724894594151E+01
(PID.TID 0000.0001) %MON dynstat_salt_sd              =   3.7944775099156E-01
(PID.TID 0000.0001) %MON dynstat_salt_del2            =   8.6422013513736E-05
(PID.TID 0000.0001) %MON dynstat_sst_max              =   3.2219492049721E+01
(PID.TID 0000.0001) %MON dynstat_sst_min              =  -1.9810143982174E+00
(PID.TID 0000.0001) %MON dynstat_sst_mean             =   1.8181630391836E+01
(PID.TID 0000.0001) %MON dynstat_sst_sd               =   1.0129063242261E+01
(PID.TID 0000.0001) %MON dynstat_sst_del2             =   1.1126421231514E-03
(PID.TID 0000.0001) %MON dynstat_sss_max              =   3.9487457887082E+01
(PID.TID 0000.0001) %MON dynstat_sss_min              =   1.6361188850773E+01
(PID.TID 0000.0001) %MON dynstat_sss_mean             =   3.4658747507871E+01
(PID.TID 0000.0001) %MON dynstat_sss_sd               =   1.2742193238938E+00
(PID.TID 0000.0001) %MON dynstat_sss_del2             =   1.5583457326537E-03
(PID.TID 0000.0001) %MON forcing_qnet_max             =   2.0542183593750E+04
(PID.TID 0000.0001) %MON forcing_qnet_min             =  -7.5723696289062E+03
(PID.TID 0000.0001) %MON forcing_qnet_mean            =  -6.7570697798195E+01
(PID.TID 0000.0001) %MON forcing_qnet_sd              =   3.3378178784861E+02
(PID.TID 0000.0001) %MON forcing_qnet_del2            =   2.1861609762813E+00
(PID.TID 0000.0001) %MON forcing_qsw_max              =   0.0000000000000E+00
(PID.TID 0000.0001) %MON forcing_qsw_min              =  -1.3773697884371E+02
(PID.TID 0000.0001) %MON forcing_qsw_mean             =  -1.9306895041144E+01
(PID.TID 0000.0001) %MON forcing_qsw_sd               =   2.9066948398310E+01
(PID.TID 0000.0001) %MON forcing_qsw_del2             =   2.5504242881543E-02
(PID.TID 0000.0001) %MON forcing_empmr_max            =   4.2385998368263E-01
(PID.TID 0000.0001) %MON forcing_empmr_min            =  -6.3183106482029E-02
(PID.TID 0000.0001) %MON forcing_empmr_mean           =   5.1798845761125E-05
(PID.TID 0000.0001) %MON forcing_empmr_sd             =   2.1712664539437E-03
(PID.TID 0000.0001) %MON forcing_empmr_del2           =   1.8344862843171E-05
(PID.TID 0000.0001) %MON forcing_fu_max               =   1.6709785886511E+00
(PID.TID 0000.0001) %MON forcing_fu_min               =  -1.1803901905703E+00
(PID.TID 0000.0001) %MON forcing_fu_mean              =   8.0759512924982E-03
(PID.TID 0000.0001) %MON forcing_fu_sd                =   1.1082444646559E-01
(PID.TID 0000.0001) %MON forcing_fu_del2              =   2.0456422429390E-04
(PID.TID 0000.0001) %MON forcing_fv_max               =   2.0227614836201E+00
(PID.TID 0000.0001) %MON forcing_fv_min               =  -1.5639899446391E+00
(PID.TID 0000.0001) %MON forcing_fv_mean              =  -1.6716365758981E-03
(PID.TID 0000.0001) %MON forcing_fv_sd                =   1.0980089160691E-01
(PID.TID 0000.0001) %MON forcing_fv_del2              =   2.1942314181731E-04
(PID.TID 0000.0001) %MON trAdv_CFL_u_max              =   2.1671718309005E-02
(PID.TID 0000.0001) %MON trAdv_CFL_v_max              =   3.9925674265249E-02
(PID.TID 0000.0001) %MON trAdv_CFL_w_max              =   1.4218151593658E-01
(PID.TID 0000.0001) %MON advcfl_uvel_max              =   2.0771640406033E-02
(PID.TID 0000.0001) %MON advcfl_vvel_max              =   3.9993478889968E-02
(PID.TID 0000.0001) %MON advcfl_wvel_max              =   1.9887547274207E-01
(PID.TID 0000.0001) %MON advcfl_W_hf_max              =   1.4232369745251E-01
(PID.TID 0000.0001) %MON pe_b_mean                    =   2.0343644494883E-03
(PID.TID 0000.0001) %MON ke_max                       =   3.1796062491740E+00
(PID.TID 0000.0001) %MON ke_mean                      =   8.3525826029004E-04
(PID.TID 0000.0001) %MON ke_vol                       =   1.3350064351420E+18
(PID.TID 0000.0001) %MON vort_r_min                   =  -5.9272053720954E-05
(PID.TID 0000.0001) %MON vort_r_max                   =   6.6778803703728E-05
(PID.TID 0000.0001) %MON vort_a_mean                  =  -1.9725062366213E-05
(PID.TID 0000.0001) %MON vort_a_sd                    =   7.4538286459016E-05
(PID.TID 0000.0001) %MON vort_p_mean                  =  -2.1669065895933E-05
(PID.TID 0000.0001) %MON vort_p_sd                    =   9.3611187874290E-05
(PID.TID 0000.0001) %MON surfExpan_theta_mean         =   7.4250732825763E-07
(PID.TID 0000.0001) %MON surfExpan_salt_mean          =   8.3221669929756E-08
(PID.TID 0000.0001) // =======================================================
(PID.TID 0000.0001) // End MONITOR dynamic field statistics
(PID.TID 0000.0001) // =======================================================
(PID.TID 0000.0001) // =======================================================
(PID.TID 0000.0001) // Begin MONITOR SEAICE statistics
(PID.TID 0000.0001) // =======================================================
(PID.TID 0000.0001) %MON seaice_tsnumber              =                174617
(PID.TID 0000.0001) %MON seaice_time_sec              =   7.8577650000000E+07
(PID.TID 0000.0001) %MON seaice_uice_max              =   2.8910356698004E+00
(PID.TID 0000.0001) %MON seaice_uice_min              =  -3.1530808797236E+00
(PID.TID 0000.0001) %MON seaice_uice_mean             =  -1.7356757554288E-03
(PID.TID 0000.0001) %MON seaice_uice_sd               =   1.8860798315778E-01
(PID.TID 0000.0001) %MON seaice_uice_del2             =   5.2846793621493E-04
(PID.TID 0000.0001) %MON seaice_vice_max              =   2.6674926475112E+00
(PID.TID 0000.0001) %MON seaice_vice_min              =  -2.9800109442474E+00
(PID.TID 0000.0001) %MON seaice_vice_mean             =  -2.1409269327743E-02
(PID.TID 0000.0001) %MON seaice_vice_sd               =   1.9587992009475E-01
(PID.TID 0000.0001) %MON seaice_vice_del2             =   5.4564869152724E-04
(PID.TID 0000.0001) %MON seaice_area_max              =   1.0070397196331E+00
(PID.TID 0000.0001) %MON seaice_area_min              =   0.0000000000000E+00
(PID.TID 0000.0001) %MON seaice_area_mean             =   5.7210247124416E-02
(PID.TID 0000.0001) %MON seaice_area_sd               =   2.2220733151623E-01
(PID.TID 0000.0001) %MON seaice_area_del2             =   3.7265279974484E-04
(PID.TID 0000.0001) %MON seaice_heff_max              =   9.9511780164997E+00
(PID.TID 0000.0001) %MON seaice_heff_min              =   0.0000000000000E+00
(PID.TID 0000.0001) %MON seaice_heff_mean             =   1.5018128185433E-01
(PID.TID 0000.0001) %MON seaice_heff_sd               =   7.2189417412811E-01
(PID.TID 0000.0001) %MON seaice_heff_del2             =   1.6775566372241E-03
(PID.TID 0000.0001) %MON seaice_hsnow_max             =   3.2868792361965E+00
(PID.TID 0000.0001) %MON seaice_hsnow_min             =   0.0000000000000E+00
(PID.TID 0000.0001) %MON seaice_hsnow_mean            =   1.2779225301068E-02
(PID.TID 0000.0001) %MON seaice_hsnow_sd              =   7.0257286621821E-02
(PID.TID 0000.0001) %MON seaice_hsnow_del2            =   4.7734471621770E-04
(PID.TID 0000.0001) // =======================================================
(PID.TID 0000.0001) // End MONITOR SEAICE statistics
(PID.TID 0000.0001) // =======================================================
(PID.TID 0000.0001) // =======================================================
(PID.TID 0000.0001) // Begin MONITOR dynamic field statistics
(PID.TID 0000.0001) // =======================================================
(PID.TID 0000.0001) %MON time_tsnumber                =                174618
(PID.TID 0000.0001) %MON time_secondsf                =   7.8578100000000E+07
(PID.TID 0000.0001) %MON dynstat_eta_max              =   4.1396283711999E+00
(PID.TID 0000.0001) %MON dynstat_eta_min              =  -1.2516750426975E+01
(PID.TID 0000.0001) %MON dynstat_eta_mean             =   6.6109308086397E-02
(PID.TID 0000.0001) %MON dynstat_eta_sd               =   8.1799965646035E-01
(PID.TID 0000.0001) %MON dynstat_eta_del2             =   2.1949384875875E-03
(PID.TID 0000.0001) %MON dynstat_uvel_max             =   2.8097544641977E+00
(PID.TID 0000.0001) %MON dynstat_uvel_min             =  -3.3555908209496E+00
(PID.TID 0000.0001) %MON dynstat_uvel_mean            =   1.5434181023103E-03
(PID.TID 0000.0001) %MON dynstat_uvel_sd              =   2.9130725301147E-02
(PID.TID 0000.0001) %MON dynstat_uvel_del2            =   2.5238867402875E-05
(PID.TID 0000.0001) %MON dynstat_vvel_max             =   2.4872879063843E+00
(PID.TID 0000.0001) %MON dynstat_vvel_min             =  -2.7291831236821E+00
(PID.TID 0000.0001) %MON dynstat_vvel_mean            =   2.1416684250558E-04
(PID.TID 0000.0001) %MON dynstat_vvel_sd              =   2.9766444303702E-02
(PID.TID 0000.0001) %MON dynstat_vvel_del2            =   2.5553506535098E-05
(PID.TID 0000.0001) %MON dynstat_wvel_max             =   4.9072529318279E-03
(PID.TID 0000.0001) %MON dynstat_wvel_min             =  -4.3365853242859E-03
(PID.TID 0000.0001) %MON dynstat_wvel_mean            =  -2.9570100019593E-07
(PID.TID 0000.0001) %MON dynstat_wvel_sd              =   6.5993987053069E-05
(PID.TID 0000.0001) %MON dynstat_wvel_del2            =   1.0374204808810E-07
(PID.TID 0000.0001) %MON dynstat_theta_max            =   3.2225549680115E+01
(PID.TID 0000.0001) %MON dynstat_theta_min            =  -1.9823497292510E+00
(PID.TID 0000.0001) %MON dynstat_theta_mean           =   3.5922824367335E+00
(PID.TID 0000.0001) %MON dynstat_theta_sd             =   4.4422373943423E+00
(PID.TID 0000.0001) %MON dynstat_theta_del2           =   1.1683334382115E-04
(PID.TID 0000.0001) %MON dynstat_salt_max             =   4.0655996526213E+01
(PID.TID 0000.0001) %MON dynstat_salt_min             =   1.6358973484933E+01
(PID.TID 0000.0001) %MON dynstat_salt_mean            =   3.4724893374945E+01
(PID.TID 0000.0001) %MON dynstat_salt_sd              =   3.7944981622778E-01
(PID.TID 0000.0001) %MON dynstat_salt_del2            =   8.6150964660943E-05
(PID.TID 0000.0001) %MON dynstat_sst_max              =   3.2225549680115E+01
(PID.TID 0000.0001) %MON dynstat_sst_min              =  -1.9823497292510E+00
(PID.TID 0000.0001) %MON dynstat_sst_mean             =   1.8181759798802E+01
(PID.TID 0000.0001) %MON dynstat_sst_sd               =   1.0129743090743E+01
(PID.TID 0000.0001) %MON dynstat_sst_del2             =   1.1168601769555E-03
(PID.TID 0000.0001) %MON dynstat_sss_max              =   3.9486991042044E+01
(PID.TID 0000.0001) %MON dynstat_sss_min              =   1.6358973484933E+01
(PID.TID 0000.0001) %MON dynstat_sss_mean             =   3.4658610853147E+01
(PID.TID 0000.0001) %MON dynstat_sss_sd               =   1.2743812860085E+00
(PID.TID 0000.0001) %MON dynstat_sss_del2             =   1.5555168605311E-03
(PID.TID 0000.0001) %MON forcing_qnet_max             =   1.6088648437500E+04
(PID.TID 0000.0001) %MON forcing_qnet_min             =  -7.2891840820312E+03
(PID.TID 0000.0001) %MON forcing_qnet_mean            =  -6.5489808031376E+01
(PID.TID 0000.0001) %MON forcing_qnet_sd              =   3.0549236698382E+02
(PID.TID 0000.0001) %MON forcing_qnet_del2            =   1.9999019753424E+00
(PID.TID 0000.0001) %MON forcing_qsw_max              =   0.0000000000000E+00
(PID.TID 0000.0001) %MON forcing_qsw_min              =  -1.3582894428698E+02
(PID.TID 0000.0001) %MON forcing_qsw_mean             =  -1.9181963492708E+01
(PID.TID 0000.0001) %MON forcing_qsw_sd               =   2.8994168929585E+01
(PID.TID 0000.0001) %MON forcing_qsw_del2             =   2.5435266476023E-02
(PID.TID 0000.0001) %MON forcing_empmr_max            =   5.5403303354979E-02
(PID.TID 0000.0001) %MON forcing_empmr_min            =  -6.2624402344227E-02
(PID.TID 0000.0001) %MON forcing_empmr_mean           =   4.0831879401665E-05
(PID.TID 0000.0001) %MON forcing_empmr_sd             =   7.0719740910544E-04
(PID.TID 0000.0001) %MON forcing_empmr_del2           =   7.1904894841279E-06
(PID.TID 0000.0001) %MON forcing_fu_max               =   1.4330604042216E+00
(PID.TID 0000.0001) %MON forcing_fu_min               =  -1.1532648134630E+00
(PID.TID 0000.0001) %MON forcing_fu_mean              =   8.1320004408159E-03
(PID.TID 0000.0001) %MON forcing_fu_sd                =   1.1081894996304E-01
(PID.TID 0000.0001) %MON forcing_fu_del2              =   1.9696725647478E-04
(PID.TID 0000.0001) %MON forcing_fv_max               =   2.1821833733105E+00
(PID.TID 0000.0001) %MON forcing_fv_min               =  -1.4834590636455E+00
(PID.TID 0000.0001) %MON forcing_fv_mean              =  -1.7179912977384E-03
(PID.TID 0000.0001) %MON forcing_fv_sd                =   1.0971062755375E-01
(PID.TID 0000.0001) %MON forcing_fv_del2              =   2.1381930206129E-04
(PID.TID 0000.0001) %MON trAdv_CFL_u_max              =   1.9312832040013E-02
(PID.TID 0000.0001) %MON trAdv_CFL_v_max              =   3.6821425476384E-02
(PID.TID 0000.0001) %MON trAdv_CFL_w_max              =   1.4501316305905E-01
(PID.TID 0000.0001) %MON advcfl_uvel_max              =   1.8606422111115E-02
(PID.TID 0000.0001) %MON advcfl_vvel_max              =   3.6883958244634E-02
(PID.TID 0000.0001) %MON advcfl_wvel_max              =   2.0887684265261E-01
(PID.TID 0000.0001) %MON advcfl_W_hf_max              =   1.4515817622210E-01
(PID.TID 0000.0001) %MON pe_b_mean                    =   2.0268980515860E-03
(PID.TID 0000.0001) %MON ke_max                       =   3.0716864589441E+00
(PID.TID 0000.0001) %MON ke_mean                      =   8.3760393288949E-04
(PID.TID 0000.0001) %MON ke_vol                       =   1.3350064351420E+18
(PID.TID 0000.0001) %MON vort_r_min                   =  -5.6024579519547E-05
(PID.TID 0000.0001) %MON vort_r_max                   =   6.7112444156477E-05
(PID.TID 0000.0001) %MON vort_a_mean                  =  -1.9725061838632E-05
(PID.TID 0000.0001) %MON vort_a_sd                    =   7.4538293053700E-05
(PID.TID 0000.0001) %MON vort_p_mean                  =  -2.1669065316356E-05
(PID.TID 0000.0001) %MON vort_p_sd                    =   9.3611199167139E-05
(PID.TID 0000.0001) %MON surfExpan_theta_mean         =   7.6559102272111E-07
(PID.TID 0000.0001) %MON surfExpan_salt_mean          =   1.4597183695179E-08
(PID.TID 0000.0001) // =======================================================
(PID.TID 0000.0001) // End MONITOR dynamic field statistics
(PID.TID 0000.0001) // =======================================================
(PID.TID 0000.0001) // =======================================================
(PID.TID 0000.0001) // Begin MONITOR SEAICE statistics
(PID.TID 0000.0001) // =======================================================
(PID.TID 0000.0001) %MON seaice_tsnumber              =                174618
(PID.TID 0000.0001) %MON seaice_time_sec              =   7.8578100000000E+07
(PID.TID 0000.0001) %MON seaice_uice_max              =   2.8571127396086E+00
(PID.TID 0000.0001) %MON seaice_uice_min              =  -3.2624749228775E+00
(PID.TID 0000.0001) %MON seaice_uice_mean             =  -1.6682266259929E-03
(PID.TID 0000.0001) %MON seaice_uice_sd               =   1.8745604725293E-01
(PID.TID 0000.0001) %MON seaice_uice_del2             =   5.1738041711050E-04
(PID.TID 0000.0001) %MON seaice_vice_max              =   2.5828658528683E+00
(PID.TID 0000.0001) %MON seaice_vice_min              =  -2.8689887920059E+00
(PID.TID 0000.0001) %MON seaice_vice_mean             =  -2.1725032602769E-02
(PID.TID 0000.0001) %MON seaice_vice_sd               =   1.9469436265672E-01
(PID.TID 0000.0001) %MON seaice_vice_del2             =   5.3051393206158E-04
(PID.TID 0000.0001) %MON seaice_area_max              =   1.0068719673717E+00
(PID.TID 0000.0001) %MON seaice_area_min              =   0.0000000000000E+00
(PID.TID 0000.0001) %MON seaice_area_mean             =   5.7211271502053E-02
(PID.TID 0000.0001) %MON seaice_area_sd               =   2.2219867033289E-01
(PID.TID 0000.0001) %MON seaice_area_del2             =   3.7137344192963E-04
(PID.TID 0000.0001) %MON seaice_heff_max              =   9.9511214508420E+00
(PID.TID 0000.0001) %MON seaice_heff_min              =   0.0000000000000E+00
(PID.TID 0000.0001) %MON seaice_heff_mean             =   1.5018389863942E-01
(PID.TID 0000.0001) %MON seaice_heff_sd               =   7.2189730130322E-01
(PID.TID 0000.0001) %MON seaice_heff_del2             =   1.6727617013166E-03
(PID.TID 0000.0001) %MON seaice_hsnow_max             =   3.2868608601508E+00
(PID.TID 0000.0001) %MON seaice_hsnow_min             =   0.0000000000000E+00
(PID.TID 0000.0001) %MON seaice_hsnow_mean            =   1.2778441415199E-02
(PID.TID 0000.0001) %MON seaice_hsnow_sd              =   7.0226744747866E-02
(PID.TID 0000.0001) %MON seaice_hsnow_del2            =   4.7580305486245E-04
(PID.TID 0000.0001) // =======================================================
(PID.TID 0000.0001) // End MONITOR SEAICE statistics
(PID.TID 0000.0001) // =======================================================
(PID.TID 0000.0001) // =======================================================
(PID.TID 0000.0001) // Begin MONITOR dynamic field statistics
(PID.TID 0000.0001) // =======================================================
(PID.TID 0000.0001) %MON time_tsnumber                =                174619
(PID.TID 0000.0001) %MON time_secondsf                =   7.8578550000000E+07
(PID.TID 0000.0001) %MON dynstat_eta_max              =   3.9003368030598E+00
(PID.TID 0000.0001) %MON dynstat_eta_min              =  -1.1957156879189E+01
(PID.TID 0000.0001) %MON dynstat_eta_mean             =   6.6012617919993E-02
(PID.TID 0000.0001) %MON dynstat_eta_sd               =   8.1664454181212E-01
(PID.TID 0000.0001) %MON dynstat_eta_del2             =   2.1925495731236E-03
(PID.TID 0000.0001) %MON dynstat_uvel_max             =   2.7500536597643E+00
(PID.TID 0000.0001) %MON dynstat_uvel_min             =  -3.4319635514416E+00
(PID.TID 0000.0001) %MON dynstat_uvel_mean            =   1.5438235656774E-03
(PID.TID 0000.0001) %MON dynstat_uvel_sd              =   2.9238732030930E-02
(PID.TID 0000.0001) %MON dynstat_uvel_del2            =   2.5059899839457E-05
(PID.TID 0000.0001) %MON dynstat_vvel_max             =   2.4094130326146E+00
(PID.TID 0000.0001) %MON dynstat_vvel_min             =  -2.7544311074383E+00
(PID.TID 0000.0001) %MON dynstat_vvel_mean            =   1.3850972124963E-04
(PID.TID 0000.0001) %MON dynstat_vvel_sd              =   2.9744517153022E-02
(PID.TID 0000.0001) %MON dynstat_vvel_del2            =   2.5251838851800E-05
(PID.TID 0000.0001) %MON dynstat_wvel_max             =   5.0250985624913E-03
(PID.TID 0000.0001) %MON dynstat_wvel_min             =  -4.3243202678911E-03
(PID.TID 0000.0001) %MON dynstat_wvel_mean            =  -3.0239439983682E-07
(PID.TID 0000.0001) %MON dynstat_wvel_sd              =   6.6319498443827E-05
(PID.TID 0000.0001) %MON dynstat_wvel_del2            =   1.0507245429406E-07
(PID.TID 0000.0001) %MON dynstat_theta_max            =   3.2231606091307E+01
(PID.TID 0000.0001) %MON dynstat_theta_min            =  -1.9837083696666E+00
(PID.TID 0000.0001) %MON dynstat_theta_mean           =   3.5922842037515E+00
(PID.TID 0000.0001) %MON dynstat_theta_sd             =   4.4422501997715E+00
(PID.TID 0000.0001) %MON dynstat_theta_del2           =   1.1694688428729E-04
(PID.TID 0000.0001) %MON dynstat_salt_max             =   4.0655996474873E+01
(PID.TID 0000.0001) %MON dynstat_salt_min             =   1.6356996896100E+01
(PID.TID 0000.0001) %MON dynstat_salt_mean            =   3.4724892139591E+01
(PID.TID 0000.0001) %MON dynstat_salt_sd              =   3.7945201665425E-01
(PID.TID 0000.0001) %MON dynstat_salt_del2            =   8.5887858230496E-05
(PID.TID 0000.0001) %MON dynstat_sst_max              =   3.2231606091307E+01
(PID.TID 0000.0001) %MON dynstat_sst_min              =  -1.9837083696666E+00
(PID.TID 0000.0001) %MON dynstat_sst_mean             =   1.8181885623589E+01
(PID.TID 0000.0001) %MON dynstat_sst_sd               =   1.0130404355758E+01
(PID.TID 0000.0001) %MON dynstat_sst_del2             =   1.1190218289335E-03
(PID.TID 0000.0001) %MON dynstat_sss_max              =   3.9486511475835E+01
(PID.TID 0000.0001) %MON dynstat_sss_min              =   1.6356996896100E+01
(PID.TID 0000.0001) %MON dynstat_sss_mean             =   3.4658475710412E+01
(PID.TID 0000.0001) %MON dynstat_sss_sd               =   1.2745501871966E+00
(PID.TID 0000.0001) %MON dynstat_sss_del2             =   1.5526955552195E-03
(PID.TID 0000.0001) %MON forcing_qnet_max             =   7.6208005299840E+04
(PID.TID 0000.0001) %MON forcing_qnet_min             =  -5.7427636718750E+03
(PID.TID 0000.0001) %MON forcing_qnet_mean            =  -6.2447229463462E+01
(PID.TID 0000.0001) %MON forcing_qnet_sd              =   3.7106881047600E+02
(PID.TID 0000.0001) %MON forcing_qnet_del2            =   4.9244624764826E+00
(PID.TID 0000.0001) %MON forcing_qsw_max              =   0.0000000000000E+00
(PID.TID 0000.0001) %MON forcing_qsw_min              =  -1.3378577570672E+02
(PID.TID 0000.0001) %MON forcing_qsw_mean             =  -1.9043967544459E+01
(PID.TID 0000.0001) %MON forcing_qsw_sd               =   2.8918107517649E+01
(PID.TID 0000.0001) %MON forcing_qsw_del2             =   2.5351149116612E-02
(PID.TID 0000.0001) %MON forcing_empmr_max            =   7.1999393403530E-02
(PID.TID 0000.0001) %MON forcing_empmr_min            =  -6.1954572796822E-02
(PID.TID 0000.0001) %MON forcing_empmr_mean           =   3.9301065263278E-05
(PID.TID 0000.0001) %MON forcing_empmr_sd             =   7.0750187540248E-04
(PID.TID 0000.0001) %MON forcing_empmr_del2           =   7.2282733044303E-06
(PID.TID 0000.0001) %MON forcing_fu_max               =   1.4892469807219E+00
(PID.TID 0000.0001) %MON forcing_fu_min               =  -1.0995950667060E+00
(PID.TID 0000.0001) %MON forcing_fu_mean              =   8.1780187154074E-03
(PID.TID 0000.0001) %MON forcing_fu_sd                =   1.1080225387123E-01
(PID.TID 0000.0001) %MON forcing_fu_del2              =   1.9156329049204E-04
(PID.TID 0000.0001) %MON forcing_fv_max               =   2.2314172207736E+00
(PID.TID 0000.0001) %MON forcing_fv_min               =  -1.4396957090456E+00
(PID.TID 0000.0001) %MON forcing_fv_mean              =  -1.7647163725408E-03
(PID.TID 0000.0001) %MON forcing_fv_sd                =   1.0963390505982E-01
(PID.TID 0000.0001) %MON forcing_fv_del2              =   2.0809367055932E-04
(PID.TID 0000.0001) %MON trAdv_CFL_u_max              =   1.9129073963820E-02
(PID.TID 0000.0001) %MON trAdv_CFL_v_max              =   3.5574710350628E-02
(PID.TID 0000.0001) %MON trAdv_CFL_w_max              =   1.4370361895278E-01
(PID.TID 0000.0001) %MON advcfl_uvel_max              =   1.9449189360307E-02
(PID.TID 0000.0001) %MON advcfl_vvel_max              =   3.5661186162368E-02
(PID.TID 0000.0001) %MON advcfl_wvel_max              =   2.2889112637783E-01
(PID.TID 0000.0001) %MON advcfl_W_hf_max              =   1.4384732257173E-01
(PID.TID 0000.0001) %MON pe_b_mean                    =   2.0195567512334E-03
(PID.TID 0000.0001) %MON ke_max                       =   3.2250939043836E+00
(PID.TID 0000.0001) %MON ke_mean                      =   8.4000173330538E-04
(PID.TID 0000.0001) %MON ke_vol                       =   1.3350064351420E+18
(PID.TID 0000.0001) %MON vort_r_min                   =  -5.4734900650959E-05
(PID.TID 0000.0001) %MON vort_r_max                   =   6.6306117164292E-05
(PID.TID 0000.0001) %MON vort_a_mean                  =  -1.9725061561669E-05
(PID.TID 0000.0001) %MON vort_a_sd                    =   7.4538300539924E-05
(PID.TID 0000.0001) %MON vort_p_mean                  =  -2.1669065012097E-05
(PID.TID 0000.0001) %MON vort_p_sd                    =   9.3611199208069E-05
(PID.TID 0000.0001) %MON surfExpan_theta_mean         =   8.5600804358309E-07
(PID.TID 0000.0001) %MON surfExpan_salt_mean          =  -9.5195379399618E-08
(PID.TID 0000.0001) // =======================================================
(PID.TID 0000.0001) // End MONITOR dynamic field statistics
(PID.TID 0000.0001) // =======================================================
(PID.TID 0000.0001) // =======================================================
(PID.TID 0000.0001) // Begin MONITOR SEAICE statistics
(PID.TID 0000.0001) // =======================================================
(PID.TID 0000.0001) %MON seaice_tsnumber              =                174619
(PID.TID 0000.0001) %MON seaice_time_sec              =   7.8578550000000E+07
(PID.TID 0000.0001) %MON seaice_uice_max              =   2.8097544641977E+00
(PID.TID 0000.0001) %MON seaice_uice_min              =  -3.3555908209496E+00
(PID.TID 0000.0001) %MON seaice_uice_mean             =  -1.6000389287973E-03
(PID.TID 0000.0001) %MON seaice_uice_sd               =   1.8637398975996E-01
(PID.TID 0000.0001) %MON seaice_uice_del2             =   5.0743509440831E-04
(PID.TID 0000.0001) %MON seaice_vice_max              =   2.4872879063843E+00
(PID.TID 0000.0001) %MON seaice_vice_min              =  -2.7464930698869E+00
(PID.TID 0000.0001) %MON seaice_vice_mean             =  -2.2048668436832E-02
(PID.TID 0000.0001) %MON seaice_vice_sd               =   1.9352061104132E-01
(PID.TID 0000.0001) %MON seaice_vice_del2             =   5.1552360743975E-04
(PID.TID 0000.0001) %MON seaice_area_max              =   1.0066683612912E+00
(PID.TID 0000.0001) %MON seaice_area_min              =   0.0000000000000E+00
(PID.TID 0000.0001) %MON seaice_area_mean             =   5.7212292689596E-02
(PID.TID 0000.0001) %MON seaice_area_sd               =   2.2218989046164E-01
(PID.TID 0000.0001) %MON seaice_area_del2             =   3.7011956003416E-04
(PID.TID 0000.0001) %MON seaice_heff_max              =   9.9510826592604E+00
(PID.TID 0000.0001) %MON seaice_heff_min              =   0.0000000000000E+00
(PID.TID 0000.0001) %MON seaice_heff_mean             =   1.5018627684297E-01
(PID.TID 0000.0001) %MON seaice_heff_sd               =   7.2190034653167E-01
(PID.TID 0000.0001) %MON seaice_heff_del2             =   1.6681426330007E-03
(PID.TID 0000.0001) %MON seaice_hsnow_max             =   3.2868485433915E+00
(PID.TID 0000.0001) %MON seaice_hsnow_min             =   0.0000000000000E+00
(PID.TID 0000.0001) %MON seaice_hsnow_mean            =   1.2777651790101E-02
(PID.TID 0000.0001) %MON seaice_hsnow_sd              =   7.0197191769568E-02
(PID.TID 0000.0001) %MON seaice_hsnow_del2            =   4.7428827811471E-04
(PID.TID 0000.0001) // =======================================================
(PID.TID 0000.0001) // End MONITOR SEAICE statistics
(PID.TID 0000.0001) // =======================================================
(PID.TID 0000.0001) // =======================================================
(PID.TID 0000.0001) // Begin MONITOR dynamic field statistics
(PID.TID 0000.0001) // =======================================================
(PID.TID 0000.0001) %MON time_tsnumber                =                174620
(PID.TID 0000.0001) %MON time_secondsf                =   7.8579000000000E+07
(PID.TID 0000.0001) %MON dynstat_eta_max              =   3.8092703812059E+00
(PID.TID 0000.0001) %MON dynstat_eta_min              =  -1.1447286192354E+01
(PID.TID 0000.0001) %MON dynstat_eta_mean             =   6.5911587475250E-02
(PID.TID 0000.0001) %MON dynstat_eta_sd               =   8.1534995277785E-01
(PID.TID 0000.0001) %MON dynstat_eta_del2             =   2.1899646215750E-03
(PID.TID 0000.0001) %MON dynstat_uvel_max             =   2.6791048645585E+00
(PID.TID 0000.0001) %MON dynstat_uvel_min             =  -3.4904126863986E+00
(PID.TID 0000.0001) %MON dynstat_uvel_mean            =   1.5429048458790E-03
(PID.TID 0000.0001) %MON dynstat_uvel_sd              =   2.9348979588709E-02
(PID.TID 0000.0001) %MON dynstat_uvel_del2            =   2.4893183699055E-05
(PID.TID 0000.0001) %MON dynstat_vvel_max             =   2.3519549408013E+00
(PID.TID 0000.0001) %MON dynstat_vvel_min             =  -2.7657677049907E+00
(PID.TID 0000.0001) %MON dynstat_vvel_mean            =   6.2210922827845E-05
(PID.TID 0000.0001) %MON dynstat_vvel_sd              =   2.9718389880691E-02
(PID.TID 0000.0001) %MON dynstat_vvel_del2            =   2.4973023819232E-05
(PID.TID 0000.0001) %MON dynstat_wvel_max             =   5.0575249416100E-03
(PID.TID 0000.0001) %MON dynstat_wvel_min             =  -4.4581781524028E-03
(PID.TID 0000.0001) %MON dynstat_wvel_mean            =  -3.0926468281784E-07
(PID.TID 0000.0001) %MON dynstat_wvel_sd              =   6.6587689901254E-05
(PID.TID 0000.0001) %MON dynstat_wvel_del2            =   1.0619511176754E-07
(PID.TID 0000.0001) %MON dynstat_theta_max            =   3.2237635287120E+01
(PID.TID 0000.0001) %MON dynstat_theta_min            =  -1.9850761029463E+00
(PID.TID 0000.0001) %MON dynstat_theta_mean           =   3.5922858961109E+00
(PID.TID 0000.0001) %MON dynstat_theta_sd             =   4.4422627956250E+00
(PID.TID 0000.0001) %MON dynstat_theta_del2           =   1.1705892208607E-04
(PID.TID 0000.0001) %MON dynstat_salt_max             =   4.0655996421197E+01
(PID.TID 0000.0001) %MON dynstat_salt_min             =   1.6355113206765E+01
(PID.TID 0000.0001) %MON dynstat_salt_mean            =   3.4724890898155E+01
(PID.TID 0000.0001) %MON dynstat_salt_sd              =   3.7945424770005E-01
(PID.TID 0000.0001) %MON dynstat_salt_del2            =   8.5629473864051E-05
(PID.TID 0000.0001) %MON dynstat_sst_max              =   3.2237635287120E+01
(PID.TID 0000.0001) %MON dynstat_sst_min              =  -1.9850761029463E+00
(PID.TID 0000.0001) %MON dynstat_sst_mean             =   1.8181986190920E+01
(PID.TID 0000.0001) %MON dynstat_sst_sd               =   1.0131044763850E+01
(PID.TID 0000.0001) %MON dynstat_sst_del2             =   1.1231360947707E-03
(PID.TID 0000.0001) %MON dynstat_sss_max              =   3.9486039142099E+01
(PID.TID 0000.0001) %MON dynstat_sss_min              =   1.6355113206765E+01
(PID.TID 0000.0001) %MON dynstat_sss_mean             =   3.4658337822781E+01
(PID.TID 0000.0001) %MON dynstat_sss_sd               =   1.2747147774954E+00
(PID.TID 0000.0001) %MON dynstat_sss_del2             =   1.5499979547148E-03
(PID.TID 0000.0001) %MON forcing_qnet_max             =   6.4375292968750E+03
(PID.TID 0000.0001) %MON forcing_qnet_min             =  -6.3210468750000E+03
(PID.TID 0000.0001) %MON forcing_qnet_mean            =  -6.0299972400649E+01
(PID.TID 0000.0001) %MON forcing_qnet_sd              =   2.9418875664282E+02
(PID.TID 0000.0001) %MON forcing_qnet_del2            =   1.5308808547906E+00
(PID.TID 0000.0001) %MON forcing_qsw_max              =   0.0000000000000E+00
(PID.TID 0000.0001) %MON forcing_qsw_min              =  -1.3161109510896E+02
(PID.TID 0000.0001) %MON forcing_qsw_mean             =  -1.8893201883833E+01
(PID.TID 0000.0001) %MON forcing_qsw_sd               =   2.8838794862921E+01
(PID.TID 0000.0001) %MON forcing_qsw_del2             =   2.5252064914859E-02
(PID.TID 0000.0001) %MON forcing_empmr_max            =   1.6250863671303E-01
(PID.TID 0000.0001) %MON forcing_empmr_min            =  -6.2451161444187E-02
(PID.TID 0000.0001) %MON forcing_empmr_mean           =   4.1126634842322E-05
(PID.TID 0000.0001) %MON forcing_empmr_sd             =   1.0595628459290E-03
(PID.TID 0000.0001) %MON forcing_empmr_del2           =   9.6166379299754E-06
(PID.TID 0000.0001) %MON forcing_fu_max               =   1.4769765640840E+00
(PID.TID 0000.0001) %MON forcing_fu_min               =  -1.0190776283262E+00
(PID.TID 0000.0001) %MON forcing_fu_mean              =   8.2211806488346E-03
(PID.TID 0000.0001) %MON forcing_fu_sd                =   1.1078476183876E-01
(PID.TID 0000.0001) %MON forcing_fu_del2              =   1.8759892247692E-04
(PID.TID 0000.0001) %MON forcing_fv_max               =   2.1919060390610E+00
(PID.TID 0000.0001) %MON forcing_fv_min               =  -1.3750035016173E+00
(PID.TID 0000.0001) %MON forcing_fv_mean              =  -1.8039889303422E-03
(PID.TID 0000.0001) %MON forcing_fv_sd                =   1.0952210911472E-01
(PID.TID 0000.0001) %MON forcing_fv_del2              =   2.0192116383941E-04
(PID.TID 0000.0001) %MON trAdv_CFL_u_max              =   1.9355671233403E-02
(PID.TID 0000.0001) %MON trAdv_CFL_v_max              =   3.4071775414938E-02
(PID.TID 0000.0001) %MON trAdv_CFL_w_max              =   1.3918920252160E-01
(PID.TID 0000.0001) %MON advcfl_uvel_max              =   1.9679578620811E-02
(PID.TID 0000.0001) %MON advcfl_vvel_max              =   3.4154597858393E-02
(PID.TID 0000.0001) %MON advcfl_wvel_max              =   2.3966200161793E-01
(PID.TID 0000.0001) %MON advcfl_W_hf_max              =   1.3918920252160E-01
(PID.TID 0000.0001) %MON pe_b_mean                    =   2.0123855861981E-03
(PID.TID 0000.0001) %MON ke_max                       =   3.3895935751504E+00
(PID.TID 0000.0001) %MON ke_mean                      =   8.4235777190258E-04
(PID.TID 0000.0001) %MON ke_vol                       =   1.3350064351420E+18
(PID.TID 0000.0001) %MON vort_r_min                   =  -5.4810103986077E-05
(PID.TID 0000.0001) %MON vort_r_max                   =   6.4954535822912E-05
(PID.TID 0000.0001) %MON vort_a_mean                  =  -1.9725061512418E-05
(PID.TID 0000.0001) %MON vort_a_sd                    =   7.4538308355358E-05
(PID.TID 0000.0001) %MON vort_p_mean                  =  -2.1669064957992E-05
(PID.TID 0000.0001) %MON vort_p_sd                    =   9.3611185132708E-05
(PID.TID 0000.0001) %MON surfExpan_theta_mean         =   1.0129149945797E-06
(PID.TID 0000.0001) %MON surfExpan_salt_mean          =  -2.6788175723448E-07
(PID.TID 0000.0001) // =======================================================
(PID.TID 0000.0001) // End MONITOR dynamic field statistics
(PID.TID 0000.0001) // =======================================================
(PID.TID 0000.0001) // =======================================================
(PID.TID 0000.0001) // Begin MONITOR SEAICE statistics
(PID.TID 0000.0001) // =======================================================
(PID.TID 0000.0001) %MON seaice_tsnumber              =                174620
(PID.TID 0000.0001) %MON seaice_time_sec              =   7.8579000000000E+07
(PID.TID 0000.0001) %MON seaice_uice_max              =   2.7500536597643E+00
(PID.TID 0000.0001) %MON seaice_uice_min              =  -3.4319635514416E+00
(PID.TID 0000.0001) %MON seaice_uice_mean             =  -1.5276069466149E-03
(PID.TID 0000.0001) %MON seaice_uice_sd               =   1.8530248844614E-01
(PID.TID 0000.0001) %MON seaice_uice_del2             =   4.9805733747517E-04
(PID.TID 0000.0001) %MON seaice_vice_max              =   2.4091494115374E+00
(PID.TID 0000.0001) %MON seaice_vice_min              =  -2.7544311074383E+00
(PID.TID 0000.0001) %MON seaice_vice_mean             =  -2.2374500837489E-02
(PID.TID 0000.0001) %MON seaice_vice_sd               =   1.9241378173755E-01
(PID.TID 0000.0001) %MON seaice_vice_del2             =   5.0136048532210E-04
(PID.TID 0000.0001) %MON seaice_area_max              =   1.0064033878938E+00
(PID.TID 0000.0001) %MON seaice_area_min              =   0.0000000000000E+00
(PID.TID 0000.0001) %MON seaice_area_mean             =   5.7213321510575E-02
(PID.TID 0000.0001) %MON seaice_area_sd               =   2.2218114024084E-01
(PID.TID 0000.0001) %MON seaice_area_del2             =   3.6888943481391E-04
(PID.TID 0000.0001) %MON seaice_heff_max              =   9.9510389908430E+00
(PID.TID 0000.0001) %MON seaice_heff_min              =   0.0000000000000E+00
(PID.TID 0000.0001) %MON seaice_heff_mean             =   1.5018843295055E-01
(PID.TID 0000.0001) %MON seaice_heff_sd               =   7.2190350223485E-01
(PID.TID 0000.0001) %MON seaice_heff_del2             =   1.6636875891872E-03
(PID.TID 0000.0001) %MON seaice_hsnow_max             =   3.2868344490501E+00
(PID.TID 0000.0001) %MON seaice_hsnow_min             =   0.0000000000000E+00
(PID.TID 0000.0001) %MON seaice_hsnow_mean            =   1.2776863303993E-02
(PID.TID 0000.0001) %MON seaice_hsnow_sd              =   7.0169082101349E-02
(PID.TID 0000.0001) %MON seaice_hsnow_del2            =   4.7280915802619E-04
(PID.TID 0000.0001) // =======================================================
(PID.TID 0000.0001) // End MONITOR SEAICE statistics
(PID.TID 0000.0001) // =======================================================
(PID.TID 0000.0001) // =======================================================
(PID.TID 0000.0001) // Begin MONITOR dynamic field statistics
(PID.TID 0000.0001) // =======================================================
(PID.TID 0000.0001) %MON time_tsnumber                =                174621
(PID.TID 0000.0001) %MON time_secondsf                =   7.8579450000000E+07
(PID.TID 0000.0001) %MON dynstat_eta_max              =   3.8531393011014E+00
(PID.TID 0000.0001) %MON dynstat_eta_min              =  -1.1708449266735E+01
(PID.TID 0000.0001) %MON dynstat_eta_mean             =   6.5807183942751E-02
(PID.TID 0000.0001) %MON dynstat_eta_sd               =   8.1415126923544E-01
(PID.TID 0000.0001) %MON dynstat_eta_del2             =   2.1869235903245E-03
(PID.TID 0000.0001) %MON dynstat_uvel_max             =   2.5979349826529E+00
(PID.TID 0000.0001) %MON dynstat_uvel_min             =  -3.5307120395255E+00
(PID.TID 0000.0001) %MON dynstat_uvel_mean            =   1.5400262188498E-03
(PID.TID 0000.0001) %MON dynstat_uvel_sd              =   2.9459848483577E-02
(PID.TID 0000.0001) %MON dynstat_uvel_del2            =   2.4733434139175E-05
(PID.TID 0000.0001) %MON dynstat_vvel_max             =   2.2818595531765E+00
(PID.TID 0000.0001) %MON dynstat_vvel_min             =  -2.6563640511400E+00
(PID.TID 0000.0001) %MON dynstat_vvel_mean            =  -1.4506598662647E-05
(PID.TID 0000.0001) %MON dynstat_vvel_sd              =   2.9685640999502E-02
(PID.TID 0000.0001) %MON dynstat_vvel_del2            =   2.4720294376747E-05
(PID.TID 0000.0001) %MON dynstat_wvel_max             =   5.0024055125774E-03
(PID.TID 0000.0001) %MON dynstat_wvel_min             =  -4.5796393076456E-03
(PID.TID 0000.0001) %MON dynstat_wvel_mean            =  -3.1570042074917E-07
(PID.TID 0000.0001) %MON dynstat_wvel_sd              =   6.6788592611971E-05
(PID.TID 0000.0001) %MON dynstat_wvel_del2            =   1.0709307294819E-07
(PID.TID 0000.0001) %MON dynstat_theta_max            =   3.2243636212245E+01
(PID.TID 0000.0001) %MON dynstat_theta_min            =  -1.9864484268714E+00
(PID.TID 0000.0001) %MON dynstat_theta_mean           =   3.5922874458540E+00
(PID.TID 0000.0001) %MON dynstat_theta_sd             =   4.4422749704838E+00
(PID.TID 0000.0001) %MON dynstat_theta_del2           =   1.1716405816592E-04
(PID.TID 0000.0001) %MON dynstat_salt_max             =   4.0655996366088E+01
(PID.TID 0000.0001) %MON dynstat_salt_min             =   1.6353165003667E+01
(PID.TID 0000.0001) %MON dynstat_salt_mean            =   3.4724889658655E+01
(PID.TID 0000.0001) %MON dynstat_salt_sd              =   3.7945655652197E-01
(PID.TID 0000.0001) %MON dynstat_salt_del2            =   8.5377210996900E-05
(PID.TID 0000.0001) %MON dynstat_sst_max              =   3.2243636212245E+01
(PID.TID 0000.0001) %MON dynstat_sst_min              =  -1.9864484268714E+00
(PID.TID 0000.0001) %MON dynstat_sst_mean             =   1.8182040691422E+01
(PID.TID 0000.0001) %MON dynstat_sst_sd               =   1.0131643023258E+01
(PID.TID 0000.0001) %MON dynstat_sst_del2             =   1.1263666034380E-03
(PID.TID 0000.0001) %MON dynstat_sss_max              =   3.9485592681858E+01
(PID.TID 0000.0001) %MON dynstat_sss_min              =   1.6353165003667E+01
(PID.TID 0000.0001) %MON dynstat_sss_mean             =   3.4658203826662E+01
(PID.TID 0000.0001) %MON dynstat_sss_sd               =   1.2748785040564E+00
(PID.TID 0000.0001) %MON dynstat_sss_del2             =   1.5472162952706E-03
(PID.TID 0000.0001) %MON forcing_qnet_max             =   7.7797500000000E+03
(PID.TID 0000.0001) %MON forcing_qnet_min             =  -1.2117206054688E+04
(PID.TID 0000.0001) %MON forcing_qnet_mean            =  -5.6356546188651E+01
(PID.TID 0000.0001) %MON forcing_qnet_sd              =   3.0058964751146E+02
(PID.TID 0000.0001) %MON forcing_qnet_del2            =   1.7396173026967E+00
(PID.TID 0000.0001) %MON forcing_qsw_max              =   0.0000000000000E+00
(PID.TID 0000.0001) %MON forcing_qsw_min              =  -1.2746061015640E+02
(PID.TID 0000.0001) %MON forcing_qsw_mean             =  -1.8517413500738E+01
(PID.TID 0000.0001) %MON forcing_qsw_sd               =   2.8778153990988E+01
(PID.TID 0000.0001) %MON forcing_qsw_del2             =   2.5012727130902E-02
(PID.TID 0000.0001) %MON forcing_empmr_max            =   1.8963740766048E-01
(PID.TID 0000.0001) %MON forcing_empmr_min            =  -6.2484644353390E-02
(PID.TID 0000.0001) %MON forcing_empmr_mean           =   4.1240209038407E-05
(PID.TID 0000.0001) %MON forcing_empmr_sd             =   1.1842852893611E-03
(PID.TID 0000.0001) %MON forcing_empmr_del2           =   1.0511764852882E-05
(PID.TID 0000.0001) %MON forcing_fu_max               =   1.4149909959622E+00
(PID.TID 0000.0001) %MON forcing_fu_min               =  -9.1409285655602E-01
(PID.TID 0000.0001) %MON forcing_fu_mean              =   8.2715968135685E-03
(PID.TID 0000.0001) %MON forcing_fu_sd                =   1.1082434876791E-01
(PID.TID 0000.0001) %MON forcing_fu_del2              =   1.8470913257364E-04
(PID.TID 0000.0001) %MON forcing_fv_max               =   2.0865078235031E+00
(PID.TID 0000.0001) %MON forcing_fv_min               =  -1.3931830602923E+00
(PID.TID 0000.0001) %MON forcing_fv_mean              =  -1.8376433509076E-03
(PID.TID 0000.0001) %MON forcing_fv_sd                =   1.0942609867446E-01
(PID.TID 0000.0001) %MON forcing_fv_del2              =   1.9577483428407E-04
(PID.TID 0000.0001) %MON trAdv_CFL_u_max              =   2.0371876564112E-02
(PID.TID 0000.0001) %MON trAdv_CFL_v_max              =   3.1441005084341E-02
(PID.TID 0000.0001) %MON trAdv_CFL_w_max              =   1.3245657014445E-01
(PID.TID 0000.0001) %MON advcfl_uvel_max              =   2.0692076371040E-02
(PID.TID 0000.0001) %MON advcfl_vvel_max              =   3.1517432591686E-02
(PID.TID 0000.0001) %MON advcfl_wvel_max              =   2.4116610012333E-01
(PID.TID 0000.0001) %MON advcfl_W_hf_max              =   1.3245657014445E-01
(PID.TID 0000.0001) %MON pe_b_mean                    =   2.0054829304444E-03
(PID.TID 0000.0001) %MON ke_max                       =   3.5250125452776E+00
(PID.TID 0000.0001) %MON ke_mean                      =   8.4455693932178E-04
(PID.TID 0000.0001) %MON ke_vol                       =   1.3350064351420E+18
(PID.TID 0000.0001) %MON vort_r_min                   =  -5.9649429900372E-05
(PID.TID 0000.0001) %MON vort_r_max                   =   6.3888373027664E-05
(PID.TID 0000.0001) %MON vort_a_mean                  =  -1.9725061667757E-05
(PID.TID 0000.0001) %MON vort_a_sd                    =   7.4538315979151E-05
(PID.TID 0000.0001) %MON vort_p_mean                  =  -2.1669065128641E-05
(PID.TID 0000.0001) %MON vort_p_sd                    =   9.3611155926520E-05
(PID.TID 0000.0001) %MON surfExpan_theta_mean         =   1.2461206821754E-06
(PID.TID 0000.0001) %MON surfExpan_salt_mean          =  -4.7023312853298E-07
(PID.TID 0000.0001) // =======================================================
(PID.TID 0000.0001) // End MONITOR dynamic field statistics
(PID.TID 0000.0001) // =======================================================
(PID.TID 0000.0001) // =======================================================
(PID.TID 0000.0001) // Begin MONITOR SEAICE statistics
(PID.TID 0000.0001) // =======================================================
(PID.TID 0000.0001) %MON seaice_tsnumber              =                174621
(PID.TID 0000.0001) %MON seaice_time_sec              =   7.8579450000000E+07
(PID.TID 0000.0001) %MON seaice_uice_max              =   2.6791048645585E+00
(PID.TID 0000.0001) %MON seaice_uice_min              =  -3.4904126863986E+00
(PID.TID 0000.0001) %MON seaice_uice_mean             =  -1.4582131997876E-03
(PID.TID 0000.0001) %MON seaice_uice_sd               =   1.8429227461128E-01
(PID.TID 0000.0001) %MON seaice_uice_del2             =   4.8919890441095E-04
(PID.TID 0000.0001) %MON seaice_vice_max              =   2.3517268277713E+00
(PID.TID 0000.0001) %MON seaice_vice_min              =  -2.7657677049907E+00
(PID.TID 0000.0001) %MON seaice_vice_mean             =  -2.2707952718956E-02
(PID.TID 0000.0001) %MON seaice_vice_sd               =   1.9137859319886E-01
(PID.TID 0000.0001) %MON seaice_vice_del2             =   4.8814607899250E-04
(PID.TID 0000.0001) %MON seaice_area_max              =   1.0060655423165E+00
(PID.TID 0000.0001) %MON seaice_area_min              =   0.0000000000000E+00
(PID.TID 0000.0001) %MON seaice_area_mean             =   5.7214383731207E-02
(PID.TID 0000.0001) %MON seaice_area_sd               =   2.2217257415753E-01
(PID.TID 0000.0001) %MON seaice_area_del2             =   3.6768987730069E-04
(PID.TID 0000.0001) %MON seaice_heff_max              =   9.9509923280245E+00
(PID.TID 0000.0001) %MON seaice_heff_min              =   0.0000000000000E+00
(PID.TID 0000.0001) %MON seaice_heff_mean             =   1.5019038866275E-01
(PID.TID 0000.0001) %MON seaice_heff_sd               =   7.2190695974662E-01
(PID.TID 0000.0001) %MON seaice_heff_del2             =   1.6593712204750E-03
(PID.TID 0000.0001) %MON seaice_hsnow_max             =   3.2868193338408E+00
(PID.TID 0000.0001) %MON seaice_hsnow_min             =   0.0000000000000E+00
(PID.TID 0000.0001) %MON seaice_hsnow_mean            =   1.2776111259183E-02
(PID.TID 0000.0001) %MON seaice_hsnow_sd              =   7.0142733772094E-02
(PID.TID 0000.0001) %MON seaice_hsnow_del2            =   4.7136829631619E-04
(PID.TID 0000.0001) // =======================================================
(PID.TID 0000.0001) // End MONITOR SEAICE statistics
(PID.TID 0000.0001) // =======================================================
(PID.TID 0000.0001) // =======================================================
(PID.TID 0000.0001) // Begin MONITOR dynamic field statistics
(PID.TID 0000.0001) // =======================================================
(PID.TID 0000.0001) %MON time_tsnumber                =                174622
(PID.TID 0000.0001) %MON time_secondsf                =   7.8579900000000E+07
(PID.TID 0000.0001) %MON dynstat_eta_max              =   3.8860159566052E+00
(PID.TID 0000.0001) %MON dynstat_eta_min              =  -1.2007183758117E+01
(PID.TID 0000.0001) %MON dynstat_eta_mean             =   6.5701847875276E-02
(PID.TID 0000.0001) %MON dynstat_eta_sd               =   8.1307848059569E-01
(PID.TID 0000.0001) %MON dynstat_eta_del2             =   2.1831492593778E-03
(PID.TID 0000.0001) %MON dynstat_uvel_max             =   2.5075070615304E+00
(PID.TID 0000.0001) %MON dynstat_uvel_min             =  -3.5520381668907E+00
(PID.TID 0000.0001) %MON dynstat_uvel_mean            =   1.5347057033658E-03
(PID.TID 0000.0001) %MON dynstat_uvel_sd              =   2.9569385849624E-02
(PID.TID 0000.0001) %MON dynstat_uvel_del2            =   2.4593799772295E-05
(PID.TID 0000.0001) %MON dynstat_vvel_max             =   2.2058754202469E+00
(PID.TID 0000.0001) %MON dynstat_vvel_min             =  -2.6442579940178E+00
(PID.TID 0000.0001) %MON dynstat_vvel_mean            =  -9.1416725331174E-05
(PID.TID 0000.0001) %MON dynstat_vvel_sd              =   2.9647589550963E-02
(PID.TID 0000.0001) %MON dynstat_vvel_del2            =   2.4512672378588E-05
(PID.TID 0000.0001) %MON dynstat_wvel_max             =   4.8615308185086E-03
(PID.TID 0000.0001) %MON dynstat_wvel_min             =  -4.7216365681236E-03
(PID.TID 0000.0001) %MON dynstat_wvel_mean            =  -3.2168772843523E-07
(PID.TID 0000.0001) %MON dynstat_wvel_sd              =   6.6922148173871E-05
(PID.TID 0000.0001) %MON dynstat_wvel_del2            =   1.0776896008205E-07
(PID.TID 0000.0001) %MON dynstat_theta_max            =   3.2249619546915E+01
(PID.TID 0000.0001) %MON dynstat_theta_min            =  -1.9878140364596E+00
(PID.TID 0000.0001) %MON dynstat_theta_mean           =   3.5922888793470E+00
(PID.TID 0000.0001) %MON dynstat_theta_sd             =   4.4422867971848E+00
(PID.TID 0000.0001) %MON dynstat_theta_del2           =   1.1725664457790E-04
(PID.TID 0000.0001) %MON dynstat_salt_max             =   4.0655996310493E+01
(PID.TID 0000.0001) %MON dynstat_salt_min             =   1.6351015987509E+01
(PID.TID 0000.0001) %MON dynstat_salt_mean            =   3.4724888423541E+01
(PID.TID 0000.0001) %MON dynstat_salt_sd              =   3.7945885822577E-01
(PID.TID 0000.0001) %MON dynstat_salt_del2            =   8.5126380765033E-05
(PID.TID 0000.0001) %MON dynstat_sst_max              =   3.2249619546915E+01
(PID.TID 0000.0001) %MON dynstat_sst_min              =  -1.9878140364596E+00
(PID.TID 0000.0001) %MON dynstat_sst_mean             =   1.8182077860626E+01
(PID.TID 0000.0001) %MON dynstat_sst_sd               =   1.0132229772296E+01
(PID.TID 0000.0001) %MON dynstat_sst_del2             =   1.1317860268887E-03
(PID.TID 0000.0001) %MON dynstat_sss_max              =   3.9485192180550E+01
(PID.TID 0000.0001) %MON dynstat_sss_min              =   1.6351015987509E+01
(PID.TID 0000.0001) %MON dynstat_sss_mean             =   3.4658067404051E+01
(PID.TID 0000.0001) %MON dynstat_sss_sd               =   1.2750440089957E+00
(PID.TID 0000.0001) %MON dynstat_sss_del2             =   1.5446001086527E-03
(PID.TID 0000.0001) %MON forcing_qnet_max             =   9.1344799627343E+03
(PID.TID 0000.0001) %MON forcing_qnet_min             =  -8.1246621093750E+03
(PID.TID 0000.0001) %MON forcing_qnet_mean            =  -5.4166003933474E+01
(PID.TID 0000.0001) %MON forcing_qnet_sd              =   2.9344792674290E+02
(PID.TID 0000.0001) %MON forcing_qnet_del2            =   1.5862252685815E+00
(PID.TID 0000.0001) %MON forcing_qsw_max              =   0.0000000000000E+00
(PID.TID 0000.0001) %MON forcing_qsw_min              =  -1.2506475586245E+02
(PID.TID 0000.0001) %MON forcing_qsw_mean             =  -1.8444095511437E+01
(PID.TID 0000.0001) %MON forcing_qsw_sd               =   2.8803152720144E+01
(PID.TID 0000.0001) %MON forcing_qsw_del2             =   2.4936003651138E-02
(PID.TID 0000.0001) %MON forcing_empmr_max            =   3.2557245343924E-02
(PID.TID 0000.0001) %MON forcing_empmr_min            =  -6.0439731925726E-02
(PID.TID 0000.0001) %MON forcing_empmr_mean           =   3.5896218227957E-05
(PID.TID 0000.0001) %MON forcing_empmr_sd             =   5.9453382828210E-04
(PID.TID 0000.0001) %MON forcing_empmr_del2           =   6.5025503890078E-06
(PID.TID 0000.0001) %MON forcing_fu_max               =   1.3175802706755E+00
(PID.TID 0000.0001) %MON forcing_fu_min               =  -9.2895090517023E-01
(PID.TID 0000.0001) %MON forcing_fu_mean              =   8.3144075280890E-03
(PID.TID 0000.0001) %MON forcing_fu_sd                =   1.1082940118749E-01
(PID.TID 0000.0001) %MON forcing_fu_del2              =   1.8302061168162E-04
(PID.TID 0000.0001) %MON forcing_fv_max               =   1.9306926753481E+00
(PID.TID 0000.0001) %MON forcing_fv_min               =  -1.3989475386796E+00
(PID.TID 0000.0001) %MON forcing_fv_mean              =  -1.8734814744288E-03
(PID.TID 0000.0001) %MON forcing_fv_sd                =   1.0932280912573E-01
(PID.TID 0000.0001) %MON forcing_fv_del2              =   1.9061033532736E-04
(PID.TID 0000.0001) %MON trAdv_CFL_u_max              =   2.2816358766298E-02
(PID.TID 0000.0001) %MON trAdv_CFL_v_max              =   3.1271410662297E-02
(PID.TID 0000.0001) %MON trAdv_CFL_w_max              =   1.3025236584887E-01
(PID.TID 0000.0001) %MON advcfl_uvel_max              =   2.3174980302648E-02
(PID.TID 0000.0001) %MON advcfl_vvel_max              =   3.1291103507503E-02
(PID.TID 0000.0001) %MON advcfl_wvel_max              =   2.3388311774286E-01
(PID.TID 0000.0001) %MON advcfl_W_hf_max              =   1.3038261821472E-01
(PID.TID 0000.0001) %MON pe_b_mean                    =   1.9989680731118E-03
(PID.TID 0000.0001) %MON ke_max                       =   3.6266513341529E+00
(PID.TID 0000.0001) %MON ke_mean                      =   8.4658147669923E-04
(PID.TID 0000.0001) %MON ke_vol                       =   1.3350064351420E+18
(PID.TID 0000.0001) %MON vort_r_min                   =  -6.2537677337155E-05
(PID.TID 0000.0001) %MON vort_r_max                   =   7.6131788707068E-05
(PID.TID 0000.0001) %MON vort_a_mean                  =  -1.9725062006887E-05
(PID.TID 0000.0001) %MON vort_a_sd                    =   7.4538323113218E-05
(PID.TID 0000.0001) %MON vort_p_mean                  =  -2.1669065501193E-05
(PID.TID 0000.0001) %MON vort_p_sd                    =   9.3611108767502E-05
(PID.TID 0000.0001) %MON surfExpan_theta_mean         =   1.5413701765756E-06
(PID.TID 0000.0001) %MON surfExpan_salt_mean          =  -7.1480394884277E-07
(PID.TID 0000.0001) // =======================================================
(PID.TID 0000.0001) // End MONITOR dynamic field statistics
(PID.TID 0000.0001) // =======================================================
(PID.TID 0000.0001) // =======================================================
(PID.TID 0000.0001) // Begin MONITOR SEAICE statistics
(PID.TID 0000.0001) // =======================================================
(PID.TID 0000.0001) %MON seaice_tsnumber              =                174622
(PID.TID 0000.0001) %MON seaice_time_sec              =   7.8579900000000E+07
(PID.TID 0000.0001) %MON seaice_uice_max              =   2.5979349826529E+00
(PID.TID 0000.0001) %MON seaice_uice_min              =  -3.5307120395255E+00
(PID.TID 0000.0001) %MON seaice_uice_mean             =  -1.3889538055858E-03
(PID.TID 0000.0001) %MON seaice_uice_sd               =   1.8333186611730E-01
(PID.TID 0000.0001) %MON seaice_uice_del2             =   4.8082982180365E-04
(PID.TID 0000.0001) %MON seaice_vice_max              =   2.2816692286303E+00
(PID.TID 0000.0001) %MON seaice_vice_min              =  -2.6563640511400E+00
(PID.TID 0000.0001) %MON seaice_vice_mean             =  -2.2999944228958E-02
(PID.TID 0000.0001) %MON seaice_vice_sd               =   1.9030203942149E-01
(PID.TID 0000.0001) %MON seaice_vice_del2             =   4.7628313178746E-04
(PID.TID 0000.0001) %MON seaice_area_max              =   1.0056514794084E+00
(PID.TID 0000.0001) %MON seaice_area_min              =   0.0000000000000E+00
(PID.TID 0000.0001) %MON seaice_area_mean             =   5.7215442035798E-02
(PID.TID 0000.0001) %MON seaice_area_sd               =   2.2216401856305E-01
(PID.TID 0000.0001) %MON seaice_area_del2             =   3.6651963494592E-04
(PID.TID 0000.0001) %MON seaice_heff_max              =   9.9509512693591E+00
(PID.TID 0000.0001) %MON seaice_heff_min              =   0.0000000000000E+00
(PID.TID 0000.0001) %MON seaice_heff_mean             =   1.5019214372091E-01
(PID.TID 0000.0001) %MON seaice_heff_sd               =   7.2191088029646E-01
(PID.TID 0000.0001) %MON seaice_heff_del2             =   1.6552286025689E-03
(PID.TID 0000.0001) %MON seaice_hsnow_max             =   3.2868063726023E+00
(PID.TID 0000.0001) %MON seaice_hsnow_min             =   0.0000000000000E+00
(PID.TID 0000.0001) %MON seaice_hsnow_mean            =   1.2775370897616E-02
(PID.TID 0000.0001) %MON seaice_hsnow_sd              =   7.0118331853870E-02
(PID.TID 0000.0001) %MON seaice_hsnow_del2            =   4.6998734307231E-04
(PID.TID 0000.0001) // =======================================================
(PID.TID 0000.0001) // End MONITOR SEAICE statistics
(PID.TID 0000.0001) // =======================================================
(PID.TID 0000.0001) // =======================================================
(PID.TID 0000.0001) // Begin MONITOR dynamic field statistics
(PID.TID 0000.0001) // =======================================================
(PID.TID 0000.0001) %MON time_tsnumber                =                174623
(PID.TID 0000.0001) %MON time_secondsf                =   7.8580350000000E+07
(PID.TID 0000.0001) %MON dynstat_eta_max              =   3.9081952331653E+00
(PID.TID 0000.0001) %MON dynstat_eta_min              =  -1.2409327981178E+01
(PID.TID 0000.0001) %MON dynstat_eta_mean             =   6.5593994075252E-02
(PID.TID 0000.0001) %MON dynstat_eta_sd               =   8.1215128684152E-01
(PID.TID 0000.0001) %MON dynstat_eta_del2             =   2.1784077709971E-03
(PID.TID 0000.0001) %MON dynstat_uvel_max             =   2.4087578526762E+00
(PID.TID 0000.0001) %MON dynstat_uvel_min             =  -3.5544688068650E+00
(PID.TID 0000.0001) %MON dynstat_uvel_mean            =   1.5266222952990E-03
(PID.TID 0000.0001) %MON dynstat_uvel_sd              =   2.9675793629727E-02
(PID.TID 0000.0001) %MON dynstat_uvel_del2            =   2.4477440945815E-05
(PID.TID 0000.0001) %MON dynstat_vvel_max             =   2.1313659457856E+00
(PID.TID 0000.0001) %MON dynstat_vvel_min             =  -2.6194855242973E+00
(PID.TID 0000.0001) %MON dynstat_vvel_mean            =  -1.6826384731109E-04
(PID.TID 0000.0001) %MON dynstat_vvel_sd              =   2.9604414596815E-02
(PID.TID 0000.0001) %MON dynstat_vvel_del2            =   2.4353018229786E-05
(PID.TID 0000.0001) %MON dynstat_wvel_max             =   4.6404692545583E-03
(PID.TID 0000.0001) %MON dynstat_wvel_min             =  -4.8637645756070E-03
(PID.TID 0000.0001) %MON dynstat_wvel_mean            =  -3.2731254352263E-07
(PID.TID 0000.0001) %MON dynstat_wvel_sd              =   6.6997351901530E-05
(PID.TID 0000.0001) %MON dynstat_wvel_del2            =   1.0825065603947E-07
(PID.TID 0000.0001) %MON dynstat_theta_max            =   3.2255563224048E+01
(PID.TID 0000.0001) %MON dynstat_theta_min            =  -1.9891697219065E+00
(PID.TID 0000.0001) %MON dynstat_theta_mean           =   3.5922901931096E+00
(PID.TID 0000.0001) %MON dynstat_theta_sd             =   4.4422982863171E+00
(PID.TID 0000.0001) %MON dynstat_theta_del2           =   1.1730778456716E-04
(PID.TID 0000.0001) %MON dynstat_salt_max             =   4.0655996255366E+01
(PID.TID 0000.0001) %MON dynstat_salt_min             =   1.6348566413019E+01
(PID.TID 0000.0001) %MON dynstat_salt_mean            =   3.4724887194002E+01
(PID.TID 0000.0001) %MON dynstat_salt_sd              =   3.7946123204766E-01
(PID.TID 0000.0001) %MON dynstat_salt_del2            =   8.4881036447046E-05
(PID.TID 0000.0001) %MON dynstat_sst_max              =   3.2255563224048E+01
(PID.TID 0000.0001) %MON dynstat_sst_min              =  -1.9891697219065E+00
(PID.TID 0000.0001) %MON dynstat_sst_mean             =   1.8182119270706E+01
(PID.TID 0000.0001) %MON dynstat_sst_sd               =   1.0132788759264E+01
(PID.TID 0000.0001) %MON dynstat_sst_del2             =   1.1336230852623E-03
(PID.TID 0000.0001) %MON dynstat_sss_max              =   3.9484857791760E+01
(PID.TID 0000.0001) %MON dynstat_sss_min              =   1.6348566413019E+01
(PID.TID 0000.0001) %MON dynstat_sss_mean             =   3.4657932630156E+01
(PID.TID 0000.0001) %MON dynstat_sss_sd               =   1.2752171309450E+00
(PID.TID 0000.0001) %MON dynstat_sss_del2             =   1.5418204527037E-03
(PID.TID 0000.0001) %MON forcing_qnet_max             =   1.0019061439008E+04
(PID.TID 0000.0001) %MON forcing_qnet_min             =  -6.6053159179688E+03
(PID.TID 0000.0001) %MON forcing_qnet_mean            =  -5.1638779106618E+01
(PID.TID 0000.0001) %MON forcing_qnet_sd              =   2.9281973160670E+02
(PID.TID 0000.0001) %MON forcing_qnet_del2            =   1.5944398742664E+00
(PID.TID 0000.0001) %MON forcing_qsw_max              =   0.0000000000000E+00
(PID.TID 0000.0001) %MON forcing_qsw_min              =  -1.2254903430242E+02
(PID.TID 0000.0001) %MON forcing_qsw_mean             =  -1.8356916085776E+01
(PID.TID 0000.0001) %MON forcing_qsw_sd               =   2.8823502525645E+01
(PID.TID 0000.0001) %MON forcing_qsw_del2             =   2.4845263567078E-02
(PID.TID 0000.0001) %MON forcing_empmr_max            =   3.2801594585180E-02
(PID.TID 0000.0001) %MON forcing_empmr_min            =  -6.1849795281887E-02
(PID.TID 0000.0001) %MON forcing_empmr_mean           =   3.4306489297227E-05
(PID.TID 0000.0001) %MON forcing_empmr_sd             =   5.8367823801333E-04
(PID.TID 0000.0001) %MON forcing_empmr_del2           =   6.4294467340095E-06
(PID.TID 0000.0001) %MON forcing_fu_max               =   1.1947922333851E+00
(PID.TID 0000.0001) %MON forcing_fu_min               =  -9.3041838755713E-01
(PID.TID 0000.0001) %MON forcing_fu_mean              =   8.3593662541664E-03
(PID.TID 0000.0001) %MON forcing_fu_sd                =   1.1084258468429E-01
(PID.TID 0000.0001) %MON forcing_fu_del2              =   1.8205696334115E-04
(PID.TID 0000.0001) %MON forcing_fv_max               =   1.7335693554246E+00
(PID.TID 0000.0001) %MON forcing_fv_min               =  -1.3934637606609E+00
(PID.TID 0000.0001) %MON forcing_fv_mean              =  -1.9016065785719E-03
(PID.TID 0000.0001) %MON forcing_fv_sd                =   1.0924874420083E-01
(PID.TID 0000.0001) %MON forcing_fv_del2              =   1.8643759360740E-04
(PID.TID 0000.0001) %MON trAdv_CFL_u_max              =   2.4730572336086E-02
(PID.TID 0000.0001) %MON trAdv_CFL_v_max              =   3.0962184461652E-02
(PID.TID 0000.0001) %MON trAdv_CFL_w_max              =   1.2980436841417E-01
(PID.TID 0000.0001) %MON advcfl_uvel_max              =   2.5119280978724E-02
(PID.TID 0000.0001) %MON advcfl_vvel_max              =   3.0981682574878E-02
(PID.TID 0000.0001) %MON advcfl_wvel_max              =   2.1871964224617E-01
(PID.TID 0000.0001) %MON advcfl_W_hf_max              =   1.2993417278258E-01
(PID.TID 0000.0001) %MON pe_b_mean                    =   1.9928272524942E-03
(PID.TID 0000.0001) %MON ke_max                       =   3.6925630778695E+00
(PID.TID 0000.0001) %MON ke_mean                      =   8.4838477341551E-04
(PID.TID 0000.0001) %MON ke_vol                       =   1.3350064351420E+18
(PID.TID 0000.0001) %MON vort_r_min                   =  -6.3577408171396E-05
(PID.TID 0000.0001) %MON vort_r_max                   =   8.6245320803302E-05
(PID.TID 0000.0001) %MON vort_a_mean                  =  -1.9725062511812E-05
(PID.TID 0000.0001) %MON vort_a_sd                    =   7.4538329476240E-05
(PID.TID 0000.0001) %MON vort_p_mean                  =  -2.1669066055882E-05
(PID.TID 0000.0001) %MON vort_p_sd                    =   9.3611046699150E-05
(PID.TID 0000.0001) %MON surfExpan_theta_mean         =   1.8911140468642E-06
(PID.TID 0000.0001) %MON surfExpan_salt_mean          =  -9.9881343559001E-07
(PID.TID 0000.0001) // =======================================================
(PID.TID 0000.0001) // End MONITOR dynamic field statistics
(PID.TID 0000.0001) // =======================================================
(PID.TID 0000.0001) // =======================================================
(PID.TID 0000.0001) // Begin MONITOR SEAICE statistics
(PID.TID 0000.0001) // =======================================================
(PID.TID 0000.0001) %MON seaice_tsnumber              =                174623
(PID.TID 0000.0001) %MON seaice_time_sec              =   7.8580350000000E+07
(PID.TID 0000.0001) %MON seaice_uice_max              =   2.5075070615304E+00
(PID.TID 0000.0001) %MON seaice_uice_min              =  -3.5520381668907E+00
(PID.TID 0000.0001) %MON seaice_uice_mean             =  -1.3294001897628E-03
(PID.TID 0000.0001) %MON seaice_uice_sd               =   1.8242627005168E-01
(PID.TID 0000.0001) %MON seaice_uice_del2             =   4.7284470567620E-04
(PID.TID 0000.0001) %MON seaice_vice_max              =   2.2058754202469E+00
(PID.TID 0000.0001) %MON seaice_vice_min              =  -2.6442579940178E+00
(PID.TID 0000.0001) %MON seaice_vice_mean             =  -2.3313479879506E-02
(PID.TID 0000.0001) %MON seaice_vice_sd               =   1.8934566373732E-01
(PID.TID 0000.0001) %MON seaice_vice_del2             =   4.6657991442654E-04
(PID.TID 0000.0001) %MON seaice_area_max              =   1.0051607996090E+00
(PID.TID 0000.0001) %MON seaice_area_min              =   0.0000000000000E+00
(PID.TID 0000.0001) %MON seaice_area_mean             =   5.7216516307923E-02
(PID.TID 0000.0001) %MON seaice_area_sd               =   2.2215561565838E-01
(PID.TID 0000.0001) %MON seaice_area_del2             =   3.6539154022504E-04
(PID.TID 0000.0001) %MON seaice_heff_max              =   9.9509024705644E+00
(PID.TID 0000.0001) %MON seaice_heff_min              =   0.0000000000000E+00
(PID.TID 0000.0001) %MON seaice_heff_mean             =   1.5019371426665E-01
(PID.TID 0000.0001) %MON seaice_heff_sd               =   7.2191537133854E-01
(PID.TID 0000.0001) %MON seaice_heff_del2             =   1.6512624314597E-03
(PID.TID 0000.0001) %MON seaice_hsnow_max             =   3.2867906674380E+00
(PID.TID 0000.0001) %MON seaice_hsnow_min             =   0.0000000000000E+00
(PID.TID 0000.0001) %MON seaice_hsnow_mean            =   1.2774644428321E-02
(PID.TID 0000.0001) %MON seaice_hsnow_sd              =   7.0096021824815E-02
(PID.TID 0000.0001) %MON seaice_hsnow_del2            =   4.6867540058575E-04
(PID.TID 0000.0001) // =======================================================
(PID.TID 0000.0001) // End MONITOR SEAICE statistics
(PID.TID 0000.0001) // =======================================================
(PID.TID 0000.0001) // =======================================================
(PID.TID 0000.0001) // Begin MONITOR dynamic field statistics
(PID.TID 0000.0001) // =======================================================
(PID.TID 0000.0001) %MON time_tsnumber                =                174624
(PID.TID 0000.0001) %MON time_secondsf                =   7.8580800000000E+07
(PID.TID 0000.0001) %MON dynstat_eta_max              =   4.0700419973026E+00
(PID.TID 0000.0001) %MON dynstat_eta_min              =  -1.2766747640009E+01
(PID.TID 0000.0001) %MON dynstat_eta_mean             =   6.5483065181857E-02
(PID.TID 0000.0001) %MON dynstat_eta_sd               =   8.1138618736200E-01
(PID.TID 0000.0001) %MON dynstat_eta_del2             =   2.1725731036636E-03
(PID.TID 0000.0001) %MON dynstat_uvel_max             =   2.3025858773752E+00
(PID.TID 0000.0001) %MON dynstat_uvel_min             =  -3.5376747099382E+00
(PID.TID 0000.0001) %MON dynstat_uvel_mean            =   1.5155708596155E-03
(PID.TID 0000.0001) %MON dynstat_uvel_sd              =   2.9776983972330E-02
(PID.TID 0000.0001) %MON dynstat_uvel_del2            =   2.4389431303979E-05
(PID.TID 0000.0001) %MON dynstat_vvel_max             =   2.1285331187536E+00
(PID.TID 0000.0001) %MON dynstat_vvel_min             =  -2.5817186088642E+00
(PID.TID 0000.0001) %MON dynstat_vvel_mean            =  -2.4471021251593E-04
(PID.TID 0000.0001) %MON dynstat_vvel_sd              =   2.9556991225677E-02
(PID.TID 0000.0001) %MON dynstat_vvel_del2            =   2.4247410290760E-05
(PID.TID 0000.0001) %MON dynstat_wvel_max             =   4.3480942861609E-03
(PID.TID 0000.0001) %MON dynstat_wvel_min             =  -4.9697092915538E-03
(PID.TID 0000.0001) %MON dynstat_wvel_mean            =  -3.3284472362688E-07
(PID.TID 0000.0001) %MON dynstat_wvel_sd              =   6.7029152210164E-05
(PID.TID 0000.0001) %MON dynstat_wvel_del2            =   1.0858233571303E-07
(PID.TID 0000.0001) %MON dynstat_theta_max            =   3.2261476064095E+01
(PID.TID 0000.0001) %MON dynstat_theta_min            =  -1.9905203762401E+00
(PID.TID 0000.0001) %MON dynstat_theta_mean           =   3.5922913960195E+00
(PID.TID 0000.0001) %MON dynstat_theta_sd             =   4.4423093716758E+00
(PID.TID 0000.0001) %MON dynstat_theta_del2           =   1.1734601064647E-04
(PID.TID 0000.0001) %MON dynstat_salt_max             =   4.0655996201627E+01
(PID.TID 0000.0001) %MON dynstat_salt_min             =   1.6345765861449E+01
(PID.TID 0000.0001) %MON dynstat_salt_mean            =   3.4724885979532E+01
(PID.TID 0000.0001) %MON dynstat_salt_sd              =   3.7946354383745E-01
(PID.TID 0000.0001) %MON dynstat_salt_del2            =   8.4637396769885E-05
(PID.TID 0000.0001) %MON dynstat_sst_max              =   3.2261476064095E+01
(PID.TID 0000.0001) %MON dynstat_sst_min              =  -1.9905203762401E+00
(PID.TID 0000.0001) %MON dynstat_sst_mean             =   1.8182143824638E+01
(PID.TID 0000.0001) %MON dynstat_sst_sd               =   1.0133336992714E+01
(PID.TID 0000.0001) %MON dynstat_sst_del2             =   1.1369545725542E-03
(PID.TID 0000.0001) %MON dynstat_sss_max              =   3.9484472215902E+01
(PID.TID 0000.0001) %MON dynstat_sss_min              =   1.6345765861449E+01
(PID.TID 0000.0001) %MON dynstat_sss_mean             =   3.4657796298857E+01
(PID.TID 0000.0001) %MON dynstat_sss_sd               =   1.2753829974552E+00
(PID.TID 0000.0001) %MON dynstat_sss_del2             =   1.5392077349079E-03
(PID.TID 0000.0001) %MON forcing_qnet_max             =   7.5066054083846E+03
(PID.TID 0000.0001) %MON forcing_qnet_min             =  -8.4055947265625E+03
(PID.TID 0000.0001) %MON forcing_qnet_mean            =  -4.9486089322868E+01
(PID.TID 0000.0001) %MON forcing_qnet_sd              =   2.9388575985392E+02
(PID.TID 0000.0001) %MON forcing_qnet_del2            =   1.5998279106325E+00
(PID.TID 0000.0001) %MON forcing_qsw_max              =   0.0000000000000E+00
(PID.TID 0000.0001) %MON forcing_qsw_min              =  -1.1991673322196E+02
(PID.TID 0000.0001) %MON forcing_qsw_mean             =  -1.8256664305786E+01
(PID.TID 0000.0001) %MON forcing_qsw_sd               =   2.8838565223209E+01
(PID.TID 0000.0001) %MON forcing_qsw_del2             =   2.4740673107194E-02
(PID.TID 0000.0001) %MON forcing_empmr_max            =   3.2985597848892E-02
(PID.TID 0000.0001) %MON forcing_empmr_min            =  -6.1940040439367E-02
(PID.TID 0000.0001) %MON forcing_empmr_mean           =   3.3558050882901E-05
(PID.TID 0000.0001) %MON forcing_empmr_sd             =   5.8122286602271E-04
(PID.TID 0000.0001) %MON forcing_empmr_del2           =   6.4015105545230E-06
(PID.TID 0000.0001) %MON forcing_fu_max               =   1.1848405038822E+00
(PID.TID 0000.0001) %MON forcing_fu_min               =  -9.1116964739841E-01
(PID.TID 0000.0001) %MON forcing_fu_mean              =   8.4020148724360E-03
(PID.TID 0000.0001) %MON forcing_fu_sd                =   1.1092540520090E-01
(PID.TID 0000.0001) %MON forcing_fu_del2              =   1.8106498860868E-04
(PID.TID 0000.0001) %MON forcing_fv_max               =   1.5040823576781E+00
(PID.TID 0000.0001) %MON forcing_fv_min               =  -1.3784949813493E+00
(PID.TID 0000.0001) %MON forcing_fv_mean              =  -1.9267811156307E-03
(PID.TID 0000.0001) %MON forcing_fv_sd                =   1.0919600856996E-01
(PID.TID 0000.0001) %MON forcing_fv_del2              =   1.8237077120025E-04
(PID.TID 0000.0001) %MON trAdv_CFL_u_max              =   2.6267542225736E-02
(PID.TID 0000.0001) %MON trAdv_CFL_v_max              =   2.9808190693549E-02
(PID.TID 0000.0001) %MON trAdv_CFL_w_max              =   1.2640218709482E-01
(PID.TID 0000.0001) %MON advcfl_uvel_max              =   2.6680408557547E-02
(PID.TID 0000.0001) %MON advcfl_vvel_max              =   2.9826962091217E-02
(PID.TID 0000.0001) %MON advcfl_wvel_max              =   2.0567947869028E-01
(PID.TID 0000.0001) %MON advcfl_W_hf_max              =   1.2652858928191E-01
(PID.TID 0000.0001) %MON pe_b_mean                    =   1.9870633581205E-03
(PID.TID 0000.0001) %MON ke_max                       =   3.7201022756586E+00
(PID.TID 0000.0001) %MON ke_mean                      =   8.4993117529316E-04
(PID.TID 0000.0001) %MON ke_vol                       =   1.3350064351420E+18
(PID.TID 0000.0001) %MON vort_r_min                   =  -6.3152128014648E-05
(PID.TID 0000.0001) %MON vort_r_max                   =   9.4768871596287E-05
(PID.TID 0000.0001) %MON vort_a_mean                  =  -1.9725063166418E-05
(PID.TID 0000.0001) %MON vort_a_sd                    =   7.4538334924322E-05
(PID.TID 0000.0001) %MON vort_p_mean                  =  -2.1669066775002E-05
(PID.TID 0000.0001) %MON vort_p_sd                    =   9.3610970525878E-05
(PID.TID 0000.0001) %MON surfExpan_theta_mean         =   2.2798514508376E-06
(PID.TID 0000.0001) %MON surfExpan_salt_mean          =  -1.3369820153309E-06
(PID.TID 0000.0001) // =======================================================
(PID.TID 0000.0001) // End MONITOR dynamic field statistics
(PID.TID 0000.0001) // =======================================================
(PID.TID 0000.0001) // =======================================================
(PID.TID 0000.0001) // Begin MONITOR SEAICE statistics
(PID.TID 0000.0001) // =======================================================
(PID.TID 0000.0001) %MON seaice_tsnumber              =                174624
(PID.TID 0000.0001) %MON seaice_time_sec              =   7.8580800000000E+07
(PID.TID 0000.0001) %MON seaice_uice_max              =   2.4087578526762E+00
(PID.TID 0000.0001) %MON seaice_uice_min              =  -3.5544688068650E+00
(PID.TID 0000.0001) %MON seaice_uice_mean             =  -1.2723194267767E-03
(PID.TID 0000.0001) %MON seaice_uice_sd               =   1.8157234801053E-01
(PID.TID 0000.0001) %MON seaice_uice_del2             =   4.6540540300913E-04
(PID.TID 0000.0001) %MON seaice_vice_max              =   2.1313659457856E+00
(PID.TID 0000.0001) %MON seaice_vice_min              =  -2.6194855242973E+00
(PID.TID 0000.0001) %MON seaice_vice_mean             =  -2.3621696140066E-02
(PID.TID 0000.0001) %MON seaice_vice_sd               =   1.8846906652320E-01
(PID.TID 0000.0001) %MON seaice_vice_del2             =   4.5901929056538E-04
(PID.TID 0000.0001) %MON seaice_area_max              =   1.0051786603247E+00
(PID.TID 0000.0001) %MON seaice_area_min              =   0.0000000000000E+00
(PID.TID 0000.0001) %MON seaice_area_mean             =   5.7217576181248E-02
(PID.TID 0000.0001) %MON seaice_area_sd               =   2.2214733704527E-01
(PID.TID 0000.0001) %MON seaice_area_del2             =   3.6430032569957E-04
(PID.TID 0000.0001) %MON seaice_heff_max              =   9.9508565106797E+00
(PID.TID 0000.0001) %MON seaice_heff_min              =   0.0000000000000E+00
(PID.TID 0000.0001) %MON seaice_heff_mean             =   1.5019511025994E-01
(PID.TID 0000.0001) %MON seaice_heff_sd               =   7.2192052089664E-01
(PID.TID 0000.0001) %MON seaice_heff_del2             =   1.6474781442395E-03
(PID.TID 0000.0001) %MON seaice_hsnow_max             =   3.2867761803769E+00
(PID.TID 0000.0001) %MON seaice_hsnow_min             =   0.0000000000000E+00
(PID.TID 0000.0001) %MON seaice_hsnow_mean            =   1.2773939664829E-02
(PID.TID 0000.0001) %MON seaice_hsnow_sd              =   7.0075742843876E-02
(PID.TID 0000.0001) %MON seaice_hsnow_del2            =   4.6743657429402E-04
(PID.TID 0000.0001) // =======================================================
(PID.TID 0000.0001) // End MONITOR SEAICE statistics
(PID.TID 0000.0001) // =======================================================
(PID.TID 0000.0001) // =======================================================
(PID.TID 0000.0001) // Begin MONITOR dynamic field statistics
(PID.TID 0000.0001) // =======================================================
(PID.TID 0000.0001) %MON time_tsnumber                =                174625
(PID.TID 0000.0001) %MON time_secondsf                =   7.8581250000000E+07
(PID.TID 0000.0001) %MON dynstat_eta_max              =   4.1934069413332E+00
(PID.TID 0000.0001) %MON dynstat_eta_min              =  -1.2967321805429E+01
(PID.TID 0000.0001) %MON dynstat_eta_mean             =   6.5369131234822E-02
(PID.TID 0000.0001) %MON dynstat_eta_sd               =   8.1079614844737E-01
(PID.TID 0000.0001) %MON dynstat_eta_del2             =   2.1656638606964E-03
(PID.TID 0000.0001) %MON dynstat_uvel_max             =   2.3309170093582E+00
(PID.TID 0000.0001) %MON dynstat_uvel_min             =  -3.4875097892211E+00
(PID.TID 0000.0001) %MON dynstat_uvel_mean            =   1.5014268664243E-03
(PID.TID 0000.0001) %MON dynstat_uvel_sd              =   2.9870644052451E-02
(PID.TID 0000.0001) %MON dynstat_uvel_del2            =   2.4326810013071E-05
(PID.TID 0000.0001) %MON dynstat_vvel_max             =   2.1819453278045E+00
(PID.TID 0000.0001) %MON dynstat_vvel_min             =  -2.5315602620819E+00
(PID.TID 0000.0001) %MON dynstat_vvel_mean            =  -3.2032024498316E-04
(PID.TID 0000.0001) %MON dynstat_vvel_sd              =   2.9506397089191E-02
(PID.TID 0000.0001) %MON dynstat_vvel_del2            =   2.4189010276361E-05
(PID.TID 0000.0001) %MON dynstat_wvel_max             =   4.0503842895646E-03
(PID.TID 0000.0001) %MON dynstat_wvel_min             =  -5.0599441696815E-03
(PID.TID 0000.0001) %MON dynstat_wvel_mean            =  -3.3771573014026E-07
(PID.TID 0000.0001) %MON dynstat_wvel_sd              =   6.7034794584901E-05
(PID.TID 0000.0001) %MON dynstat_wvel_del2            =   1.0881662658269E-07
(PID.TID 0000.0001) %MON dynstat_theta_max            =   3.2267377357409E+01
(PID.TID 0000.0001) %MON dynstat_theta_min            =  -1.9918579806982E+00
(PID.TID 0000.0001) %MON dynstat_theta_mean           =   3.5922924754865E+00
(PID.TID 0000.0001) %MON dynstat_theta_sd             =   4.4423200503566E+00
(PID.TID 0000.0001) %MON dynstat_theta_del2           =   1.1736508108592E-04
(PID.TID 0000.0001) %MON dynstat_salt_max             =   4.0655996150124E+01
(PID.TID 0000.0001) %MON dynstat_salt_min             =   1.6342615070631E+01
(PID.TID 0000.0001) %MON dynstat_salt_mean            =   3.4724884782678E+01
(PID.TID 0000.0001) %MON dynstat_salt_sd              =   3.7946587452263E-01
(PID.TID 0000.0001) %MON dynstat_salt_del2            =   8.4399430513820E-05
(PID.TID 0000.0001) %MON dynstat_sst_max              =   3.2267377357409E+01
(PID.TID 0000.0001) %MON dynstat_sst_min              =  -1.9918579806982E+00
(PID.TID 0000.0001) %MON dynstat_sst_mean             =   1.8182162387058E+01
(PID.TID 0000.0001) %MON dynstat_sst_sd               =   1.0133868477553E+01
(PID.TID 0000.0001) %MON dynstat_sst_del2             =   1.1390439467384E-03
(PID.TID 0000.0001) %MON dynstat_sss_max              =   3.9484131953393E+01
(PID.TID 0000.0001) %MON dynstat_sss_min              =   1.6342615070631E+01
(PID.TID 0000.0001) %MON dynstat_sss_mean             =   3.4657663524072E+01
(PID.TID 0000.0001) %MON dynstat_sss_sd               =   1.2755511254429E+00
(PID.TID 0000.0001) %MON dynstat_sss_del2             =   1.5365080479322E-03
(PID.TID 0000.0001) %MON forcing_qnet_max             =   6.4970771484375E+03
(PID.TID 0000.0001) %MON forcing_qnet_min             =  -1.8843412109375E+04
(PID.TID 0000.0001) %MON forcing_qnet_mean            =  -4.7038828855078E+01
(PID.TID 0000.0001) %MON forcing_qnet_sd              =   2.9894854032839E+02
(PID.TID 0000.0001) %MON forcing_qnet_del2            =   1.8681130989303E+00
(PID.TID 0000.0001) %MON forcing_qsw_max              =   0.0000000000000E+00
(PID.TID 0000.0001) %MON forcing_qsw_min              =  -1.1717134668895E+02
(PID.TID 0000.0001) %MON forcing_qsw_mean             =  -1.8143950256450E+01
(PID.TID 0000.0001) %MON forcing_qsw_sd               =   2.8847815759646E+01
(PID.TID 0000.0001) %MON forcing_qsw_del2             =   2.4622407661727E-02
(PID.TID 0000.0001) %MON forcing_empmr_max            =   3.3126950263977E-02
(PID.TID 0000.0001) %MON forcing_empmr_min            =  -6.1273120343685E-02
(PID.TID 0000.0001) %MON forcing_empmr_mean           =   3.3053660061372E-05
(PID.TID 0000.0001) %MON forcing_empmr_sd             =   5.7853942612937E-04
(PID.TID 0000.0001) %MON forcing_empmr_del2           =   6.3599425317911E-06
(PID.TID 0000.0001) %MON forcing_fu_max               =   1.2464971418843E+00
(PID.TID 0000.0001) %MON forcing_fu_min               =  -9.0614913927911E-01
(PID.TID 0000.0001) %MON forcing_fu_mean              =   8.4366905415548E-03
(PID.TID 0000.0001) %MON forcing_fu_sd                =   1.1099394227095E-01
(PID.TID 0000.0001) %MON forcing_fu_del2              =   1.7994236546266E-04
(PID.TID 0000.0001) %MON forcing_fv_max               =   1.2568558495185E+00
(PID.TID 0000.0001) %MON forcing_fv_min               =  -1.3559800195497E+00
(PID.TID 0000.0001) %MON forcing_fv_mean              =  -1.9484329946453E-03
(PID.TID 0000.0001) %MON forcing_fv_sd                =   1.0915073994026E-01
(PID.TID 0000.0001) %MON forcing_fv_del2              =   1.7883580698671E-04
(PID.TID 0000.0001) %MON trAdv_CFL_u_max              =   2.7523952991651E-02
(PID.TID 0000.0001) %MON trAdv_CFL_v_max              =   3.0253084134851E-02
(PID.TID 0000.0001) %MON trAdv_CFL_w_max              =   1.2037596600766E-01
(PID.TID 0000.0001) %MON advcfl_uvel_max              =   2.7956567257994E-02
(PID.TID 0000.0001) %MON advcfl_vvel_max              =   3.0283609718078E-02
(PID.TID 0000.0001) %MON advcfl_wvel_max              =   1.9716474933018E-01
(PID.TID 0000.0001) %MON advcfl_W_hf_max              =   1.2049634197367E-01
(PID.TID 0000.0001) %MON pe_b_mean                    =   1.9816860893583E-03
(PID.TID 0000.0001) %MON ke_max                       =   3.6837948995829E+00
(PID.TID 0000.0001) %MON ke_mean                      =   8.5118347977121E-04
(PID.TID 0000.0001) %MON ke_vol                       =   1.3350064351420E+18
(PID.TID 0000.0001) %MON vort_r_min                   =  -6.5849043792203E-05
(PID.TID 0000.0001) %MON vort_r_max                   =   1.0202393957387E-04
(PID.TID 0000.0001) %MON vort_a_mean                  =  -1.9725063955932E-05
(PID.TID 0000.0001) %MON vort_a_sd                    =   7.4538339416390E-05
(PID.TID 0000.0001) %MON vort_p_mean                  =  -2.1669067642327E-05
(PID.TID 0000.0001) %MON vort_p_sd                    =   9.3610881979564E-05
(PID.TID 0000.0001) %MON surfExpan_theta_mean         =   2.7096434331317E-06
(PID.TID 0000.0001) %MON surfExpan_salt_mean          =  -1.6979701599898E-06
(PID.TID 0000.0001) // =======================================================
(PID.TID 0000.0001) // End MONITOR dynamic field statistics
(PID.TID 0000.0001) // =======================================================
(PID.TID 0000.0001) // =======================================================
(PID.TID 0000.0001) // Begin MONITOR SEAICE statistics
(PID.TID 0000.0001) // =======================================================
(PID.TID 0000.0001) %MON seaice_tsnumber              =                174625
(PID.TID 0000.0001) %MON seaice_time_sec              =   7.8581250000000E+07
(PID.TID 0000.0001) %MON seaice_uice_max              =   2.3025858773752E+00
(PID.TID 0000.0001) %MON seaice_uice_min              =  -3.5376747099382E+00
(PID.TID 0000.0001) %MON seaice_uice_mean             =  -1.2260705414100E-03
(PID.TID 0000.0001) %MON seaice_uice_sd               =   1.8077890704075E-01
(PID.TID 0000.0001) %MON seaice_uice_del2             =   4.5838924335173E-04
(PID.TID 0000.0001) %MON seaice_vice_max              =   2.2750050128042E+00
(PID.TID 0000.0001) %MON seaice_vice_min              =  -2.5817186088642E+00
(PID.TID 0000.0001) %MON seaice_vice_mean             =  -2.3936105964322E-02
(PID.TID 0000.0001) %MON seaice_vice_sd               =   1.8764785512319E-01
(PID.TID 0000.0001) %MON seaice_vice_del2             =   4.5349220399683E-04
(PID.TID 0000.0001) %MON seaice_area_max              =   1.0051535285611E+00
(PID.TID 0000.0001) %MON seaice_area_min              =   0.0000000000000E+00
(PID.TID 0000.0001) %MON seaice_area_mean             =   5.7218626322027E-02
(PID.TID 0000.0001) %MON seaice_area_sd               =   2.2213927298430E-01
(PID.TID 0000.0001) %MON seaice_area_del2             =   3.6325499147976E-04
(PID.TID 0000.0001) %MON seaice_heff_max              =   9.9508114937299E+00
(PID.TID 0000.0001) %MON seaice_heff_min              =   0.0000000000000E+00
(PID.TID 0000.0001) %MON seaice_heff_mean             =   1.5019634292443E-01
(PID.TID 0000.0001) %MON seaice_heff_sd               =   7.2192641895821E-01
(PID.TID 0000.0001) %MON seaice_heff_del2             =   1.6438885796918E-03
(PID.TID 0000.0001) %MON seaice_hsnow_max             =   3.2867612003076E+00
(PID.TID 0000.0001) %MON seaice_hsnow_min             =   0.0000000000000E+00
(PID.TID 0000.0001) %MON seaice_hsnow_mean            =   1.2773248448976E-02
(PID.TID 0000.0001) %MON seaice_hsnow_sd              =   7.0057502194096E-02
(PID.TID 0000.0001) %MON seaice_hsnow_del2            =   4.6627498538144E-04
(PID.TID 0000.0001) // =======================================================
(PID.TID 0000.0001) // End MONITOR SEAICE statistics
(PID.TID 0000.0001) // =======================================================
(PID.TID 0000.0001) // =======================================================
(PID.TID 0000.0001) // Begin MONITOR dynamic field statistics
(PID.TID 0000.0001) // =======================================================
(PID.TID 0000.0001) %MON time_tsnumber                =                174626
(PID.TID 0000.0001) %MON time_secondsf                =   7.8581700000000E+07
(PID.TID 0000.0001) %MON dynstat_eta_max              =   4.2371712485781E+00
(PID.TID 0000.0001) %MON dynstat_eta_min              =  -1.3006191123854E+01
(PID.TID 0000.0001) %MON dynstat_eta_mean             =   6.5252771308569E-02
(PID.TID 0000.0001) %MON dynstat_eta_sd               =   8.1039041640622E-01
(PID.TID 0000.0001) %MON dynstat_eta_del2             =   2.1578417162571E-03
(PID.TID 0000.0001) %MON dynstat_uvel_max             =   2.4179602623336E+00
(PID.TID 0000.0001) %MON dynstat_uvel_min             =  -3.2473871350032E+00
(PID.TID 0000.0001) %MON dynstat_uvel_mean            =   1.4841106654322E-03
(PID.TID 0000.0001) %MON dynstat_uvel_sd              =   2.9954131536323E-02
(PID.TID 0000.0001) %MON dynstat_uvel_del2            =   2.4284448185041E-05
(PID.TID 0000.0001) %MON dynstat_vvel_max             =   2.1715151986070E+00
(PID.TID 0000.0001) %MON dynstat_vvel_min             =  -2.3442250384683E+00
(PID.TID 0000.0001) %MON dynstat_vvel_mean            =  -3.9456098429319E-04
(PID.TID 0000.0001) %MON dynstat_vvel_sd              =   2.9454367416484E-02
(PID.TID 0000.0001) %MON dynstat_vvel_del2            =   2.4168612404022E-05
(PID.TID 0000.0001) %MON dynstat_wvel_max             =   4.2087006480628E-03
(PID.TID 0000.0001) %MON dynstat_wvel_min             =  -5.1410943285373E-03
(PID.TID 0000.0001) %MON dynstat_wvel_mean            =  -3.4152439768832E-07
(PID.TID 0000.0001) %MON dynstat_wvel_sd              =   6.7033966216141E-05
(PID.TID 0000.0001) %MON dynstat_wvel_del2            =   1.0900977551667E-07
(PID.TID 0000.0001) %MON dynstat_theta_max            =   3.2273255585515E+01
(PID.TID 0000.0001) %MON dynstat_theta_min            =  -1.9931772301998E+00
(PID.TID 0000.0001) %MON dynstat_theta_mean           =   3.5922934175330E+00
(PID.TID 0000.0001) %MON dynstat_theta_sd             =   4.4423300501361E+00
(PID.TID 0000.0001) %MON dynstat_theta_del2           =   1.1741603250450E-04
(PID.TID 0000.0001) %MON dynstat_salt_max             =   4.0655996101607E+01
(PID.TID 0000.0001) %MON dynstat_salt_min             =   1.6339157504002E+01
(PID.TID 0000.0001) %MON dynstat_salt_mean            =   3.4724883602591E+01
(PID.TID 0000.0001) %MON dynstat_salt_sd              =   3.7946817925544E-01
(PID.TID 0000.0001) %MON dynstat_salt_del2            =   8.4166614270171E-05
(PID.TID 0000.0001) %MON dynstat_sst_max              =   3.2273255585515E+01
(PID.TID 0000.0001) %MON dynstat_sst_min              =  -1.9931772301998E+00
(PID.TID 0000.0001) %MON dynstat_sst_mean             =   1.8182156313908E+01
(PID.TID 0000.0001) %MON dynstat_sst_sd               =   1.0134388629628E+01
(PID.TID 0000.0001) %MON dynstat_sst_del2             =   1.1430688698186E-03
(PID.TID 0000.0001) %MON dynstat_sss_max              =   3.9483844765250E+01
(PID.TID 0000.0001) %MON dynstat_sss_min              =   1.6339157504002E+01
(PID.TID 0000.0001) %MON dynstat_sss_mean             =   3.4657527225197E+01
(PID.TID 0000.0001) %MON dynstat_sss_sd               =   1.2757237004275E+00
(PID.TID 0000.0001) %MON dynstat_sss_del2             =   1.5340455703275E-03
(PID.TID 0000.0001) %MON forcing_qnet_max             =   4.8861359521190E+03
(PID.TID 0000.0001) %MON forcing_qnet_min             =  -8.6612412109375E+03
(PID.TID 0000.0001) %MON forcing_qnet_mean            =  -4.4277397466302E+01
(PID.TID 0000.0001) %MON forcing_qnet_sd              =   2.8743393517088E+02
(PID.TID 0000.0001) %MON forcing_qnet_del2            =   1.5396703931888E+00
(PID.TID 0000.0001) %MON forcing_qsw_max              =   0.0000000000000E+00
(PID.TID 0000.0001) %MON forcing_qsw_min              =  -1.1431620906101E+02
(PID.TID 0000.0001) %MON forcing_qsw_mean             =  -1.8019291981549E+01
(PID.TID 0000.0001) %MON forcing_qsw_sd               =   2.8850769073935E+01
(PID.TID 0000.0001) %MON forcing_qsw_del2             =   2.4490710045376E-02
(PID.TID 0000.0001) %MON forcing_empmr_max            =   3.3222440630198E-02
(PID.TID 0000.0001) %MON forcing_empmr_min            =  -6.2464360147715E-02
(PID.TID 0000.0001) %MON forcing_empmr_mean           =   3.2354882503796E-05
(PID.TID 0000.0001) %MON forcing_empmr_sd             =   5.7895580197861E-04
(PID.TID 0000.0001) %MON forcing_empmr_del2           =   6.3540271485194E-06
(PID.TID 0000.0001) %MON forcing_fu_max               =   1.2944438417023E+00
(PID.TID 0000.0001) %MON forcing_fu_min               =  -8.9406750424092E-01
(PID.TID 0000.0001) %MON forcing_fu_mean              =   8.4655559608888E-03
(PID.TID 0000.0001) %MON forcing_fu_sd                =   1.1106098369973E-01
(PID.TID 0000.0001) %MON forcing_fu_del2              =   1.7918918138125E-04
(PID.TID 0000.0001) %MON forcing_fv_max               =   1.0090938433748E+00
(PID.TID 0000.0001) %MON forcing_fv_min               =  -1.3287488722162E+00
(PID.TID 0000.0001) %MON forcing_fv_mean              =  -1.9552198999127E-03
(PID.TID 0000.0001) %MON forcing_fv_sd                =   1.0917639476434E-01
(PID.TID 0000.0001) %MON forcing_fv_del2              =   1.7574674148713E-04
(PID.TID 0000.0001) %MON trAdv_CFL_u_max              =   2.8551777832054E-02
(PID.TID 0000.0001) %MON trAdv_CFL_v_max              =   3.0108468423298E-02
(PID.TID 0000.0001) %MON trAdv_CFL_w_max              =   1.1193176159233E-01
(PID.TID 0000.0001) %MON advcfl_uvel_max              =   2.9000547179368E-02
(PID.TID 0000.0001) %MON advcfl_vvel_max              =   3.0138848088215E-02
(PID.TID 0000.0001) %MON advcfl_wvel_max              =   1.7840428795523E-01
(PID.TID 0000.0001) %MON advcfl_W_hf_max              =   1.1201983086266E-01
(PID.TID 0000.0001) %MON pe_b_mean                    =   1.9767073918864E-03
(PID.TID 0000.0001) %MON ke_max                       =   3.3239889455262E+00
(PID.TID 0000.0001) %MON ke_mean                      =   8.5211270949038E-04
(PID.TID 0000.0001) %MON ke_vol                       =   1.3350064351420E+18
(PID.TID 0000.0001) %MON vort_r_min                   =  -6.8378207736397E-05
(PID.TID 0000.0001) %MON vort_r_max                   =   1.0815895637499E-04
(PID.TID 0000.0001) %MON vort_a_mean                  =  -1.9725064866243E-05
(PID.TID 0000.0001) %MON vort_a_sd                    =   7.4538342937834E-05
(PID.TID 0000.0001) %MON vort_p_mean                  =  -2.1669068642353E-05
(PID.TID 0000.0001) %MON vort_p_sd                    =   9.3610782912824E-05
(PID.TID 0000.0001) %MON surfExpan_theta_mean         =   3.1818280950044E-06
(PID.TID 0000.0001) %MON surfExpan_salt_mean          =  -2.0529550589669E-06
(PID.TID 0000.0001) // =======================================================
(PID.TID 0000.0001) // End MONITOR dynamic field statistics
(PID.TID 0000.0001) // =======================================================
(PID.TID 0000.0001) // =======================================================
(PID.TID 0000.0001) // Begin MONITOR SEAICE statistics
(PID.TID 0000.0001) // =======================================================
(PID.TID 0000.0001) %MON seaice_tsnumber              =                174626
(PID.TID 0000.0001) %MON seaice_time_sec              =   7.8581700000000E+07
(PID.TID 0000.0001) %MON seaice_uice_max              =   2.3309170093582E+00
(PID.TID 0000.0001) %MON seaice_uice_min              =  -3.4875097892211E+00
(PID.TID 0000.0001) %MON seaice_uice_mean             =  -1.1794307765974E-03
(PID.TID 0000.0001) %MON seaice_uice_sd               =   1.8001653304402E-01
(PID.TID 0000.0001) %MON seaice_uice_del2             =   4.5177016575340E-04
(PID.TID 0000.0001) %MON seaice_vice_max              =   2.3480496191374E+00
(PID.TID 0000.0001) %MON seaice_vice_min              =  -2.5315602620819E+00
(PID.TID 0000.0001) %MON seaice_vice_mean             =  -2.4243339465762E-02
(PID.TID 0000.0001) %MON seaice_vice_sd               =   1.8684871162796E-01
(PID.TID 0000.0001) %MON seaice_vice_del2             =   4.4970975384256E-04
(PID.TID 0000.0001) %MON seaice_area_max              =   1.0050465369020E+00
(PID.TID 0000.0001) %MON seaice_area_min              =   0.0000000000000E+00
(PID.TID 0000.0001) %MON seaice_area_mean             =   5.7219671399019E-02
(PID.TID 0000.0001) %MON seaice_area_sd               =   2.2213140942012E-01
(PID.TID 0000.0001) %MON seaice_area_del2             =   3.6225723290202E-04
(PID.TID 0000.0001) %MON seaice_heff_max              =   9.9507721780546E+00
(PID.TID 0000.0001) %MON seaice_heff_min              =   0.0000000000000E+00
(PID.TID 0000.0001) %MON seaice_heff_mean             =   1.5019743250696E-01
(PID.TID 0000.0001) %MON seaice_heff_sd               =   7.2193304934012E-01
(PID.TID 0000.0001) %MON seaice_heff_del2             =   1.6405088303083E-03
(PID.TID 0000.0001) %MON seaice_hsnow_max             =   3.2867491326630E+00
(PID.TID 0000.0001) %MON seaice_hsnow_min             =   0.0000000000000E+00
(PID.TID 0000.0001) %MON seaice_hsnow_mean            =   1.2772581335596E-02
(PID.TID 0000.0001) %MON seaice_hsnow_sd              =   7.0040991581548E-02
(PID.TID 0000.0001) %MON seaice_hsnow_del2            =   4.6518999266457E-04
(PID.TID 0000.0001) // =======================================================
(PID.TID 0000.0001) // End MONITOR SEAICE statistics
(PID.TID 0000.0001) // =======================================================
(PID.TID 0000.0001) // =======================================================
(PID.TID 0000.0001) // Begin MONITOR dynamic field statistics
(PID.TID 0000.0001) // =======================================================
(PID.TID 0000.0001) %MON time_tsnumber                =                174627
(PID.TID 0000.0001) %MON time_secondsf                =   7.8582150000000E+07
(PID.TID 0000.0001) %MON dynstat_eta_max              =   4.2011544895059E+00
(PID.TID 0000.0001) %MON dynstat_eta_min              =  -1.2887992782042E+01
(PID.TID 0000.0001) %MON dynstat_eta_mean             =   6.5134077905801E-02
(PID.TID 0000.0001) %MON dynstat_eta_sd               =   8.1017336798821E-01
(PID.TID 0000.0001) %MON dynstat_eta_del2             =   2.1493858075160E-03
(PID.TID 0000.0001) %MON dynstat_uvel_max             =   2.4872853928499E+00
(PID.TID 0000.0001) %MON dynstat_uvel_min             =  -3.1835816671226E+00
(PID.TID 0000.0001) %MON dynstat_uvel_mean            =   1.4635630970240E-03
(PID.TID 0000.0001) %MON dynstat_uvel_sd              =   3.0027779821692E-02
(PID.TID 0000.0001) %MON dynstat_uvel_del2            =   2.4259363153625E-05
(PID.TID 0000.0001) %MON dynstat_vvel_max             =   2.1036399238163E+00
(PID.TID 0000.0001) %MON dynstat_vvel_min             =  -2.2761186186058E+00
(PID.TID 0000.0001) %MON dynstat_vvel_mean            =  -4.6680593832547E-04
(PID.TID 0000.0001) %MON dynstat_vvel_sd              =   2.9402873447007E-02
(PID.TID 0000.0001) %MON dynstat_vvel_del2            =   2.4171923514068E-05
(PID.TID 0000.0001) %MON dynstat_wvel_max             =   4.3546573161528E-03
(PID.TID 0000.0001) %MON dynstat_wvel_min             =  -5.2102087757000E-03
(PID.TID 0000.0001) %MON dynstat_wvel_mean            =  -3.4475949946531E-07
(PID.TID 0000.0001) %MON dynstat_wvel_sd              =   6.7044010709238E-05
(PID.TID 0000.0001) %MON dynstat_wvel_del2            =   1.0921722501685E-07
(PID.TID 0000.0001) %MON dynstat_theta_max            =   3.2279109829270E+01
(PID.TID 0000.0001) %MON dynstat_theta_min            =  -1.9944764655181E+00
(PID.TID 0000.0001) %MON dynstat_theta_mean           =   3.5922942530519E+00
(PID.TID 0000.0001) %MON dynstat_theta_sd             =   4.4423397851665E+00
(PID.TID 0000.0001) %MON dynstat_theta_del2           =   1.1743627873499E-04
(PID.TID 0000.0001) %MON dynstat_salt_max             =   4.0655996056707E+01
(PID.TID 0000.0001) %MON dynstat_salt_min             =   1.6335462083203E+01
(PID.TID 0000.0001) %MON dynstat_salt_mean            =   3.4724882457180E+01
(PID.TID 0000.0001) %MON dynstat_salt_sd              =   3.7947045028604E-01
(PID.TID 0000.0001) %MON dynstat_salt_del2            =   8.3940774565142E-05
(PID.TID 0000.0001) %MON dynstat_sst_max              =   3.2279109829270E+01
(PID.TID 0000.0001) %MON dynstat_sst_min              =  -1.9944764655181E+00
(PID.TID 0000.0001) %MON dynstat_sst_mean             =   1.8182166626851E+01
(PID.TID 0000.0001) %MON dynstat_sst_sd               =   1.0134889001196E+01
(PID.TID 0000.0001) %MON dynstat_sst_del2             =   1.1429689634315E-03
(PID.TID 0000.0001) %MON dynstat_sss_max              =   3.9483616182504E+01
(PID.TID 0000.0001) %MON dynstat_sss_min              =   1.6335462083203E+01
(PID.TID 0000.0001) %MON dynstat_sss_mean             =   3.4657399615206E+01
(PID.TID 0000.0001) %MON dynstat_sss_sd               =   1.2758822216092E+00
(PID.TID 0000.0001) %MON dynstat_sss_del2             =   1.5314718168367E-03
(PID.TID 0000.0001) %MON forcing_qnet_max             =   5.0620492169521E+03
(PID.TID 0000.0001) %MON forcing_qnet_min             =  -2.0048666015625E+04
(PID.TID 0000.0001) %MON forcing_qnet_mean            =  -4.2616521479369E+01
(PID.TID 0000.0001) %MON forcing_qnet_sd              =   3.0737897960554E+02
(PID.TID 0000.0001) %MON forcing_qnet_del2            =   1.9436960913725E+00
(PID.TID 0000.0001) %MON forcing_qsw_max              =   0.0000000000000E+00
(PID.TID 0000.0001) %MON forcing_qsw_min              =  -1.1351595444146E+02
(PID.TID 0000.0001) %MON forcing_qsw_mean             =  -1.7883132725737E+01
(PID.TID 0000.0001) %MON forcing_qsw_sd               =   2.8846990312936E+01
(PID.TID 0000.0001) %MON forcing_qsw_del2             =   2.4345786800850E-02
(PID.TID 0000.0001) %MON forcing_empmr_max            =   3.3288154751062E-02
(PID.TID 0000.0001) %MON forcing_empmr_min            =  -6.0449115931988E-02
(PID.TID 0000.0001) %MON forcing_empmr_mean           =   3.1891114184341E-05
(PID.TID 0000.0001) %MON forcing_empmr_sd             =   5.7452446161872E-04
(PID.TID 0000.0001) %MON forcing_empmr_del2           =   6.2904227664658E-06
(PID.TID 0000.0001) %MON forcing_fu_max               =   1.3242806841072E+00
(PID.TID 0000.0001) %MON forcing_fu_min               =  -8.9477402099295E-01
(PID.TID 0000.0001) %MON forcing_fu_mean              =   8.5127062292756E-03
(PID.TID 0000.0001) %MON forcing_fu_sd                =   1.1121545619435E-01
(PID.TID 0000.0001) %MON forcing_fu_del2              =   1.7883894263858E-04
(PID.TID 0000.0001) %MON forcing_fv_max               =   9.7141614556313E-01
(PID.TID 0000.0001) %MON forcing_fv_min               =  -1.2968866147944E+00
(PID.TID 0000.0001) %MON forcing_fv_mean              =  -1.9467661004123E-03
(PID.TID 0000.0001) %MON forcing_fv_sd                =   1.0920596056595E-01
(PID.TID 0000.0001) %MON forcing_fv_del2              =   1.7293342419785E-04
(PID.TID 0000.0001) %MON trAdv_CFL_u_max              =   2.9370383396221E-02
(PID.TID 0000.0001) %MON trAdv_CFL_v_max              =   2.9167364916830E-02
(PID.TID 0000.0001) %MON trAdv_CFL_w_max              =   1.0715309503509E-01
(PID.TID 0000.0001) %MON advcfl_uvel_max              =   2.9832019370858E-02
(PID.TID 0000.0001) %MON advcfl_vvel_max              =   2.9196795001423E-02
(PID.TID 0000.0001) %MON advcfl_wvel_max              =   1.9119849416221E-01
(PID.TID 0000.0001) %MON advcfl_W_hf_max              =   1.0715309503509E-01
(PID.TID 0000.0001) %MON pe_b_mean                    =   1.9721157789830E-03
(PID.TID 0000.0001) %MON ke_max                       =   3.2559650326844E+00
(PID.TID 0000.0001) %MON ke_mean                      =   8.5278167713960E-04
(PID.TID 0000.0001) %MON ke_vol                       =   1.3350064351420E+18
(PID.TID 0000.0001) %MON vort_r_min                   =  -6.9875143113561E-05
(PID.TID 0000.0001) %MON vort_r_max                   =   1.1319700073433E-04
(PID.TID 0000.0001) %MON vort_a_mean                  =  -1.9725065883548E-05
(PID.TID 0000.0001) %MON vort_a_sd                    =   7.4538345780678E-05
(PID.TID 0000.0001) %MON vort_p_mean                  =  -2.1669069759918E-05
(PID.TID 0000.0001) %MON vort_p_sd                    =   9.3610675491656E-05
(PID.TID 0000.0001) %MON surfExpan_theta_mean         =   3.6756016673490E-06
(PID.TID 0000.0001) %MON surfExpan_salt_mean          =  -2.4199340259959E-06
(PID.TID 0000.0001) // =======================================================
(PID.TID 0000.0001) // End MONITOR dynamic field statistics
(PID.TID 0000.0001) // =======================================================
(PID.TID 0000.0001) // =======================================================
(PID.TID 0000.0001) // Begin MONITOR SEAICE statistics
(PID.TID 0000.0001) // =======================================================
(PID.TID 0000.0001) %MON seaice_tsnumber              =                174627
(PID.TID 0000.0001) %MON seaice_time_sec              =   7.8582150000000E+07
(PID.TID 0000.0001) %MON seaice_uice_max              =   2.4179602623336E+00
(PID.TID 0000.0001) %MON seaice_uice_min              =  -3.2473871350032E+00
(PID.TID 0000.0001) %MON seaice_uice_mean             =  -1.1397228503306E-03
(PID.TID 0000.0001) %MON seaice_uice_sd               =   1.7920722379047E-01
(PID.TID 0000.0001) %MON seaice_uice_del2             =   4.4516962190990E-04
(PID.TID 0000.0001) %MON seaice_vice_max              =   2.3069907231656E+00
(PID.TID 0000.0001) %MON seaice_vice_min              =  -2.3442250384683E+00
(PID.TID 0000.0001) %MON seaice_vice_mean             =  -2.4550105225485E-02
(PID.TID 0000.0001) %MON seaice_vice_sd               =   1.8606001444746E-01
(PID.TID 0000.0001) %MON seaice_vice_del2             =   4.4663366077699E-04
(PID.TID 0000.0001) %MON seaice_area_max              =   1.0048826365047E+00
(PID.TID 0000.0001) %MON seaice_area_min              =   0.0000000000000E+00
(PID.TID 0000.0001) %MON seaice_area_mean             =   5.7220718693801E-02
(PID.TID 0000.0001) %MON seaice_area_sd               =   2.2212366391426E-01
(PID.TID 0000.0001) %MON seaice_area_del2             =   3.6130116904334E-04
(PID.TID 0000.0001) %MON seaice_heff_max              =   9.9507299512347E+00
(PID.TID 0000.0001) %MON seaice_heff_min              =   0.0000000000000E+00
(PID.TID 0000.0001) %MON seaice_heff_mean             =   1.5019840384995E-01
(PID.TID 0000.0001) %MON seaice_heff_sd               =   7.2194035261055E-01
(PID.TID 0000.0001) %MON seaice_heff_del2             =   1.6373463097036E-03
(PID.TID 0000.0001) %MON seaice_hsnow_max             =   3.2867353248725E+00
(PID.TID 0000.0001) %MON seaice_hsnow_min             =   0.0000000000000E+00
(PID.TID 0000.0001) %MON seaice_hsnow_mean            =   1.2771937101147E-02
(PID.TID 0000.0001) %MON seaice_hsnow_sd              =   7.0025949663833E-02
(PID.TID 0000.0001) %MON seaice_hsnow_del2            =   4.6417961529175E-04
(PID.TID 0000.0001) // =======================================================
(PID.TID 0000.0001) // End MONITOR SEAICE statistics
(PID.TID 0000.0001) // =======================================================
(PID.TID 0000.0001) // =======================================================
(PID.TID 0000.0001) // Begin MONITOR dynamic field statistics
(PID.TID 0000.0001) // =======================================================
(PID.TID 0000.0001) %MON time_tsnumber                =                174628
(PID.TID 0000.0001) %MON time_secondsf                =   7.8582600000000E+07
(PID.TID 0000.0001) %MON dynstat_eta_max              =   4.0871465253343E+00
(PID.TID 0000.0001) %MON dynstat_eta_min              =  -1.2626846820408E+01
(PID.TID 0000.0001) %MON dynstat_eta_mean             =   6.5013040798964E-02
(PID.TID 0000.0001) %MON dynstat_eta_sd               =   8.1014323829614E-01
(PID.TID 0000.0001) %MON dynstat_eta_del2             =   2.1406446862750E-03
(PID.TID 0000.0001) %MON dynstat_uvel_max             =   2.5381572133668E+00
(PID.TID 0000.0001) %MON dynstat_uvel_min             =  -3.1031379020828E+00
(PID.TID 0000.0001) %MON dynstat_uvel_mean            =   1.4397225021446E-03
(PID.TID 0000.0001) %MON dynstat_uvel_sd              =   3.0089635748449E-02
(PID.TID 0000.0001) %MON dynstat_uvel_del2            =   2.4239608527398E-05
(PID.TID 0000.0001) %MON dynstat_vvel_max             =   1.9861253783821E+00
(PID.TID 0000.0001) %MON dynstat_vvel_min             =  -2.1978513954008E+00
(PID.TID 0000.0001) %MON dynstat_vvel_mean            =  -5.3637443087973E-04
(PID.TID 0000.0001) %MON dynstat_vvel_sd              =   2.9353687950313E-02
(PID.TID 0000.0001) %MON dynstat_vvel_del2            =   2.4184551352421E-05
(PID.TID 0000.0001) %MON dynstat_wvel_max             =   4.4880851772693E-03
(PID.TID 0000.0001) %MON dynstat_wvel_min             =  -5.2698734163365E-03
(PID.TID 0000.0001) %MON dynstat_wvel_mean            =  -3.4773469625788E-07
(PID.TID 0000.0001) %MON dynstat_wvel_sd              =   6.7079598927641E-05
(PID.TID 0000.0001) %MON dynstat_wvel_del2            =   1.0948872350238E-07
(PID.TID 0000.0001) %MON dynstat_theta_max            =   3.2284943286757E+01
(PID.TID 0000.0001) %MON dynstat_theta_min            =  -1.9957565609215E+00
(PID.TID 0000.0001) %MON dynstat_theta_mean           =   3.5922949437188E+00
(PID.TID 0000.0001) %MON dynstat_theta_sd             =   4.4423488196234E+00
(PID.TID 0000.0001) %MON dynstat_theta_del2           =   1.1747575093442E-04
(PID.TID 0000.0001) %MON dynstat_salt_max             =   4.0655996015929E+01
(PID.TID 0000.0001) %MON dynstat_salt_min             =   1.6331605076831E+01
(PID.TID 0000.0001) %MON dynstat_salt_mean            =   3.4724881331740E+01
(PID.TID 0000.0001) %MON dynstat_salt_sd              =   3.7947272897167E-01
(PID.TID 0000.0001) %MON dynstat_salt_del2            =   8.3717664678751E-05
(PID.TID 0000.0001) %MON dynstat_sst_max              =   3.2284943286757E+01
(PID.TID 0000.0001) %MON dynstat_sst_min              =  -1.9957565609215E+00
(PID.TID 0000.0001) %MON dynstat_sst_mean             =   1.8182156572788E+01
(PID.TID 0000.0001) %MON dynstat_sst_sd               =   1.0135377060299E+01
(PID.TID 0000.0001) %MON dynstat_sst_del2             =   1.1455491848559E-03
(PID.TID 0000.0001) %MON dynstat_sss_max              =   3.9483449457256E+01
(PID.TID 0000.0001) %MON dynstat_sss_min              =   1.6331605076831E+01
(PID.TID 0000.0001) %MON dynstat_sss_mean             =   3.4657266992754E+01
(PID.TID 0000.0001) %MON dynstat_sss_sd               =   1.2760542445693E+00
(PID.TID 0000.0001) %MON dynstat_sss_del2             =   1.5291511577542E-03
(PID.TID 0000.0001) %MON forcing_qnet_max             =   5.1616899058926E+03
(PID.TID 0000.0001) %MON forcing_qnet_min             =  -1.3793244140625E+04
(PID.TID 0000.0001) %MON forcing_qnet_mean            =  -3.9653822192094E+01
(PID.TID 0000.0001) %MON forcing_qnet_sd              =   2.9428900017973E+02
(PID.TID 0000.0001) %MON forcing_qnet_del2            =   1.7677114412289E+00
(PID.TID 0000.0001) %MON forcing_qsw_max              =   0.0000000000000E+00
(PID.TID 0000.0001) %MON forcing_qsw_min              =  -1.1370603543075E+02
(PID.TID 0000.0001) %MON forcing_qsw_mean             =  -1.7735861674215E+01
(PID.TID 0000.0001) %MON forcing_qsw_sd               =   2.8836079557874E+01
(PID.TID 0000.0001) %MON forcing_qsw_del2             =   2.4187896546241E-02
(PID.TID 0000.0001) %MON forcing_empmr_max            =   3.3325437456369E-02
(PID.TID 0000.0001) %MON forcing_empmr_min            =  -5.9449806809425E-02
(PID.TID 0000.0001) %MON forcing_empmr_mean           =   3.1352627663685E-05
(PID.TID 0000.0001) %MON forcing_empmr_sd             =   5.7373760950934E-04
(PID.TID 0000.0001) %MON forcing_empmr_del2           =   6.2444353628495E-06
(PID.TID 0000.0001) %MON forcing_fu_max               =   1.3337864715233E+00
(PID.TID 0000.0001) %MON forcing_fu_min               =  -8.7308828005230E-01
(PID.TID 0000.0001) %MON forcing_fu_mean              =   8.5515307595252E-03
(PID.TID 0000.0001) %MON forcing_fu_sd                =   1.1135082395850E-01
(PID.TID 0000.0001) %MON forcing_fu_del2              =   1.7905061216360E-04
(PID.TID 0000.0001) %MON forcing_fv_max               =   9.7277611494064E-01
(PID.TID 0000.0001) %MON forcing_fv_min               =  -1.2615209497785E+00
(PID.TID 0000.0001) %MON forcing_fv_mean              =  -1.9404352206247E-03
(PID.TID 0000.0001) %MON forcing_fv_sd                =   1.0922853610380E-01
(PID.TID 0000.0001) %MON forcing_fv_del2              =   1.7044992093011E-04
(PID.TID 0000.0001) %MON trAdv_CFL_u_max              =   2.9971088436720E-02
(PID.TID 0000.0001) %MON trAdv_CFL_v_max              =   2.7538003546136E-02
(PID.TID 0000.0001) %MON trAdv_CFL_w_max              =   1.0203842123872E-01
(PID.TID 0000.0001) %MON advcfl_uvel_max              =   3.0442166135460E-02
(PID.TID 0000.0001) %MON advcfl_vvel_max              =   2.7565789593186E-02
(PID.TID 0000.0001) %MON advcfl_wvel_max              =   2.0199389485435E-01
(PID.TID 0000.0001) %MON advcfl_W_hf_max              =   1.0203842123872E-01
(PID.TID 0000.0001) %MON pe_b_mean                    =   1.9678810517785E-03
(PID.TID 0000.0001) %MON ke_max                       =   3.1562023904128E+00
(PID.TID 0000.0001) %MON ke_mean                      =   8.5318106098388E-04
(PID.TID 0000.0001) %MON ke_vol                       =   1.3350064351420E+18
(PID.TID 0000.0001) %MON vort_r_min                   =  -7.0392747596687E-05
(PID.TID 0000.0001) %MON vort_r_max                   =   1.1705944607850E-04
(PID.TID 0000.0001) %MON vort_a_mean                  =  -1.9725066993944E-05
(PID.TID 0000.0001) %MON vort_a_sd                    =   7.4538348093942E-05
(PID.TID 0000.0001) %MON vort_p_mean                  =  -2.1669070979750E-05
(PID.TID 0000.0001) %MON vort_p_sd                    =   9.3610561148072E-05
(PID.TID 0000.0001) %MON surfExpan_theta_mean         =   4.1704275871708E-06
(PID.TID 0000.0001) %MON surfExpan_salt_mean          =  -2.8125548261077E-06
(PID.TID 0000.0001) // =======================================================
(PID.TID 0000.0001) // End MONITOR dynamic field statistics
(PID.TID 0000.0001) // =======================================================
(PID.TID 0000.0001) // =======================================================
(PID.TID 0000.0001) // Begin MONITOR SEAICE statistics
(PID.TID 0000.0001) // =======================================================
(PID.TID 0000.0001) %MON seaice_tsnumber              =                174628
(PID.TID 0000.0001) %MON seaice_time_sec              =   7.8582600000000E+07
(PID.TID 0000.0001) %MON seaice_uice_max              =   2.4872853928499E+00
(PID.TID 0000.0001) %MON seaice_uice_min              =  -3.1835816671226E+00
(PID.TID 0000.0001) %MON seaice_uice_mean             =  -1.1090964311370E-03
(PID.TID 0000.0001) %MON seaice_uice_sd               =   1.7853769463129E-01
(PID.TID 0000.0001) %MON seaice_uice_del2             =   4.3919326097399E-04
(PID.TID 0000.0001) %MON seaice_vice_max              =   2.1247981706878E+00
(PID.TID 0000.0001) %MON seaice_vice_min              =  -2.2761186186058E+00
(PID.TID 0000.0001) %MON seaice_vice_mean             =  -2.4853030716561E-02
(PID.TID 0000.0001) %MON seaice_vice_sd               =   1.8532107081209E-01
(PID.TID 0000.0001) %MON seaice_vice_del2             =   4.4431375789240E-04
(PID.TID 0000.0001) %MON seaice_area_max              =   1.0046682939993E+00
(PID.TID 0000.0001) %MON seaice_area_min              =   0.0000000000000E+00
(PID.TID 0000.0001) %MON seaice_area_mean             =   5.7221790294903E-02
(PID.TID 0000.0001) %MON seaice_area_sd               =   2.2211623835557E-01
(PID.TID 0000.0001) %MON seaice_area_del2             =   3.6038152804910E-04
(PID.TID 0000.0001) %MON seaice_heff_max              =   9.9506752398278E+00
(PID.TID 0000.0001) %MON seaice_heff_min              =   0.0000000000000E+00
(PID.TID 0000.0001) %MON seaice_heff_mean             =   1.5019924138916E-01
(PID.TID 0000.0001) %MON seaice_heff_sd               =   7.2194819232276E-01
(PID.TID 0000.0001) %MON seaice_heff_del2             =   1.6343779768977E-03
(PID.TID 0000.0001) %MON seaice_hsnow_max             =   3.2867175129253E+00
(PID.TID 0000.0001) %MON seaice_hsnow_min             =   0.0000000000000E+00
(PID.TID 0000.0001) %MON seaice_hsnow_mean            =   1.2771328918125E-02
(PID.TID 0000.0001) %MON seaice_hsnow_sd              =   7.0012090859645E-02
(PID.TID 0000.0001) %MON seaice_hsnow_del2            =   4.6323748595847E-04
(PID.TID 0000.0001) // =======================================================
(PID.TID 0000.0001) // End MONITOR SEAICE statistics
(PID.TID 0000.0001) // =======================================================
(PID.TID 0000.0001) // =======================================================
(PID.TID 0000.0001) // Begin MONITOR dynamic field statistics
(PID.TID 0000.0001) // =======================================================
(PID.TID 0000.0001) %MON time_tsnumber                =                174629
(PID.TID 0000.0001) %MON time_secondsf                =   7.8583050000000E+07
(PID.TID 0000.0001) %MON dynstat_eta_max              =   3.8988805441448E+00
(PID.TID 0000.0001) %MON dynstat_eta_min              =  -1.2245288373508E+01
(PID.TID 0000.0001) %MON dynstat_eta_mean             =   6.4889770737323E-02
(PID.TID 0000.0001) %MON dynstat_eta_sd               =   8.1029032192293E-01
(PID.TID 0000.0001) %MON dynstat_eta_del2             =   2.1320062189329E-03
(PID.TID 0000.0001) %MON dynstat_uvel_max             =   2.5677972394261E+00
(PID.TID 0000.0001) %MON dynstat_uvel_min             =  -3.0064136571738E+00
(PID.TID 0000.0001) %MON dynstat_uvel_mean            =   1.4125684266748E-03
(PID.TID 0000.0001) %MON dynstat_uvel_sd              =   3.0139396297945E-02
(PID.TID 0000.0001) %MON dynstat_uvel_del2            =   2.4212447007731E-05
(PID.TID 0000.0001) %MON dynstat_vvel_max             =   1.8257773367754E+00
(PID.TID 0000.0001) %MON dynstat_vvel_min             =  -2.1093842683327E+00
(PID.TID 0000.0001) %MON dynstat_vvel_mean            =  -6.0256053137970E-04
(PID.TID 0000.0001) %MON dynstat_vvel_sd              =   2.9307410670856E-02
(PID.TID 0000.0001) %MON dynstat_vvel_del2            =   2.4186075364170E-05
(PID.TID 0000.0001) %MON dynstat_wvel_max             =   4.6090794203651E-03
(PID.TID 0000.0001) %MON dynstat_wvel_min             =  -5.3227356988307E-03
(PID.TID 0000.0001) %MON dynstat_wvel_mean            =  -3.5022158538723E-07
(PID.TID 0000.0001) %MON dynstat_wvel_sd              =   6.7153534014404E-05
(PID.TID 0000.0001) %MON dynstat_wvel_del2            =   1.0986875141837E-07
(PID.TID 0000.0001) %MON dynstat_theta_max            =   3.2290730012504E+01
(PID.TID 0000.0001) %MON dynstat_theta_min            =  -1.9970130829279E+00
(PID.TID 0000.0001) %MON dynstat_theta_mean           =   3.5922954352322E+00
(PID.TID 0000.0001) %MON dynstat_theta_sd             =   4.4423569528631E+00
(PID.TID 0000.0001) %MON dynstat_theta_del2           =   1.1748794262028E-04
(PID.TID 0000.0001) %MON dynstat_salt_max             =   4.0655995979657E+01
(PID.TID 0000.0001) %MON dynstat_salt_min             =   1.6327661816786E+01
(PID.TID 0000.0001) %MON dynstat_salt_mean            =   3.4724880229926E+01
(PID.TID 0000.0001) %MON dynstat_salt_sd              =   3.7947503012508E-01
(PID.TID 0000.0001) %MON dynstat_salt_del2            =   8.3498381988914E-05
(PID.TID 0000.0001) %MON dynstat_sst_max              =   3.2290730012504E+01
(PID.TID 0000.0001) %MON dynstat_sst_min              =  -1.9970130829279E+00
(PID.TID 0000.0001) %MON dynstat_sst_mean             =   1.8182093476111E+01
(PID.TID 0000.0001) %MON dynstat_sst_sd               =   1.0135816466349E+01
(PID.TID 0000.0001) %MON dynstat_sst_del2             =   1.1467227903675E-03
(PID.TID 0000.0001) %MON dynstat_sss_max              =   3.9483344360567E+01
(PID.TID 0000.0001) %MON dynstat_sss_min              =   1.6327661816786E+01
(PID.TID 0000.0001) %MON dynstat_sss_mean             =   3.4657132057847E+01
(PID.TID 0000.0001) %MON dynstat_sss_sd               =   1.2762279574414E+00
(PID.TID 0000.0001) %MON dynstat_sss_del2             =   1.5268297719747E-03
(PID.TID 0000.0001) %MON forcing_qnet_max             =   7.6701385694030E+03
(PID.TID 0000.0001) %MON forcing_qnet_min             =  -4.2163764648438E+03
(PID.TID 0000.0001) %MON forcing_qnet_mean            =  -3.4806755660927E+01
(PID.TID 0000.0001) %MON forcing_qnet_sd              =   2.8217962374504E+02
(PID.TID 0000.0001) %MON forcing_qnet_del2            =   1.5153471443118E+00
(PID.TID 0000.0001) %MON forcing_qsw_max              =   0.0000000000000E+00
(PID.TID 0000.0001) %MON forcing_qsw_min              =  -1.1425573043206E+02
(PID.TID 0000.0001) %MON forcing_qsw_mean             =  -1.7348716731725E+01
(PID.TID 0000.0001) %MON forcing_qsw_sd               =   2.8953648163698E+01
(PID.TID 0000.0001) %MON forcing_qsw_del2             =   2.3920169408817E-02
(PID.TID 0000.0001) %MON forcing_empmr_max            =   3.3328924328089E-02
(PID.TID 0000.0001) %MON forcing_empmr_min            =  -5.9672243893147E-02
(PID.TID 0000.0001) %MON forcing_empmr_mean           =   3.0847517831320E-05
(PID.TID 0000.0001) %MON forcing_empmr_sd             =   5.7738671691684E-04
(PID.TID 0000.0001) %MON forcing_empmr_del2           =   6.2341467155735E-06
(PID.TID 0000.0001) %MON forcing_fu_max               =   1.3236570319388E+00
(PID.TID 0000.0001) %MON forcing_fu_min               =  -8.6888325427458E-01
(PID.TID 0000.0001) %MON forcing_fu_mean              =   8.5761085809244E-03
(PID.TID 0000.0001) %MON forcing_fu_sd                =   1.1142667981955E-01
(PID.TID 0000.0001) %MON forcing_fu_del2              =   1.7912584177813E-04
(PID.TID 0000.0001) %MON forcing_fv_max               =   9.7595578432083E-01
(PID.TID 0000.0001) %MON forcing_fv_min               =  -1.2220147425621E+00
(PID.TID 0000.0001) %MON forcing_fv_mean              =  -1.9379100569303E-03
(PID.TID 0000.0001) %MON forcing_fv_sd                =   1.0925500501902E-01
(PID.TID 0000.0001) %MON forcing_fv_del2              =   1.6839353645024E-04
(PID.TID 0000.0001) %MON trAdv_CFL_u_max              =   3.0321084031008E-02
(PID.TID 0000.0001) %MON trAdv_CFL_v_max              =   2.5314747659855E-02
(PID.TID 0000.0001) %MON trAdv_CFL_w_max              =   1.0305511217944E-01
(PID.TID 0000.0001) %MON advcfl_uvel_max              =   3.0797662868603E-02
(PID.TID 0000.0001) %MON advcfl_vvel_max              =   2.5340290425450E-02
(PID.TID 0000.0001) %MON advcfl_wvel_max              =   2.0611022435887E-01
(PID.TID 0000.0001) %MON advcfl_W_hf_max              =   9.6588260183533E-02
(PID.TID 0000.0001) %MON pe_b_mean                    =   1.9639593852821E-03
(PID.TID 0000.0001) %MON ke_max                       =   3.0258081299025E+00
(PID.TID 0000.0001) %MON ke_mean                      =   8.5331581664741E-04
(PID.TID 0000.0001) %MON ke_vol                       =   1.3350064351420E+18
(PID.TID 0000.0001) %MON vort_r_min                   =  -6.9543520590894E-05
(PID.TID 0000.0001) %MON vort_r_max                   =   1.1958622401198E-04
(PID.TID 0000.0001) %MON vort_a_mean                  =  -1.9725068182342E-05
(PID.TID 0000.0001) %MON vort_a_sd                    =   7.4538350101092E-05
(PID.TID 0000.0001) %MON vort_p_mean                  =  -2.1669072285270E-05
(PID.TID 0000.0001) %MON vort_p_sd                    =   9.3610440567725E-05
(PID.TID 0000.0001) %MON surfExpan_theta_mean         =   4.6575778505606E-06
(PID.TID 0000.0001) %MON surfExpan_salt_mean          =  -3.2145020621459E-06
(PID.TID 0000.0001) // =======================================================
(PID.TID 0000.0001) // End MONITOR dynamic field statistics
(PID.TID 0000.0001) // =======================================================
(PID.TID 0000.0001) // =======================================================
(PID.TID 0000.0001) // Begin MONITOR SEAICE statistics
(PID.TID 0000.0001) // =======================================================
(PID.TID 0000.0001) %MON seaice_tsnumber              =                174629
(PID.TID 0000.0001) %MON seaice_time_sec              =   7.8583050000000E+07
(PID.TID 0000.0001) %MON seaice_uice_max              =   2.5381572133668E+00
(PID.TID 0000.0001) %MON seaice_uice_min              =  -3.1031379020828E+00
(PID.TID 0000.0001) %MON seaice_uice_mean             =  -1.0889689565658E-03
(PID.TID 0000.0001) %MON seaice_uice_sd               =   1.7789802584234E-01
(PID.TID 0000.0001) %MON seaice_uice_del2             =   4.3377478427165E-04
(PID.TID 0000.0001) %MON seaice_vice_max              =   1.7931071721079E+00
(PID.TID 0000.0001) %MON seaice_vice_min              =  -2.1978513954008E+00
(PID.TID 0000.0001) %MON seaice_vice_mean             =  -2.5155514157184E-02
(PID.TID 0000.0001) %MON seaice_vice_sd               =   1.8462331548193E-01
(PID.TID 0000.0001) %MON seaice_vice_del2             =   4.4253129205946E-04
(PID.TID 0000.0001) %MON seaice_area_max              =   1.0048367137676E+00
(PID.TID 0000.0001) %MON seaice_area_min              =   0.0000000000000E+00
(PID.TID 0000.0001) %MON seaice_area_mean             =   5.7222921960305E-02
(PID.TID 0000.0001) %MON seaice_area_sd               =   2.2210918837631E-01
(PID.TID 0000.0001) %MON seaice_area_del2             =   3.5949831677762E-04
(PID.TID 0000.0001) %MON seaice_heff_max              =   9.9506394930261E+00
(PID.TID 0000.0001) %MON seaice_heff_min              =   0.0000000000000E+00
(PID.TID 0000.0001) %MON seaice_heff_mean             =   1.5019994366878E-01
(PID.TID 0000.0001) %MON seaice_heff_sd               =   7.2195636532945E-01
(PID.TID 0000.0001) %MON seaice_heff_del2             =   1.6315697641084E-03
(PID.TID 0000.0001) %MON seaice_hsnow_max             =   3.2867058124167E+00
(PID.TID 0000.0001) %MON seaice_hsnow_min             =   0.0000000000000E+00
(PID.TID 0000.0001) %MON seaice_hsnow_mean            =   1.2770762178616E-02
(PID.TID 0000.0001) %MON seaice_hsnow_sd              =   6.9999279910209E-02
(PID.TID 0000.0001) %MON seaice_hsnow_del2            =   4.6235329761211E-04
(PID.TID 0000.0001) // =======================================================
(PID.TID 0000.0001) // End MONITOR SEAICE statistics
(PID.TID 0000.0001) // =======================================================
(PID.TID 0000.0001) // =======================================================
(PID.TID 0000.0001) // Begin MONITOR dynamic field statistics
(PID.TID 0000.0001) // =======================================================
(PID.TID 0000.0001) %MON time_tsnumber                =                174630
(PID.TID 0000.0001) %MON time_secondsf                =   7.8583500000000E+07
(PID.TID 0000.0001) %MON dynstat_eta_max              =   3.8020476849087E+00
(PID.TID 0000.0001) %MON dynstat_eta_min              =  -1.1771701318443E+01
(PID.TID 0000.0001) %MON dynstat_eta_mean             =   6.4764258486414E-02
(PID.TID 0000.0001) %MON dynstat_eta_sd               =   8.1059665711180E-01
(PID.TID 0000.0001) %MON dynstat_eta_del2             =   2.1238478182120E-03
(PID.TID 0000.0001) %MON dynstat_uvel_max             =   2.5718740294642E+00
(PID.TID 0000.0001) %MON dynstat_uvel_min             =  -2.8947243197152E+00
(PID.TID 0000.0001) %MON dynstat_uvel_mean            =   1.3821179923999E-03
(PID.TID 0000.0001) %MON dynstat_uvel_sd              =   3.0177566689785E-02
(PID.TID 0000.0001) %MON dynstat_uvel_del2            =   2.4172942350590E-05
(PID.TID 0000.0001) %MON dynstat_vvel_max             =   1.6246204947031E+00
(PID.TID 0000.0001) %MON dynstat_vvel_min             =  -2.0115282124242E+00
(PID.TID 0000.0001) %MON dynstat_vvel_mean            =  -6.6465354865336E-04
(PID.TID 0000.0001) %MON dynstat_vvel_sd              =   2.9266386317761E-02
(PID.TID 0000.0001) %MON dynstat_vvel_del2            =   2.4168041749977E-05
(PID.TID 0000.0001) %MON dynstat_wvel_max             =   4.7180129159789E-03
(PID.TID 0000.0001) %MON dynstat_wvel_min             =  -5.3713856871151E-03
(PID.TID 0000.0001) %MON dynstat_wvel_mean            =  -3.5226485267744E-07
(PID.TID 0000.0001) %MON dynstat_wvel_sd              =   6.7274250253940E-05
(PID.TID 0000.0001) %MON dynstat_wvel_del2            =   1.1039131989768E-07
(PID.TID 0000.0001) %MON dynstat_theta_max            =   3.2296484275915E+01
(PID.TID 0000.0001) %MON dynstat_theta_min            =  -1.9982396760148E+00
(PID.TID 0000.0001) %MON dynstat_theta_mean           =   3.5922958239642E+00
(PID.TID 0000.0001) %MON dynstat_theta_sd             =   4.4423645609288E+00
(PID.TID 0000.0001) %MON dynstat_theta_del2           =   1.1751763432982E-04
(PID.TID 0000.0001) %MON dynstat_salt_max             =   4.0655995948163E+01
(PID.TID 0000.0001) %MON dynstat_salt_min             =   1.6323659119983E+01
(PID.TID 0000.0001) %MON dynstat_salt_mean            =   3.4724879159806E+01
(PID.TID 0000.0001) %MON dynstat_salt_sd              =   3.7947729229334E-01
(PID.TID 0000.0001) %MON dynstat_salt_del2            =   8.3282133963551E-05
(PID.TID 0000.0001) %MON dynstat_sst_max              =   3.2296484275915E+01
(PID.TID 0000.0001) %MON dynstat_sst_min              =  -1.9982396760148E+00
(PID.TID 0000.0001) %MON dynstat_sst_mean             =   1.8182047591464E+01
(PID.TID 0000.0001) %MON dynstat_sst_sd               =   1.0136269500148E+01
(PID.TID 0000.0001) %MON dynstat_sst_del2             =   1.1493049339333E-03
(PID.TID 0000.0001) %MON dynstat_sss_max              =   3.9483300978934E+01
(PID.TID 0000.0001) %MON dynstat_sss_min              =   1.6323659119983E+01
(PID.TID 0000.0001) %MON dynstat_sss_mean             =   3.4656998802584E+01
(PID.TID 0000.0001) %MON dynstat_sss_sd               =   1.2764012516475E+00
(PID.TID 0000.0001) %MON dynstat_sss_del2             =   1.5246968105208E-03
(PID.TID 0000.0001) %MON forcing_qnet_max             =   2.3508246080609E+04
(PID.TID 0000.0001) %MON forcing_qnet_min             =  -4.6138115234375E+03
(PID.TID 0000.0001) %MON forcing_qnet_mean            =  -3.3152301408764E+01
(PID.TID 0000.0001) %MON forcing_qnet_sd              =   2.8886806834659E+02
(PID.TID 0000.0001) %MON forcing_qnet_del2            =   2.0022515154881E+00
(PID.TID 0000.0001) %MON forcing_qsw_max              =   0.0000000000000E+00
(PID.TID 0000.0001) %MON forcing_qsw_min              =  -1.1435077382024E+02
(PID.TID 0000.0001) %MON forcing_qsw_mean             =  -1.7267542504793E+01
(PID.TID 0000.0001) %MON forcing_qsw_sd               =   2.9019685834232E+01
(PID.TID 0000.0001) %MON forcing_qsw_del2             =   2.3794581610797E-02
(PID.TID 0000.0001) %MON forcing_empmr_max            =   3.3338312059641E-02
(PID.TID 0000.0001) %MON forcing_empmr_min            =  -6.1343930661678E-02
(PID.TID 0000.0001) %MON forcing_empmr_mean           =   3.0496484767663E-05
(PID.TID 0000.0001) %MON forcing_empmr_sd             =   5.8680008220461E-04
(PID.TID 0000.0001) %MON forcing_empmr_del2           =   6.2714280917310E-06
(PID.TID 0000.0001) %MON forcing_fu_max               =   1.2956943309872E+00
(PID.TID 0000.0001) %MON forcing_fu_min               =  -9.1909931973823E-01
(PID.TID 0000.0001) %MON forcing_fu_mean              =   8.6058576440469E-03
(PID.TID 0000.0001) %MON forcing_fu_sd                =   1.1152746820061E-01
(PID.TID 0000.0001) %MON forcing_fu_del2              =   1.7984626600600E-04
(PID.TID 0000.0001) %MON forcing_fv_max               =   9.7959139943123E-01
(PID.TID 0000.0001) %MON forcing_fv_min               =  -1.1786774497179E+00
(PID.TID 0000.0001) %MON forcing_fv_mean              =  -1.9321965966963E-03
(PID.TID 0000.0001) %MON forcing_fv_sd                =   1.0928738532884E-01
(PID.TID 0000.0001) %MON forcing_fv_del2              =   1.6727539546267E-04
(PID.TID 0000.0001) %MON trAdv_CFL_u_max              =   3.0369223615950E-02
(PID.TID 0000.0001) %MON trAdv_CFL_v_max              =   2.2647377882553E-02
(PID.TID 0000.0001) %MON trAdv_CFL_w_max              =   1.0185069658020E-01
(PID.TID 0000.0001) %MON advcfl_uvel_max              =   3.0846559098902E-02
(PID.TID 0000.0001) %MON advcfl_vvel_max              =   2.2679726692448E-02
(PID.TID 0000.0001) %MON advcfl_wvel_max              =   2.0370139316040E-01
(PID.TID 0000.0001) %MON advcfl_W_hf_max              =   9.0743891978566E-02
(PID.TID 0000.0001) %MON pe_b_mean                    =   1.9602862596713E-03
(PID.TID 0000.0001) %MON ke_max                       =   2.8688991429711E+00
(PID.TID 0000.0001) %MON ke_mean                      =   8.5326387588943E-04
(PID.TID 0000.0001) %MON ke_vol                       =   1.3350064351420E+18
(PID.TID 0000.0001) %MON vort_r_min                   =  -6.7451965498763E-05
(PID.TID 0000.0001) %MON vort_r_max                   =   1.2056674675540E-04
(PID.TID 0000.0001) %MON vort_a_mean                  =  -1.9725069432603E-05
(PID.TID 0000.0001) %MON vort_a_sd                    =   7.4538352143297E-05
(PID.TID 0000.0001) %MON vort_p_mean                  =  -2.1669073658751E-05
(PID.TID 0000.0001) %MON vort_p_sd                    =   9.3610315546324E-05
(PID.TID 0000.0001) %MON surfExpan_theta_mean         =   5.1269238060532E-06
(PID.TID 0000.0001) %MON surfExpan_salt_mean          =  -3.6268145425367E-06
(PID.TID 0000.0001) // =======================================================
(PID.TID 0000.0001) // End MONITOR dynamic field statistics
(PID.TID 0000.0001) // =======================================================
(PID.TID 0000.0001) // =======================================================
(PID.TID 0000.0001) // Begin MONITOR SEAICE statistics
(PID.TID 0000.0001) // =======================================================
(PID.TID 0000.0001) %MON seaice_tsnumber              =                174630
(PID.TID 0000.0001) %MON seaice_time_sec              =   7.8583500000000E+07
(PID.TID 0000.0001) %MON seaice_uice_max              =   2.5677972394261E+00
(PID.TID 0000.0001) %MON seaice_uice_min              =  -3.0064136571738E+00
(PID.TID 0000.0001) %MON seaice_uice_mean             =  -1.0757672699541E-03
(PID.TID 0000.0001) %MON seaice_uice_sd               =   1.7727153044265E-01
(PID.TID 0000.0001) %MON seaice_uice_del2             =   4.2879899387295E-04
(PID.TID 0000.0001) %MON seaice_vice_max              =   1.6239780215146E+00
(PID.TID 0000.0001) %MON seaice_vice_min              =  -2.1093842683327E+00
(PID.TID 0000.0001) %MON seaice_vice_mean             =  -2.5422652373160E-02
(PID.TID 0000.0001) %MON seaice_vice_sd               =   1.8390116375885E-01
(PID.TID 0000.0001) %MON seaice_vice_del2             =   4.4119433764877E-04
(PID.TID 0000.0001) %MON seaice_area_max              =   1.0093574937480E+00
(PID.TID 0000.0001) %MON seaice_area_min              =   0.0000000000000E+00
(PID.TID 0000.0001) %MON seaice_area_mean             =   5.7224004567771E-02
(PID.TID 0000.0001) %MON seaice_area_sd               =   2.2210207130669E-01
(PID.TID 0000.0001) %MON seaice_area_del2             =   3.5863053644448E-04
(PID.TID 0000.0001) %MON seaice_heff_max              =   9.9505959357132E+00
(PID.TID 0000.0001) %MON seaice_heff_min              =   0.0000000000000E+00
(PID.TID 0000.0001) %MON seaice_heff_mean             =   1.5020051949856E-01
(PID.TID 0000.0001) %MON seaice_heff_sd               =   7.2196470716092E-01
(PID.TID 0000.0001) %MON seaice_heff_del2             =   1.6288809664790E-03
(PID.TID 0000.0001) %MON seaice_hsnow_max             =   3.2866920455676E+00
(PID.TID 0000.0001) %MON seaice_hsnow_min             =   0.0000000000000E+00
(PID.TID 0000.0001) %MON seaice_hsnow_mean            =   1.2770226492786E-02
(PID.TID 0000.0001) %MON seaice_hsnow_sd              =   6.9987270192855E-02
(PID.TID 0000.0001) %MON seaice_hsnow_del2            =   4.6151148859932E-04
(PID.TID 0000.0001) // =======================================================
(PID.TID 0000.0001) // End MONITOR SEAICE statistics
(PID.TID 0000.0001) // =======================================================
(PID.TID 0000.0001) // =======================================================
(PID.TID 0000.0001) // Begin MONITOR dynamic field statistics
(PID.TID 0000.0001) // =======================================================
(PID.TID 0000.0001) %MON time_tsnumber                =                174631
(PID.TID 0000.0001) %MON time_secondsf                =   7.8583950000000E+07
(PID.TID 0000.0001) %MON dynstat_eta_max              =   3.7560732148482E+00
(PID.TID 0000.0001) %MON dynstat_eta_min              =  -1.1237465657690E+01
(PID.TID 0000.0001) %MON dynstat_eta_mean             =   6.4636620081601E-02
(PID.TID 0000.0001) %MON dynstat_eta_sd               =   8.1103745444189E-01
(PID.TID 0000.0001) %MON dynstat_eta_del2             =   2.1164978859022E-03
(PID.TID 0000.0001) %MON dynstat_uvel_max             =   2.5458738451995E+00
(PID.TID 0000.0001) %MON dynstat_uvel_min             =  -2.7755540621796E+00
(PID.TID 0000.0001) %MON dynstat_uvel_mean            =   1.3484226549224E-03
(PID.TID 0000.0001) %MON dynstat_uvel_sd              =   3.0205361816109E-02
(PID.TID 0000.0001) %MON dynstat_uvel_del2            =   2.4114606444690E-05
(PID.TID 0000.0001) %MON dynstat_vvel_max             =   1.7352046588639E+00
(PID.TID 0000.0001) %MON dynstat_vvel_min             =  -1.9049906120154E+00
(PID.TID 0000.0001) %MON dynstat_vvel_mean            =  -7.2197864412614E-04
(PID.TID 0000.0001) %MON dynstat_vvel_sd              =   2.9230968708572E-02
(PID.TID 0000.0001) %MON dynstat_vvel_del2            =   2.4121491532925E-05
(PID.TID 0000.0001) %MON dynstat_wvel_max             =   4.8154980449497E-03
(PID.TID 0000.0001) %MON dynstat_wvel_min             =  -5.4182785649403E-03
(PID.TID 0000.0001) %MON dynstat_wvel_mean            =  -3.5376786688186E-07
(PID.TID 0000.0001) %MON dynstat_wvel_sd              =   6.7445126752312E-05
(PID.TID 0000.0001) %MON dynstat_wvel_del2            =   1.1108245497137E-07
(PID.TID 0000.0001) %MON dynstat_theta_max            =   3.2302211609985E+01
(PID.TID 0000.0001) %MON dynstat_theta_min            =  -1.9994424891785E+00
(PID.TID 0000.0001) %MON dynstat_theta_mean           =   3.5922960835342E+00
(PID.TID 0000.0001) %MON dynstat_theta_sd             =   4.4423714987300E+00
(PID.TID 0000.0001) %MON dynstat_theta_del2           =   1.1756169460672E-04
(PID.TID 0000.0001) %MON dynstat_salt_max             =   4.0655995921627E+01
(PID.TID 0000.0001) %MON dynstat_salt_min             =   1.6319649352795E+01
(PID.TID 0000.0001) %MON dynstat_salt_mean            =   3.4724878121163E+01
(PID.TID 0000.0001) %MON dynstat_salt_sd              =   3.7947954137004E-01
(PID.TID 0000.0001) %MON dynstat_salt_del2            =   8.3068909139100E-05
(PID.TID 0000.0001) %MON dynstat_sst_max              =   3.2302211609985E+01
(PID.TID 0000.0001) %MON dynstat_sst_min              =  -1.9994424891785E+00
(PID.TID 0000.0001) %MON dynstat_sst_mean             =   1.8181977254817E+01
(PID.TID 0000.0001) %MON dynstat_sst_sd               =   1.0136690413443E+01
(PID.TID 0000.0001) %MON dynstat_sst_del2             =   1.1514350365243E-03
(PID.TID 0000.0001) %MON dynstat_sss_max              =   3.9483311455975E+01
(PID.TID 0000.0001) %MON dynstat_sss_min              =   1.6319649352795E+01
(PID.TID 0000.0001) %MON dynstat_sss_mean             =   3.4656865453910E+01
(PID.TID 0000.0001) %MON dynstat_sss_sd               =   1.2765746447899E+00
(PID.TID 0000.0001) %MON dynstat_sss_del2             =   1.5226158709451E-03
(PID.TID 0000.0001) %MON forcing_qnet_max             =   6.9907405152828E+04
(PID.TID 0000.0001) %MON forcing_qnet_min             =  -5.4254663085938E+03
(PID.TID 0000.0001) %MON forcing_qnet_mean            =  -3.0536644185835E+01
(PID.TID 0000.0001) %MON forcing_qnet_sd              =   3.2553957224048E+02
(PID.TID 0000.0001) %MON forcing_qnet_del2            =   4.2235594751718E+00
(PID.TID 0000.0001) %MON forcing_qsw_max              =   0.0000000000000E+00
(PID.TID 0000.0001) %MON forcing_qsw_min              =  -1.1432816855963E+02
(PID.TID 0000.0001) %MON forcing_qsw_mean             =  -1.7173416100394E+01
(PID.TID 0000.0001) %MON forcing_qsw_sd               =   2.9074888207864E+01
(PID.TID 0000.0001) %MON forcing_qsw_del2             =   2.3657278310400E-02
(PID.TID 0000.0001) %MON forcing_empmr_max            =   3.3343136310577E-02
(PID.TID 0000.0001) %MON forcing_empmr_min            =  -5.8278273791075E-02
(PID.TID 0000.0001) %MON forcing_empmr_mean           =   3.0435989228937E-05
(PID.TID 0000.0001) %MON forcing_empmr_sd             =   5.9265081787702E-04
(PID.TID 0000.0001) %MON forcing_empmr_del2           =   6.2614236844688E-06
(PID.TID 0000.0001) %MON forcing_fu_max               =   1.2522164417017E+00
(PID.TID 0000.0001) %MON forcing_fu_min               =  -9.3845234663745E-01
(PID.TID 0000.0001) %MON forcing_fu_mean              =   8.6207219457041E-03
(PID.TID 0000.0001) %MON forcing_fu_sd                =   1.1156924815286E-01
(PID.TID 0000.0001) %MON forcing_fu_del2              =   1.8042172339951E-04
(PID.TID 0000.0001) %MON forcing_fv_max               =   1.0823675249093E+00
(PID.TID 0000.0001) %MON forcing_fv_min               =  -1.1290650575628E+00
(PID.TID 0000.0001) %MON forcing_fv_mean              =  -1.9314555490848E-03
(PID.TID 0000.0001) %MON forcing_fv_sd                =   1.0934392704556E-01
(PID.TID 0000.0001) %MON forcing_fv_del2              =   1.6706178506621E-04
(PID.TID 0000.0001) %MON trAdv_CFL_u_max              =   3.0062208030838E-02
(PID.TID 0000.0001) %MON trAdv_CFL_v_max              =   2.3023591997810E-02
(PID.TID 0000.0001) %MON trAdv_CFL_w_max              =   9.7698559839091E-02
(PID.TID 0000.0001) %MON advcfl_uvel_max              =   3.0534717923434E-02
(PID.TID 0000.0001) %MON advcfl_vvel_max              =   2.3056478180241E-02
(PID.TID 0000.0001) %MON advcfl_wvel_max              =   1.9539711967818E-01
(PID.TID 0000.0001) %MON advcfl_W_hf_max              =   8.5936782988846E-02
(PID.TID 0000.0001) %MON pe_b_mean                    =   1.9567858554687E-03
(PID.TID 0000.0001) %MON ke_max                       =   2.6981297624503E+00
(PID.TID 0000.0001) %MON ke_mean                      =   8.5306784312574E-04
(PID.TID 0000.0001) %MON ke_vol                       =   1.3350064351420E+18
(PID.TID 0000.0001) %MON vort_r_min                   =  -6.4260001651716E-05
(PID.TID 0000.0001) %MON vort_r_max                   =   1.1979371961298E-04
(PID.TID 0000.0001) %MON vort_a_mean                  =  -1.9725070727663E-05
(PID.TID 0000.0001) %MON vort_a_sd                    =   7.4538354553189E-05
(PID.TID 0000.0001) %MON vort_p_mean                  =  -2.1669075081446E-05
(PID.TID 0000.0001) %MON vort_p_sd                    =   9.3610186862432E-05
(PID.TID 0000.0001) %MON surfExpan_theta_mean         =   5.5933831205959E-06
(PID.TID 0000.0001) %MON surfExpan_salt_mean          =  -4.0312442847884E-06
(PID.TID 0000.0001) // =======================================================
(PID.TID 0000.0001) // End MONITOR dynamic field statistics
(PID.TID 0000.0001) // =======================================================
(PID.TID 0000.0001) // =======================================================
(PID.TID 0000.0001) // Begin MONITOR SEAICE statistics
(PID.TID 0000.0001) // =======================================================
(PID.TID 0000.0001) %MON seaice_tsnumber              =                174631
(PID.TID 0000.0001) %MON seaice_time_sec              =   7.8583950000000E+07
(PID.TID 0000.0001) %MON seaice_uice_max              =   2.5718740294642E+00
(PID.TID 0000.0001) %MON seaice_uice_min              =  -2.8947243197152E+00
(PID.TID 0000.0001) %MON seaice_uice_mean             =  -1.0750512856577E-03
(PID.TID 0000.0001) %MON seaice_uice_sd               =   1.7665085149855E-01
(PID.TID 0000.0001) %MON seaice_uice_del2             =   4.2406549937397E-04
(PID.TID 0000.0001) %MON seaice_vice_max              =   1.5912116670526E+00
(PID.TID 0000.0001) %MON seaice_vice_min              =  -2.0115282124242E+00
(PID.TID 0000.0001) %MON seaice_vice_mean             =  -2.5704299802783E-02
(PID.TID 0000.0001) %MON seaice_vice_sd               =   1.8322183439167E-01
(PID.TID 0000.0001) %MON seaice_vice_del2             =   4.4013263570827E-04
(PID.TID 0000.0001) %MON seaice_area_max              =   1.0098674642159E+00
(PID.TID 0000.0001) %MON seaice_area_min              =   0.0000000000000E+00
(PID.TID 0000.0001) %MON seaice_area_mean             =   5.7224934207616E-02
(PID.TID 0000.0001) %MON seaice_area_sd               =   2.2209454994685E-01
(PID.TID 0000.0001) %MON seaice_area_del2             =   3.5777605085701E-04
(PID.TID 0000.0001) %MON seaice_heff_max              =   9.9505578874070E+00
(PID.TID 0000.0001) %MON seaice_heff_min              =   0.0000000000000E+00
(PID.TID 0000.0001) %MON seaice_heff_mean             =   1.5020096855616E-01
(PID.TID 0000.0001) %MON seaice_heff_sd               =   7.2197306537678E-01
(PID.TID 0000.0001) %MON seaice_heff_del2             =   1.6262811850164E-03
(PID.TID 0000.0001) %MON seaice_hsnow_max             =   3.2866796885009E+00
(PID.TID 0000.0001) %MON seaice_hsnow_min             =   0.0000000000000E+00
(PID.TID 0000.0001) %MON seaice_hsnow_mean            =   1.2769706172980E-02
(PID.TID 0000.0001) %MON seaice_hsnow_sd              =   6.9975783591109E-02
(PID.TID 0000.0001) %MON seaice_hsnow_del2            =   4.6069710524819E-04
(PID.TID 0000.0001) // =======================================================
(PID.TID 0000.0001) // End MONITOR SEAICE statistics
(PID.TID 0000.0001) // =======================================================
(PID.TID 0000.0001) // =======================================================
(PID.TID 0000.0001) // Begin MONITOR dynamic field statistics
(PID.TID 0000.0001) // =======================================================
(PID.TID 0000.0001) %MON time_tsnumber                =                174632
(PID.TID 0000.0001) %MON time_secondsf                =   7.8584400000000E+07
(PID.TID 0000.0001) %MON dynstat_eta_max              =   3.7041140920805E+00
(PID.TID 0000.0001) %MON dynstat_eta_min              =  -1.0771397958039E+01
(PID.TID 0000.0001) %MON dynstat_eta_mean             =   6.4507307164322E-02
(PID.TID 0000.0001) %MON dynstat_eta_sd               =   8.1158224626826E-01
(PID.TID 0000.0001) %MON dynstat_eta_del2             =   2.1101980961313E-03
(PID.TID 0000.0001) %MON dynstat_uvel_max             =   2.4855795944685E+00
(PID.TID 0000.0001) %MON dynstat_uvel_min             =  -2.4867911106154E+00
(PID.TID 0000.0001) %MON dynstat_uvel_mean            =   1.3116189216170E-03
(PID.TID 0000.0001) %MON dynstat_uvel_sd              =   3.0223486035920E-02
(PID.TID 0000.0001) %MON dynstat_uvel_del2            =   2.4034024923626E-05
(PID.TID 0000.0001) %MON dynstat_vvel_max             =   1.8442134349008E+00
(PID.TID 0000.0001) %MON dynstat_vvel_min             =  -1.7510958058017E+00
(PID.TID 0000.0001) %MON dynstat_vvel_mean            =  -7.7392385583371E-04
(PID.TID 0000.0001) %MON dynstat_vvel_sd              =   2.9202689562776E-02
(PID.TID 0000.0001) %MON dynstat_vvel_del2            =   2.4045070996233E-05
(PID.TID 0000.0001) %MON dynstat_wvel_max             =   4.9023570191405E-03
(PID.TID 0000.0001) %MON dynstat_wvel_min             =  -5.4656569641031E-03
(PID.TID 0000.0001) %MON dynstat_wvel_mean            =  -3.5450227562156E-07
(PID.TID 0000.0001) %MON dynstat_wvel_sd              =   6.7665914685969E-05
(PID.TID 0000.0001) %MON dynstat_wvel_del2            =   1.1195654909355E-07
(PID.TID 0000.0001) %MON dynstat_theta_max            =   3.2307921303811E+01
(PID.TID 0000.0001) %MON dynstat_theta_min            =  -2.0006087364803E+00
(PID.TID 0000.0001) %MON dynstat_theta_mean           =   3.5922962593316E+00
(PID.TID 0000.0001) %MON dynstat_theta_sd             =   4.4423778644915E+00
(PID.TID 0000.0001) %MON dynstat_theta_del2           =   1.1763567465370E-04
(PID.TID 0000.0001) %MON dynstat_salt_max             =   4.0655995900154E+01
(PID.TID 0000.0001) %MON dynstat_salt_min             =   1.6315784843829E+01
(PID.TID 0000.0001) %MON dynstat_salt_mean            =   3.4724877121635E+01
(PID.TID 0000.0001) %MON dynstat_salt_sd              =   3.7948177013945E-01
(PID.TID 0000.0001) %MON dynstat_salt_del2            =   8.2860356173627E-05
(PID.TID 0000.0001) %MON dynstat_sst_max              =   3.2307921303811E+01
(PID.TID 0000.0001) %MON dynstat_sst_min              =  -2.0006087364803E+00
(PID.TID 0000.0001) %MON dynstat_sst_mean             =   1.8181912034861E+01
(PID.TID 0000.0001) %MON dynstat_sst_sd               =   1.0137118642787E+01
(PID.TID 0000.0001) %MON dynstat_sst_del2             =   1.1543958720893E-03
(PID.TID 0000.0001) %MON dynstat_sss_max              =   3.9483304304118E+01
(PID.TID 0000.0001) %MON dynstat_sss_min              =   1.6315784843829E+01
(PID.TID 0000.0001) %MON dynstat_sss_mean             =   3.4656733740544E+01
(PID.TID 0000.0001) %MON dynstat_sss_sd               =   1.2767474741583E+00
(PID.TID 0000.0001) %MON dynstat_sss_del2             =   1.5206549811311E-03
(PID.TID 0000.0001) %MON forcing_qnet_max             =   4.9418850297595E+03
(PID.TID 0000.0001) %MON forcing_qnet_min             =  -1.9647339843750E+04
(PID.TID 0000.0001) %MON forcing_qnet_mean            =  -2.9429098555061E+01
(PID.TID 0000.0001) %MON forcing_qnet_sd              =   2.9585331963988E+02
(PID.TID 0000.0001) %MON forcing_qnet_del2            =   1.7993491239511E+00
(PID.TID 0000.0001) %MON forcing_qsw_max              =   0.0000000000000E+00
(PID.TID 0000.0001) %MON forcing_qsw_min              =  -1.1418808249688E+02
(PID.TID 0000.0001) %MON forcing_qsw_mean             =  -1.7068036539362E+01
(PID.TID 0000.0001) %MON forcing_qsw_sd               =   2.9117998207142E+01
(PID.TID 0000.0001) %MON forcing_qsw_del2             =   2.3508664287096E-02
(PID.TID 0000.0001) %MON forcing_empmr_max            =   4.0532592684031E-02
(PID.TID 0000.0001) %MON forcing_empmr_min            =  -5.9478648006916E-02
(PID.TID 0000.0001) %MON forcing_empmr_mean           =   3.0233518130870E-05
(PID.TID 0000.0001) %MON forcing_empmr_sd             =   6.2350841805498E-04
(PID.TID 0000.0001) %MON forcing_empmr_del2           =   6.4227899016152E-06
(PID.TID 0000.0001) %MON forcing_fu_max               =   1.1945327854178E+00
(PID.TID 0000.0001) %MON forcing_fu_min               =  -9.1251801033729E-01
(PID.TID 0000.0001) %MON forcing_fu_mean              =   8.6309645969134E-03
(PID.TID 0000.0001) %MON forcing_fu_sd                =   1.1161578183245E-01
(PID.TID 0000.0001) %MON forcing_fu_del2              =   1.7964771879860E-04
(PID.TID 0000.0001) %MON forcing_fv_max               =   1.1779006710528E+00
(PID.TID 0000.0001) %MON forcing_fv_min               =  -1.0680319585671E+00
(PID.TID 0000.0001) %MON forcing_fv_mean              =  -1.9250459052365E-03
(PID.TID 0000.0001) %MON forcing_fv_sd                =   1.0940738016759E-01
(PID.TID 0000.0001) %MON forcing_fv_del2              =   1.6672873629249E-04
(PID.TID 0000.0001) %MON trAdv_CFL_u_max              =   2.9350240974043E-02
(PID.TID 0000.0001) %MON trAdv_CFL_v_max              =   2.3626182998713E-02
(PID.TID 0000.0001) %MON trAdv_CFL_w_max              =   9.1066014075390E-02
(PID.TID 0000.0001) %MON advcfl_uvel_max              =   2.9811560355377E-02
(PID.TID 0000.0001) %MON advcfl_vvel_max              =   2.3659929903380E-02
(PID.TID 0000.0001) %MON advcfl_wvel_max              =   1.8213202815078E-01
(PID.TID 0000.0001) %MON advcfl_W_hf_max              =   8.2253211975730E-02
(PID.TID 0000.0001) %MON pe_b_mean                    =   1.9533817190792E-03
(PID.TID 0000.0001) %MON ke_max                       =   2.3073408213644E+00
(PID.TID 0000.0001) %MON ke_mean                      =   8.5278921679375E-04
(PID.TID 0000.0001) %MON ke_vol                       =   1.3350064351420E+18
(PID.TID 0000.0001) %MON vort_r_min                   =  -6.0115826641688E-05
(PID.TID 0000.0001) %MON vort_r_max                   =   1.1709208546081E-04
(PID.TID 0000.0001) %MON vort_a_mean                  =  -1.9725072049855E-05
(PID.TID 0000.0001) %MON vort_a_sd                    =   7.4538357624593E-05
(PID.TID 0000.0001) %MON vort_p_mean                  =  -2.1669076533947E-05
(PID.TID 0000.0001) %MON vort_p_sd                    =   9.3610054689894E-05
(PID.TID 0000.0001) %MON surfExpan_theta_mean         =   6.0534135135693E-06
(PID.TID 0000.0001) %MON surfExpan_salt_mean          =  -4.4145393092206E-06
(PID.TID 0000.0001) // =======================================================
(PID.TID 0000.0001) // End MONITOR dynamic field statistics
(PID.TID 0000.0001) // =======================================================
(PID.TID 0000.0001) // =======================================================
(PID.TID 0000.0001) // Begin MONITOR SEAICE statistics
(PID.TID 0000.0001) // =======================================================
(PID.TID 0000.0001) %MON seaice_tsnumber              =                174632
(PID.TID 0000.0001) %MON seaice_time_sec              =   7.8584400000000E+07
(PID.TID 0000.0001) %MON seaice_uice_max              =   2.5458738451995E+00
(PID.TID 0000.0001) %MON seaice_uice_min              =  -2.7755540621796E+00
(PID.TID 0000.0001) %MON seaice_uice_mean             =  -1.0853635038850E-03
(PID.TID 0000.0001) %MON seaice_uice_sd               =   1.7603934598537E-01
(PID.TID 0000.0001) %MON seaice_uice_del2             =   4.1938068591672E-04
(PID.TID 0000.0001) %MON seaice_vice_max              =   1.5838219397871E+00
(PID.TID 0000.0001) %MON seaice_vice_min              =  -1.9049906120154E+00
(PID.TID 0000.0001) %MON seaice_vice_mean             =  -2.5970598100546E-02
(PID.TID 0000.0001) %MON seaice_vice_sd               =   1.8251617830839E-01
(PID.TID 0000.0001) %MON seaice_vice_del2             =   4.3868316996369E-04
(PID.TID 0000.0001) %MON seaice_area_max              =   1.0105301657238E+00
(PID.TID 0000.0001) %MON seaice_area_min              =   0.0000000000000E+00
(PID.TID 0000.0001) %MON seaice_area_mean             =   5.7225845228257E-02
(PID.TID 0000.0001) %MON seaice_area_sd               =   2.2208712270449E-01
(PID.TID 0000.0001) %MON seaice_area_del2             =   3.5693654546560E-04
(PID.TID 0000.0001) %MON seaice_heff_max              =   9.9505053354917E+00
(PID.TID 0000.0001) %MON seaice_heff_min              =   0.0000000000000E+00
(PID.TID 0000.0001) %MON seaice_heff_mean             =   1.5020130510443E-01
(PID.TID 0000.0001) %MON seaice_heff_sd               =   7.2198125712702E-01
(PID.TID 0000.0001) %MON seaice_heff_del2             =   1.6236959190012E-03
(PID.TID 0000.0001) %MON seaice_hsnow_max             =   3.2866625597496E+00
(PID.TID 0000.0001) %MON seaice_hsnow_min             =   0.0000000000000E+00
(PID.TID 0000.0001) %MON seaice_hsnow_mean            =   1.2769228934404E-02
(PID.TID 0000.0001) %MON seaice_hsnow_sd              =   6.9964580605835E-02
(PID.TID 0000.0001) %MON seaice_hsnow_del2            =   4.5987792657430E-04
(PID.TID 0000.0001) // =======================================================
(PID.TID 0000.0001) // End MONITOR SEAICE statistics
(PID.TID 0000.0001) // =======================================================
(PID.TID 0000.0001) // =======================================================
(PID.TID 0000.0001) // Begin MONITOR dynamic field statistics
(PID.TID 0000.0001) // =======================================================
(PID.TID 0000.0001) %MON time_tsnumber                =                174633
(PID.TID 0000.0001) %MON time_secondsf                =   7.8584850000000E+07
(PID.TID 0000.0001) %MON dynstat_eta_max              =   3.6573731340500E+00
(PID.TID 0000.0001) %MON dynstat_eta_min              =  -1.1122411032017E+01
(PID.TID 0000.0001) %MON dynstat_eta_mean             =   6.4377129609437E-02
(PID.TID 0000.0001) %MON dynstat_eta_sd               =   8.1219663101108E-01
(PID.TID 0000.0001) %MON dynstat_eta_del2             =   2.1050851320013E-03
(PID.TID 0000.0001) %MON dynstat_uvel_max             =   2.3875756101855E+00
(PID.TID 0000.0001) %MON dynstat_uvel_min             =  -2.3447040537549E+00
(PID.TID 0000.0001) %MON dynstat_uvel_mean            =   1.2719570200003E-03
(PID.TID 0000.0001) %MON dynstat_uvel_sd              =   3.0235415631556E-02
(PID.TID 0000.0001) %MON dynstat_uvel_del2            =   2.3936528377983E-05
(PID.TID 0000.0001) %MON dynstat_vvel_max             =   1.9404375614149E+00
(PID.TID 0000.0001) %MON dynstat_vvel_min             =  -1.7265975526176E+00
(PID.TID 0000.0001) %MON dynstat_vvel_mean            =  -8.1998237797109E-04
(PID.TID 0000.0001) %MON dynstat_vvel_sd              =   2.9182260929032E-02
(PID.TID 0000.0001) %MON dynstat_vvel_del2            =   2.3943018873767E-05
(PID.TID 0000.0001) %MON dynstat_wvel_max             =   4.9796156144831E-03
(PID.TID 0000.0001) %MON dynstat_wvel_min             =  -5.5154993048463E-03
(PID.TID 0000.0001) %MON dynstat_wvel_mean            =  -3.5380299182537E-07
(PID.TID 0000.0001) %MON dynstat_wvel_sd              =   6.7933203847844E-05
(PID.TID 0000.0001) %MON dynstat_wvel_del2            =   1.1301807050191E-07
(PID.TID 0000.0001) %MON dynstat_theta_max            =   3.2313587804980E+01
(PID.TID 0000.0001) %MON dynstat_theta_min            =  -2.0017339205369E+00
(PID.TID 0000.0001) %MON dynstat_theta_mean           =   3.5922963260523E+00
(PID.TID 0000.0001) %MON dynstat_theta_sd             =   4.4423836190308E+00
(PID.TID 0000.0001) %MON dynstat_theta_del2           =   1.1771121625277E-04
(PID.TID 0000.0001) %MON dynstat_salt_max             =   4.0655995883793E+01
(PID.TID 0000.0001) %MON dynstat_salt_min             =   1.6312100070840E+01
(PID.TID 0000.0001) %MON dynstat_salt_mean            =   3.4724876156051E+01
(PID.TID 0000.0001) %MON dynstat_salt_sd              =   3.7948401486833E-01
(PID.TID 0000.0001) %MON dynstat_salt_del2            =   8.2657331342453E-05
(PID.TID 0000.0001) %MON dynstat_sst_max              =   3.2313587804980E+01
(PID.TID 0000.0001) %MON dynstat_sst_min              =  -2.0017339205369E+00
(PID.TID 0000.0001) %MON dynstat_sst_mean             =   1.8181832147921E+01
(PID.TID 0000.0001) %MON dynstat_sst_sd               =   1.0137513620243E+01
(PID.TID 0000.0001) %MON dynstat_sst_del2             =   1.1570611638903E-03
(PID.TID 0000.0001) %MON dynstat_sss_max              =   3.9483363223055E+01
(PID.TID 0000.0001) %MON dynstat_sss_min              =   1.6312100070840E+01
(PID.TID 0000.0001) %MON dynstat_sss_mean             =   3.4656601302683E+01
(PID.TID 0000.0001) %MON dynstat_sss_sd               =   1.2769232717538E+00
(PID.TID 0000.0001) %MON dynstat_sss_del2             =   1.5188096325944E-03
(PID.TID 0000.0001) %MON forcing_qnet_max             =   4.7390698455086E+03
(PID.TID 0000.0001) %MON forcing_qnet_min             =  -1.7579525390625E+04
(PID.TID 0000.0001) %MON forcing_qnet_mean            =  -2.7461073286540E+01
(PID.TID 0000.0001) %MON forcing_qnet_sd              =   2.9982145439066E+02
(PID.TID 0000.0001) %MON forcing_qnet_del2            =   1.8677157113765E+00
(PID.TID 0000.0001) %MON forcing_qsw_max              =   0.0000000000000E+00
(PID.TID 0000.0001) %MON forcing_qsw_min              =  -1.1393080590745E+02
(PID.TID 0000.0001) %MON forcing_qsw_mean             =  -1.6953371699576E+01
(PID.TID 0000.0001) %MON forcing_qsw_sd               =   2.9147685477528E+01
(PID.TID 0000.0001) %MON forcing_qsw_del2             =   2.3349229090276E-02
(PID.TID 0000.0001) %MON forcing_empmr_max            =   4.8680350184441E-02
(PID.TID 0000.0001) %MON forcing_empmr_min            =  -5.9895206242800E-02
(PID.TID 0000.0001) %MON forcing_empmr_mean           =   3.0012242178929E-05
(PID.TID 0000.0001) %MON forcing_empmr_sd             =   6.5645362026474E-04
(PID.TID 0000.0001) %MON forcing_empmr_del2           =   6.2873081447043E-06
(PID.TID 0000.0001) %MON forcing_fu_max               =   1.1210400515661E+00
(PID.TID 0000.0001) %MON forcing_fu_min               =  -8.8800488127494E-01
(PID.TID 0000.0001) %MON forcing_fu_mean              =   8.6347381098702E-03
(PID.TID 0000.0001) %MON forcing_fu_sd                =   1.1165486953756E-01
(PID.TID 0000.0001) %MON forcing_fu_del2              =   1.7743692457713E-04
(PID.TID 0000.0001) %MON forcing_fv_max               =   1.2335744102493E+00
(PID.TID 0000.0001) %MON forcing_fv_min               =  -1.2748176857911E+00
(PID.TID 0000.0001) %MON forcing_fv_mean              =  -1.9182869255819E-03
(PID.TID 0000.0001) %MON forcing_fv_sd                =   1.0947980898341E-01
(PID.TID 0000.0001) %MON forcing_fv_del2              =   1.6541011907747E-04
(PID.TID 0000.0001) %MON trAdv_CFL_u_max              =   2.8192989537990E-02
(PID.TID 0000.0001) %MON trAdv_CFL_v_max              =   2.4238424409125E-02
(PID.TID 0000.0001) %MON trAdv_CFL_w_max              =   8.2489783668770E-02
(PID.TID 0000.0001) %MON advcfl_uvel_max              =   2.8636119545103E-02
(PID.TID 0000.0001) %MON advcfl_vvel_max              =   2.4273045820373E-02
(PID.TID 0000.0001) %MON advcfl_wvel_max              =   1.6497956733754E-01
(PID.TID 0000.0001) %MON advcfl_W_hf_max              =   7.6951748780129E-02
(PID.TID 0000.0001) %MON pe_b_mean                    =   1.9500001451087E-03
(PID.TID 0000.0001) %MON ke_max                       =   2.1612394765589E+00
(PID.TID 0000.0001) %MON ke_mean                      =   8.5254771677092E-04
(PID.TID 0000.0001) %MON ke_vol                       =   1.3350064351420E+18
(PID.TID 0000.0001) %MON vort_r_min                   =  -5.5263553123959E-05
(PID.TID 0000.0001) %MON vort_r_max                   =   1.1233853530943E-04
(PID.TID 0000.0001) %MON vort_a_mean                  =  -1.9725073380408E-05
(PID.TID 0000.0001) %MON vort_a_sd                    =   7.4538361762698E-05
(PID.TID 0000.0001) %MON vort_p_mean                  =  -2.1669077995632E-05
(PID.TID 0000.0001) %MON vort_p_sd                    =   9.3609920241262E-05
(PID.TID 0000.0001) %MON surfExpan_theta_mean         =   6.5255473674395E-06
(PID.TID 0000.0001) %MON surfExpan_salt_mean          =  -4.7413483358608E-06
(PID.TID 0000.0001) // =======================================================
(PID.TID 0000.0001) // End MONITOR dynamic field statistics
(PID.TID 0000.0001) // =======================================================
(PID.TID 0000.0001) // =======================================================
(PID.TID 0000.0001) // Begin MONITOR SEAICE statistics
(PID.TID 0000.0001) // =======================================================
(PID.TID 0000.0001) %MON seaice_tsnumber              =                174633
(PID.TID 0000.0001) %MON seaice_time_sec              =   7.8584850000000E+07
(PID.TID 0000.0001) %MON seaice_uice_max              =   2.4855795944685E+00
(PID.TID 0000.0001) %MON seaice_uice_min              =  -2.4867911106154E+00
(PID.TID 0000.0001) %MON seaice_uice_mean             =  -1.0980414310355E-03
(PID.TID 0000.0001) %MON seaice_uice_sd               =   1.7535762836103E-01
(PID.TID 0000.0001) %MON seaice_uice_del2             =   4.1429795220944E-04
(PID.TID 0000.0001) %MON seaice_vice_max              =   1.5946732028774E+00
(PID.TID 0000.0001) %MON seaice_vice_min              =  -1.7510958058017E+00
(PID.TID 0000.0001) %MON seaice_vice_mean             =  -2.6238437330154E-02
(PID.TID 0000.0001) %MON seaice_vice_sd               =   1.8182074786319E-01
(PID.TID 0000.0001) %MON seaice_vice_del2             =   4.3629372666637E-04
(PID.TID 0000.0001) %MON seaice_area_max              =   1.0111171753781E+00
(PID.TID 0000.0001) %MON seaice_area_min              =   0.0000000000000E+00
(PID.TID 0000.0001) %MON seaice_area_mean             =   5.7226640895836E-02
(PID.TID 0000.0001) %MON seaice_area_sd               =   2.2207953134419E-01
(PID.TID 0000.0001) %MON seaice_area_del2             =   3.5610828882679E-04
(PID.TID 0000.0001) %MON seaice_heff_max              =   9.9504764668216E+00
(PID.TID 0000.0001) %MON seaice_heff_min              =   0.0000000000000E+00
(PID.TID 0000.0001) %MON seaice_heff_mean             =   1.5020150398065E-01
(PID.TID 0000.0001) %MON seaice_heff_sd               =   7.2198895533682E-01
(PID.TID 0000.0001) %MON seaice_heff_del2             =   1.6210723608840E-03
(PID.TID 0000.0001) %MON seaice_hsnow_max             =   3.2866535057918E+00
(PID.TID 0000.0001) %MON seaice_hsnow_min             =   0.0000000000000E+00
(PID.TID 0000.0001) %MON seaice_hsnow_mean            =   1.2768751009786E-02
(PID.TID 0000.0001) %MON seaice_hsnow_sd              =   6.9953361566210E-02
(PID.TID 0000.0001) %MON seaice_hsnow_del2            =   4.5903831804056E-04
(PID.TID 0000.0001) // =======================================================
(PID.TID 0000.0001) // End MONITOR SEAICE statistics
(PID.TID 0000.0001) // =======================================================
(PID.TID 0000.0001) // =======================================================
(PID.TID 0000.0001) // Begin MONITOR dynamic field statistics
(PID.TID 0000.0001) // =======================================================
(PID.TID 0000.0001) %MON time_tsnumber                =                174634
(PID.TID 0000.0001) %MON time_secondsf                =   7.8585300000000E+07
(PID.TID 0000.0001) %MON dynstat_eta_max              =   3.6382876771270E+00
(PID.TID 0000.0001) %MON dynstat_eta_min              =  -1.1379227870200E+01
(PID.TID 0000.0001) %MON dynstat_eta_mean             =   6.4239598332308E-02
(PID.TID 0000.0001) %MON dynstat_eta_sd               =   8.1284337724668E-01
(PID.TID 0000.0001) %MON dynstat_eta_del2             =   2.1011791359759E-03
(PID.TID 0000.0001) %MON dynstat_uvel_max             =   2.2495053329309E+00
(PID.TID 0000.0001) %MON dynstat_uvel_min             =  -2.1931549716113E+00
(PID.TID 0000.0001) %MON dynstat_uvel_mean            =   1.2297733801925E-03
(PID.TID 0000.0001) %MON dynstat_uvel_sd              =   3.0242508202667E-02
(PID.TID 0000.0001) %MON dynstat_uvel_del2            =   2.3826176575871E-05
(PID.TID 0000.0001) %MON dynstat_vvel_max             =   2.0228042941557E+00
(PID.TID 0000.0001) %MON dynstat_vvel_min             =  -1.7272548682035E+00
(PID.TID 0000.0001) %MON dynstat_vvel_mean            =  -8.5974756603764E-04
(PID.TID 0000.0001) %MON dynstat_vvel_sd              =   2.9171101751470E-02
(PID.TID 0000.0001) %MON dynstat_vvel_del2            =   2.3820810935899E-05
(PID.TID 0000.0001) %MON dynstat_wvel_max             =   5.0484263759356E-03
(PID.TID 0000.0001) %MON dynstat_wvel_min             =  -5.5694908250855E-03
(PID.TID 0000.0001) %MON dynstat_wvel_mean            =  -3.5212274230134E-07
(PID.TID 0000.0001) %MON dynstat_wvel_sd              =   6.8241549266390E-05
(PID.TID 0000.0001) %MON dynstat_wvel_del2            =   1.1426283472912E-07
(PID.TID 0000.0001) %MON dynstat_theta_max            =   3.2319210955883E+01
(PID.TID 0000.0001) %MON dynstat_theta_min            =  -2.0028204130138E+00
(PID.TID 0000.0001) %MON dynstat_theta_mean           =   3.5922963177109E+00
(PID.TID 0000.0001) %MON dynstat_theta_sd             =   4.4423889238677E+00
(PID.TID 0000.0001) %MON dynstat_theta_del2           =   1.1778471889050E-04
(PID.TID 0000.0001) %MON dynstat_salt_max             =   4.0655995872552E+01
(PID.TID 0000.0001) %MON dynstat_salt_min             =   1.6308615373226E+01
(PID.TID 0000.0001) %MON dynstat_salt_mean            =   3.4724875217290E+01
(PID.TID 0000.0001) %MON dynstat_salt_sd              =   3.7948627894833E-01
(PID.TID 0000.0001) %MON dynstat_salt_del2            =   8.2460293893841E-05
(PID.TID 0000.0001) %MON dynstat_sst_max              =   3.2319210955883E+01
(PID.TID 0000.0001) %MON dynstat_sst_min              =  -2.0028204130138E+00
(PID.TID 0000.0001) %MON dynstat_sst_mean             =   1.8181779475826E+01
(PID.TID 0000.0001) %MON dynstat_sst_sd               =   1.0137923660524E+01
(PID.TID 0000.0001) %MON dynstat_sst_del2             =   1.1594301684306E-03
(PID.TID 0000.0001) %MON dynstat_sss_max              =   3.9483387965901E+01
(PID.TID 0000.0001) %MON dynstat_sss_min              =   1.6308615373226E+01
(PID.TID 0000.0001) %MON dynstat_sss_mean             =   3.4656469471438E+01
(PID.TID 0000.0001) %MON dynstat_sss_sd               =   1.2771025600398E+00
(PID.TID 0000.0001) %MON dynstat_sss_del2             =   1.5170531397042E-03
(PID.TID 0000.0001) %MON forcing_qnet_max             =   5.6152636718750E+03
(PID.TID 0000.0001) %MON forcing_qnet_min             =  -1.3434534179688E+04
(PID.TID 0000.0001) %MON forcing_qnet_mean            =  -2.5039164467260E+01
(PID.TID 0000.0001) %MON forcing_qnet_sd              =   2.8576407357090E+02
(PID.TID 0000.0001) %MON forcing_qnet_del2            =   1.6212460337856E+00
(PID.TID 0000.0001) %MON forcing_qsw_max              =   0.0000000000000E+00
(PID.TID 0000.0001) %MON forcing_qsw_min              =  -1.1355674434343E+02
(PID.TID 0000.0001) %MON forcing_qsw_mean             =  -1.6830495671531E+01
(PID.TID 0000.0001) %MON forcing_qsw_sd               =   2.9163226688181E+01
(PID.TID 0000.0001) %MON forcing_qsw_del2             =   2.3179243014237E-02
(PID.TID 0000.0001) %MON forcing_empmr_max            =   5.9739559888840E-01
(PID.TID 0000.0001) %MON forcing_empmr_min            =  -5.8127317577600E-02
(PID.TID 0000.0001) %MON forcing_empmr_mean           =   4.5670605903752E-05
(PID.TID 0000.0001) %MON forcing_empmr_sd             =   3.2975140640660E-03
(PID.TID 0000.0001) %MON forcing_empmr_del2           =   1.5226855587311E-05
(PID.TID 0000.0001) %MON forcing_fu_max               =   1.0876233074385E+00
(PID.TID 0000.0001) %MON forcing_fu_min               =  -9.0385791206030E-01
(PID.TID 0000.0001) %MON forcing_fu_mean              =   8.6506996367341E-03
(PID.TID 0000.0001) %MON forcing_fu_sd                =   1.1179274210386E-01
(PID.TID 0000.0001) %MON forcing_fu_del2              =   1.7515836019001E-04
(PID.TID 0000.0001) %MON forcing_fv_max               =   1.2513047203213E+00
(PID.TID 0000.0001) %MON forcing_fv_min               =  -1.4389070944601E+00
(PID.TID 0000.0001) %MON forcing_fv_mean              =  -1.9114874749338E-03
(PID.TID 0000.0001) %MON forcing_fv_sd                =   1.0954702900734E-01
(PID.TID 0000.0001) %MON forcing_fv_del2              =   1.6418737659033E-04
(PID.TID 0000.0001) %MON trAdv_CFL_u_max              =   2.6562626978773E-02
(PID.TID 0000.0001) %MON trAdv_CFL_v_max              =   2.4625009991974E-02
(PID.TID 0000.0001) %MON trAdv_CFL_w_max              =   7.2727764025752E-02
(PID.TID 0000.0001) %MON advcfl_uvel_max              =   2.6980131375254E-02
(PID.TID 0000.0001) %MON advcfl_vvel_max              =   2.4660183590040E-02
(PID.TID 0000.0001) %MON advcfl_wvel_max              =   1.4545552805150E-01
(PID.TID 0000.0001) %MON advcfl_W_hf_max              =   7.1612950558560E-02
(PID.TID 0000.0001) %MON pe_b_mean                    =   1.9463715926761E-03
(PID.TID 0000.0001) %MON ke_max                       =   2.0640495809682E+00
(PID.TID 0000.0001) %MON ke_mean                      =   8.5242177933578E-04
(PID.TID 0000.0001) %MON ke_vol                       =   1.3350064351420E+18
(PID.TID 0000.0001) %MON vort_r_min                   =  -5.1118347655772E-05
(PID.TID 0000.0001) %MON vort_r_max                   =   1.0546884855153E-04
(PID.TID 0000.0001) %MON vort_a_mean                  =  -1.9725074699334E-05
(PID.TID 0000.0001) %MON vort_a_sd                    =   7.4538367177173E-05
(PID.TID 0000.0001) %MON vort_p_mean                  =  -2.1669079444544E-05
(PID.TID 0000.0001) %MON vort_p_sd                    =   9.3609784299923E-05
(PID.TID 0000.0001) %MON surfExpan_theta_mean         =   7.0102326177745E-06
(PID.TID 0000.0001) %MON surfExpan_salt_mean          =  -5.0355303961389E-06
(PID.TID 0000.0001) // =======================================================
(PID.TID 0000.0001) // End MONITOR dynamic field statistics
(PID.TID 0000.0001) // =======================================================
(PID.TID 0000.0001) // =======================================================
(PID.TID 0000.0001) // Begin MONITOR SEAICE statistics
(PID.TID 0000.0001) // =======================================================
(PID.TID 0000.0001) %MON seaice_tsnumber              =                174634
(PID.TID 0000.0001) %MON seaice_time_sec              =   7.8585300000000E+07
(PID.TID 0000.0001) %MON seaice_uice_max              =   2.3875756101855E+00
(PID.TID 0000.0001) %MON seaice_uice_min              =  -2.3447040537549E+00
(PID.TID 0000.0001) %MON seaice_uice_mean             =  -1.1271593118427E-03
(PID.TID 0000.0001) %MON seaice_uice_sd               =   1.7474013290623E-01
(PID.TID 0000.0001) %MON seaice_uice_del2             =   4.0923590219063E-04
(PID.TID 0000.0001) %MON seaice_vice_max              =   1.6198259747207E+00
(PID.TID 0000.0001) %MON seaice_vice_min              =  -1.7265975526176E+00
(PID.TID 0000.0001) %MON seaice_vice_mean             =  -2.6488886264948E-02
(PID.TID 0000.0001) %MON seaice_vice_sd               =   1.8112208596006E-01
(PID.TID 0000.0001) %MON seaice_vice_del2             =   4.3313945422332E-04
(PID.TID 0000.0001) %MON seaice_area_max              =   1.0115970143761E+00
(PID.TID 0000.0001) %MON seaice_area_min              =   0.0000000000000E+00
(PID.TID 0000.0001) %MON seaice_area_mean             =   5.7227387854673E-02
(PID.TID 0000.0001) %MON seaice_area_sd               =   2.2207208275463E-01
(PID.TID 0000.0001) %MON seaice_area_del2             =   3.5529299378045E-04
(PID.TID 0000.0001) %MON seaice_heff_max              =   9.9504293319170E+00
(PID.TID 0000.0001) %MON seaice_heff_min              =   0.0000000000000E+00
(PID.TID 0000.0001) %MON seaice_heff_mean             =   1.5020157482000E-01
(PID.TID 0000.0001) %MON seaice_heff_sd               =   7.2199582893647E-01
(PID.TID 0000.0001) %MON seaice_heff_del2             =   1.6183907431084E-03
(PID.TID 0000.0001) %MON seaice_hsnow_max             =   3.2866382201908E+00
(PID.TID 0000.0001) %MON seaice_hsnow_min             =   0.0000000000000E+00
(PID.TID 0000.0001) %MON seaice_hsnow_mean            =   1.2768309713675E-02
(PID.TID 0000.0001) %MON seaice_hsnow_sd              =   6.9941872842164E-02
(PID.TID 0000.0001) %MON seaice_hsnow_del2            =   4.5817864292240E-04
(PID.TID 0000.0001) // =======================================================
(PID.TID 0000.0001) // End MONITOR SEAICE statistics
(PID.TID 0000.0001) // =======================================================
(PID.TID 0000.0001) // =======================================================
(PID.TID 0000.0001) // Begin MONITOR dynamic field statistics
(PID.TID 0000.0001) // =======================================================
(PID.TID 0000.0001) %MON time_tsnumber                =                174635
(PID.TID 0000.0001) %MON time_secondsf                =   7.8585750000000E+07
(PID.TID 0000.0001) %MON dynstat_eta_max              =   3.6098645421381E+00
(PID.TID 0000.0001) %MON dynstat_eta_min              =  -1.1543121968417E+01
(PID.TID 0000.0001) %MON dynstat_eta_mean             =   6.4108960034802E-02
(PID.TID 0000.0001) %MON dynstat_eta_sd               =   8.1349608215307E-01
(PID.TID 0000.0001) %MON dynstat_eta_del2             =   2.0984053617349E-03
(PID.TID 0000.0001) %MON dynstat_uvel_max             =   2.1112268896195E+00
(PID.TID 0000.0001) %MON dynstat_uvel_min             =  -2.0335188780142E+00
(PID.TID 0000.0001) %MON dynstat_uvel_mean            =   1.1855607341041E-03
(PID.TID 0000.0001) %MON dynstat_uvel_sd              =   3.0246638081620E-02
(PID.TID 0000.0001) %MON dynstat_uvel_del2            =   2.3709945422668E-05
(PID.TID 0000.0001) %MON dynstat_vvel_max             =   2.0903274192526E+00
(PID.TID 0000.0001) %MON dynstat_vvel_min             =  -1.7715807020298E+00
(PID.TID 0000.0001) %MON dynstat_vvel_mean            =  -8.9296450921647E-04
(PID.TID 0000.0001) %MON dynstat_vvel_sd              =   2.9168887815093E-02
(PID.TID 0000.0001) %MON dynstat_vvel_del2            =   2.3685793046435E-05
(PID.TID 0000.0001) %MON dynstat_wvel_max             =   5.1100122903443E-03
(PID.TID 0000.0001) %MON dynstat_wvel_min             =  -5.6289321661840E-03
(PID.TID 0000.0001) %MON dynstat_wvel_mean            =  -3.4952711484793E-07
(PID.TID 0000.0001) %MON dynstat_wvel_sd              =   6.8582976376308E-05
(PID.TID 0000.0001) %MON dynstat_wvel_del2            =   1.1567746506416E-07
(PID.TID 0000.0001) %MON dynstat_theta_max            =   3.2324819340813E+01
(PID.TID 0000.0001) %MON dynstat_theta_min            =  -2.0038514043365E+00
(PID.TID 0000.0001) %MON dynstat_theta_mean           =   3.5922961252460E+00
(PID.TID 0000.0001) %MON dynstat_theta_sd             =   4.4423932173300E+00
(PID.TID 0000.0001) %MON dynstat_theta_del2           =   1.1784197926730E-04
(PID.TID 0000.0001) %MON dynstat_salt_max             =   4.0655995866400E+01
(PID.TID 0000.0001) %MON dynstat_salt_min             =   1.6305354644779E+01
(PID.TID 0000.0001) %MON dynstat_salt_mean            =   3.4724874308934E+01
(PID.TID 0000.0001) %MON dynstat_salt_sd              =   3.7948854869131E-01
(PID.TID 0000.0001) %MON dynstat_salt_del2            =   8.2269034585008E-05
(PID.TID 0000.0001) %MON dynstat_sst_max              =   3.2324819340813E+01
(PID.TID 0000.0001) %MON dynstat_sst_min              =  -2.0038514043365E+00
(PID.TID 0000.0001) %MON dynstat_sst_mean             =   1.8181691336121E+01
(PID.TID 0000.0001) %MON dynstat_sst_sd               =   1.0138293674179E+01
(PID.TID 0000.0001) %MON dynstat_sst_del2             =   1.1607875518578E-03
(PID.TID 0000.0001) %MON dynstat_sss_max              =   3.9483406500295E+01
(PID.TID 0000.0001) %MON dynstat_sss_min              =   1.6305354644779E+01
(PID.TID 0000.0001) %MON dynstat_sss_mean             =   3.4656338974844E+01
(PID.TID 0000.0001) %MON dynstat_sss_sd               =   1.2772816815178E+00
(PID.TID 0000.0001) %MON dynstat_sss_del2             =   1.5153800386637E-03
(PID.TID 0000.0001) %MON forcing_qnet_max             =   8.6223564453125E+03
(PID.TID 0000.0001) %MON forcing_qnet_min             =  -5.8061166992188E+03
(PID.TID 0000.0001) %MON forcing_qnet_mean            =  -2.2164816885778E+01
(PID.TID 0000.0001) %MON forcing_qnet_sd              =   2.7843468238799E+02
(PID.TID 0000.0001) %MON forcing_qnet_del2            =   1.3849362652372E+00
(PID.TID 0000.0001) %MON forcing_qsw_max              =   0.0000000000000E+00
(PID.TID 0000.0001) %MON forcing_qsw_min              =  -1.1306645636286E+02
(PID.TID 0000.0001) %MON forcing_qsw_mean             =  -1.6699815526621E+01
(PID.TID 0000.0001) %MON forcing_qsw_sd               =   2.9164291137047E+01
(PID.TID 0000.0001) %MON forcing_qsw_del2             =   2.2999201538375E-02
(PID.TID 0000.0001) %MON forcing_empmr_max            =   7.0308804512024E-02
(PID.TID 0000.0001) %MON forcing_empmr_min            =  -5.7706069201231E-02
(PID.TID 0000.0001) %MON forcing_empmr_mean           =   2.9814448747440E-05
(PID.TID 0000.0001) %MON forcing_empmr_sd             =   7.3675528111497E-04
(PID.TID 0000.0001) %MON forcing_empmr_del2           =   6.3703495452478E-06
(PID.TID 0000.0001) %MON forcing_fu_max               =   1.1024256727631E+00
(PID.TID 0000.0001) %MON forcing_fu_min               =  -9.4758527233891E-01
(PID.TID 0000.0001) %MON forcing_fu_mean              =   8.6495973413124E-03
(PID.TID 0000.0001) %MON forcing_fu_sd                =   1.1186812063911E-01
(PID.TID 0000.0001) %MON forcing_fu_del2              =   1.7297023838499E-04
(PID.TID 0000.0001) %MON forcing_fv_max               =   1.2354371342179E+00
(PID.TID 0000.0001) %MON forcing_fv_min               =  -1.5520963602516E+00
(PID.TID 0000.0001) %MON forcing_fv_mean              =  -1.9050991083153E-03
(PID.TID 0000.0001) %MON forcing_fv_sd                =   1.0962035230492E-01
(PID.TID 0000.0001) %MON forcing_fv_del2              =   1.6291520700228E-04
(PID.TID 0000.0001) %MON trAdv_CFL_u_max              =   2.4454402437970E-02
(PID.TID 0000.0001) %MON trAdv_CFL_v_max              =   2.4578145516234E-02
(PID.TID 0000.0001) %MON trAdv_CFL_w_max              =   6.8256748350782E-02
(PID.TID 0000.0001) %MON advcfl_uvel_max              =   2.4838770314661E-02
(PID.TID 0000.0001) %MON advcfl_vvel_max              =   2.4613252174541E-02
(PID.TID 0000.0001) %MON advcfl_wvel_max              =   1.3651349670156E-01
(PID.TID 0000.0001) %MON advcfl_W_hf_max              =   6.6417731673767E-02
(PID.TID 0000.0001) %MON pe_b_mean                    =   1.9427994007470E-03
(PID.TID 0000.0001) %MON ke_max                       =   1.9575515155093E+00
(PID.TID 0000.0001) %MON ke_mean                      =   8.5245647361384E-04
(PID.TID 0000.0001) %MON ke_vol                       =   1.3350064351420E+18
(PID.TID 0000.0001) %MON vort_r_min                   =  -5.1711399770952E-05
(PID.TID 0000.0001) %MON vort_r_max                   =   9.6514177374272E-05
(PID.TID 0000.0001) %MON vort_a_mean                  =  -1.9725075985164E-05
(PID.TID 0000.0001) %MON vort_a_sd                    =   7.4538374012750E-05
(PID.TID 0000.0001) %MON vort_p_mean                  =  -2.1669080857100E-05
(PID.TID 0000.0001) %MON vort_p_sd                    =   9.3609647277542E-05
(PID.TID 0000.0001) %MON surfExpan_theta_mean         =   7.4851594926158E-06
(PID.TID 0000.0001) %MON surfExpan_salt_mean          =  -5.2980923805579E-06
(PID.TID 0000.0001) // =======================================================
(PID.TID 0000.0001) // End MONITOR dynamic field statistics
(PID.TID 0000.0001) // =======================================================
(PID.TID 0000.0001) // =======================================================
(PID.TID 0000.0001) // Begin MONITOR SEAICE statistics
(PID.TID 0000.0001) // =======================================================
(PID.TID 0000.0001) %MON seaice_tsnumber              =                174635
(PID.TID 0000.0001) %MON seaice_time_sec              =   7.8585750000000E+07
(PID.TID 0000.0001) %MON seaice_uice_max              =   2.2495053329309E+00
(PID.TID 0000.0001) %MON seaice_uice_min              =  -2.1931549716113E+00
(PID.TID 0000.0001) %MON seaice_uice_mean             =  -1.1632214841399E-03
(PID.TID 0000.0001) %MON seaice_uice_sd               =   1.7411713019228E-01
(PID.TID 0000.0001) %MON seaice_uice_del2             =   4.0394835396421E-04
(PID.TID 0000.0001) %MON seaice_vice_max              =   1.6821041340390E+00
(PID.TID 0000.0001) %MON seaice_vice_min              =  -1.7272548682035E+00
(PID.TID 0000.0001) %MON seaice_vice_mean             =  -2.6735462554258E-02
(PID.TID 0000.0001) %MON seaice_vice_sd               =   1.8045819094708E-01
(PID.TID 0000.0001) %MON seaice_vice_del2             =   4.2901992858237E-04
(PID.TID 0000.0001) %MON seaice_area_max              =   1.0119542360563E+00
(PID.TID 0000.0001) %MON seaice_area_min              =   0.0000000000000E+00
(PID.TID 0000.0001) %MON seaice_area_mean             =   5.7228081655931E-02
(PID.TID 0000.0001) %MON seaice_area_sd               =   2.2206466625451E-01
(PID.TID 0000.0001) %MON seaice_area_del2             =   3.5448697507814E-04
(PID.TID 0000.0001) %MON seaice_heff_max              =   9.9504011499286E+00
(PID.TID 0000.0001) %MON seaice_heff_min              =   0.0000000000000E+00
(PID.TID 0000.0001) %MON seaice_heff_mean             =   1.5020151075279E-01
(PID.TID 0000.0001) %MON seaice_heff_sd               =   7.2200162559592E-01
(PID.TID 0000.0001) %MON seaice_heff_del2             =   1.6156002562106E-03
(PID.TID 0000.0001) %MON seaice_hsnow_max             =   3.2866290616158E+00
(PID.TID 0000.0001) %MON seaice_hsnow_min             =   0.0000000000000E+00
(PID.TID 0000.0001) %MON seaice_hsnow_mean            =   1.2767861568968E-02
(PID.TID 0000.0001) %MON seaice_hsnow_sd              =   6.9929794323502E-02
(PID.TID 0000.0001) %MON seaice_hsnow_del2            =   4.5727873831353E-04
(PID.TID 0000.0001) // =======================================================
(PID.TID 0000.0001) // End MONITOR SEAICE statistics
(PID.TID 0000.0001) // =======================================================
(PID.TID 0000.0001) // =======================================================
(PID.TID 0000.0001) // Begin MONITOR dynamic field statistics
(PID.TID 0000.0001) // =======================================================
(PID.TID 0000.0001) %MON time_tsnumber                =                174636
(PID.TID 0000.0001) %MON time_secondsf                =   7.8586200000000E+07
(PID.TID 0000.0001) %MON dynstat_eta_max              =   3.5296412420043E+00
(PID.TID 0000.0001) %MON dynstat_eta_min              =  -1.1702668081392E+01
(PID.TID 0000.0001) %MON dynstat_eta_mean             =   6.3979698905011E-02
(PID.TID 0000.0001) %MON dynstat_eta_sd               =   8.1412520285309E-01
(PID.TID 0000.0001) %MON dynstat_eta_del2             =   2.0965853076993E-03
(PID.TID 0000.0001) %MON dynstat_uvel_max             =   2.0640323346885E+00
(PID.TID 0000.0001) %MON dynstat_uvel_min             =  -1.8672008588137E+00
(PID.TID 0000.0001) %MON dynstat_uvel_mean            =   1.1399359662209E-03
(PID.TID 0000.0001) %MON dynstat_uvel_sd              =   3.0249539256620E-02
(PID.TID 0000.0001) %MON dynstat_uvel_del2            =   2.3596983100161E-05
(PID.TID 0000.0001) %MON dynstat_vvel_max             =   2.1423425743823E+00
(PID.TID 0000.0001) %MON dynstat_vvel_min             =  -1.7952504030593E+00
(PID.TID 0000.0001) %MON dynstat_vvel_mean            =  -9.1949615485193E-04
(PID.TID 0000.0001) %MON dynstat_vvel_sd              =   2.9176414796747E-02
(PID.TID 0000.0001) %MON dynstat_vvel_del2            =   2.3548054830674E-05
(PID.TID 0000.0001) %MON dynstat_wvel_max             =   5.1656085261890E-03
(PID.TID 0000.0001) %MON dynstat_wvel_min             =  -5.6947272820636E-03
(PID.TID 0000.0001) %MON dynstat_wvel_mean            =  -3.4577889518155E-07
(PID.TID 0000.0001) %MON dynstat_wvel_sd              =   6.8949689314238E-05
(PID.TID 0000.0001) %MON dynstat_wvel_del2            =   1.1724054131927E-07
(PID.TID 0000.0001) %MON dynstat_theta_max            =   3.2330395393706E+01
(PID.TID 0000.0001) %MON dynstat_theta_min            =  -2.0048339677372E+00
(PID.TID 0000.0001) %MON dynstat_theta_mean           =   3.5922958285107E+00
(PID.TID 0000.0001) %MON dynstat_theta_sd             =   4.4423968827728E+00
(PID.TID 0000.0001) %MON dynstat_theta_del2           =   1.1789004414148E-04
(PID.TID 0000.0001) %MON dynstat_salt_max             =   4.0655995865277E+01
(PID.TID 0000.0001) %MON dynstat_salt_min             =   1.6302378214193E+01
(PID.TID 0000.0001) %MON dynstat_salt_mean            =   3.4724873438907E+01
(PID.TID 0000.0001) %MON dynstat_salt_sd              =   3.7949080936109E-01
(PID.TID 0000.0001) %MON dynstat_salt_del2            =   8.2082950862379E-05
(PID.TID 0000.0001) %MON dynstat_sst_max              =   3.2330395393706E+01
(PID.TID 0000.0001) %MON dynstat_sst_min              =  -2.0048339677372E+00
(PID.TID 0000.0001) %MON dynstat_sst_mean             =   1.8181600062069E+01
(PID.TID 0000.0001) %MON dynstat_sst_sd               =   1.0138661242766E+01
(PID.TID 0000.0001) %MON dynstat_sst_del2             =   1.1619223671184E-03
(PID.TID 0000.0001) %MON dynstat_sss_max              =   3.9483419776000E+01
(PID.TID 0000.0001) %MON dynstat_sss_min              =   1.6302378214193E+01
(PID.TID 0000.0001) %MON dynstat_sss_mean             =   3.4656210076050E+01
(PID.TID 0000.0001) %MON dynstat_sss_sd               =   1.2774626780701E+00
(PID.TID 0000.0001) %MON dynstat_sss_del2             =   1.5137756814010E-03
(PID.TID 0000.0001) %MON forcing_qnet_max             =   5.8727055664062E+03
(PID.TID 0000.0001) %MON forcing_qnet_min             =  -1.7706023437500E+04
(PID.TID 0000.0001) %MON forcing_qnet_mean            =  -2.0606592364975E+01
(PID.TID 0000.0001) %MON forcing_qnet_sd              =   2.8691956970585E+02
(PID.TID 0000.0001) %MON forcing_qnet_del2            =   1.7905294486163E+00
(PID.TID 0000.0001) %MON forcing_qsw_max              =   0.0000000000000E+00
(PID.TID 0000.0001) %MON forcing_qsw_min              =  -1.1258649258348E+02
(PID.TID 0000.0001) %MON forcing_qsw_mean             =  -1.6561318397856E+01
(PID.TID 0000.0001) %MON forcing_qsw_sd               =   2.9150787580165E+01
(PID.TID 0000.0001) %MON forcing_qsw_del2             =   2.2809547573551E-02
(PID.TID 0000.0001) %MON forcing_empmr_max            =   7.5641997158527E-02
(PID.TID 0000.0001) %MON forcing_empmr_min            =  -5.7439778000116E-02
(PID.TID 0000.0001) %MON forcing_empmr_mean           =   2.7959005607902E-05
(PID.TID 0000.0001) %MON forcing_empmr_sd             =   6.5969789583288E-04
(PID.TID 0000.0001) %MON forcing_empmr_del2           =   6.1884296577517E-06
(PID.TID 0000.0001) %MON forcing_fu_max               =   1.0928564507994E+00
(PID.TID 0000.0001) %MON forcing_fu_min               =  -9.8344331368279E-01
(PID.TID 0000.0001) %MON forcing_fu_mean              =   8.6551694829677E-03
(PID.TID 0000.0001) %MON forcing_fu_sd                =   1.1198771671467E-01
(PID.TID 0000.0001) %MON forcing_fu_del2              =   1.7107432152294E-04
(PID.TID 0000.0001) %MON forcing_fv_max               =   1.1915692381649E+00
(PID.TID 0000.0001) %MON forcing_fv_min               =  -1.6164578231139E+00
(PID.TID 0000.0001) %MON forcing_fv_mean              =  -1.9010703852068E-03
(PID.TID 0000.0001) %MON forcing_fv_sd                =   1.0972742921744E-01
(PID.TID 0000.0001) %MON forcing_fv_del2              =   1.6203649634023E-04
(PID.TID 0000.0001) %MON trAdv_CFL_u_max              =   2.1886367781388E-02
(PID.TID 0000.0001) %MON trAdv_CFL_v_max              =   2.3943229122857E-02
(PID.TID 0000.0001) %MON trAdv_CFL_w_max              =   6.2012186309226E-02
(PID.TID 0000.0001) %MON advcfl_uvel_max              =   2.2230371963618E-02
(PID.TID 0000.0001) %MON advcfl_vvel_max              =   2.3977428886342E-02
(PID.TID 0000.0001) %MON advcfl_wvel_max              =   1.2402437261845E-01
(PID.TID 0000.0001) %MON advcfl_W_hf_max              =   6.0443616607541E-02
(PID.TID 0000.0001) %MON pe_b_mean                    =   1.9390649464092E-03
(PID.TID 0000.0001) %MON ke_max                       =   2.0144433557822E+00
(PID.TID 0000.0001) %MON ke_mean                      =   8.5272485960803E-04
(PID.TID 0000.0001) %MON ke_vol                       =   1.3350064351420E+18
(PID.TID 0000.0001) %MON vort_r_min                   =  -5.2209019758551E-05
(PID.TID 0000.0001) %MON vort_r_max                   =   8.5596146337963E-05
(PID.TID 0000.0001) %MON vort_a_mean                  =  -1.9725077215219E-05
(PID.TID 0000.0001) %MON vort_a_sd                    =   7.4538382325822E-05
(PID.TID 0000.0001) %MON vort_p_mean                  =  -2.1669082208383E-05
(PID.TID 0000.0001) %MON vort_p_sd                    =   9.3609510190680E-05
(PID.TID 0000.0001) %MON surfExpan_theta_mean         =   7.9779556811407E-06
(PID.TID 0000.0001) %MON surfExpan_salt_mean          =  -5.5121223572537E-06
(PID.TID 0000.0001) // =======================================================
(PID.TID 0000.0001) // End MONITOR dynamic field statistics
(PID.TID 0000.0001) // =======================================================
(PID.TID 0000.0001) // =======================================================
(PID.TID 0000.0001) // Begin MONITOR SEAICE statistics
(PID.TID 0000.0001) // =======================================================
(PID.TID 0000.0001) %MON seaice_tsnumber              =                174636
(PID.TID 0000.0001) %MON seaice_time_sec              =   7.8586200000000E+07
(PID.TID 0000.0001) %MON seaice_uice_max              =   2.0709664274475E+00
(PID.TID 0000.0001) %MON seaice_uice_min              =  -2.0335188780142E+00
(PID.TID 0000.0001) %MON seaice_uice_mean             =  -1.2073767886983E-03
(PID.TID 0000.0001) %MON seaice_uice_sd               =   1.7349751206491E-01
(PID.TID 0000.0001) %MON seaice_uice_del2             =   3.9855576253035E-04
(PID.TID 0000.0001) %MON seaice_vice_max              =   1.7480494638779E+00
(PID.TID 0000.0001) %MON seaice_vice_min              =  -1.7715807020298E+00
(PID.TID 0000.0001) %MON seaice_vice_mean             =  -2.6965174160729E-02
(PID.TID 0000.0001) %MON seaice_vice_sd               =   1.7978605132868E-01
(PID.TID 0000.0001) %MON seaice_vice_del2             =   4.2397005904497E-04
(PID.TID 0000.0001) %MON seaice_area_max              =   1.0121805420631E+00
(PID.TID 0000.0001) %MON seaice_area_min              =   0.0000000000000E+00
(PID.TID 0000.0001) %MON seaice_area_mean             =   5.7228745659733E-02
(PID.TID 0000.0001) %MON seaice_area_sd               =   2.2205728493220E-01
(PID.TID 0000.0001) %MON seaice_area_del2             =   3.5367768888025E-04
(PID.TID 0000.0001) %MON seaice_heff_max              =   9.9503547259819E+00
(PID.TID 0000.0001) %MON seaice_heff_min              =   0.0000000000000E+00
(PID.TID 0000.0001) %MON seaice_heff_mean             =   1.5020130482139E-01
(PID.TID 0000.0001) %MON seaice_heff_sd               =   7.2200607382737E-01
(PID.TID 0000.0001) %MON seaice_heff_del2             =   1.6126452017647E-03
(PID.TID 0000.0001) %MON seaice_hsnow_max             =   3.2866146434704E+00
(PID.TID 0000.0001) %MON seaice_hsnow_min             =   0.0000000000000E+00
(PID.TID 0000.0001) %MON seaice_hsnow_mean            =   1.2767431375040E-02
(PID.TID 0000.0001) %MON seaice_hsnow_sd              =   6.9916855303355E-02
(PID.TID 0000.0001) %MON seaice_hsnow_del2            =   4.5631650677259E-04
(PID.TID 0000.0001) // =======================================================
(PID.TID 0000.0001) // End MONITOR SEAICE statistics
(PID.TID 0000.0001) // =======================================================
(PID.TID 0000.0001) // =======================================================
(PID.TID 0000.0001) // Begin MONITOR dynamic field statistics
(PID.TID 0000.0001) // =======================================================
(PID.TID 0000.0001) %MON time_tsnumber                =                174637
(PID.TID 0000.0001) %MON time_secondsf                =   7.8586650000000E+07
(PID.TID 0000.0001) %MON dynstat_eta_max              =   3.3996850272559E+00
(PID.TID 0000.0001) %MON dynstat_eta_min              =  -1.1814279192830E+01
(PID.TID 0000.0001) %MON dynstat_eta_mean             =   6.3851526969353E-02
(PID.TID 0000.0001) %MON dynstat_eta_sd               =   8.1470986204280E-01
(PID.TID 0000.0001) %MON dynstat_eta_del2             =   2.0954831701645E-03
(PID.TID 0000.0001) %MON dynstat_uvel_max             =   1.9937589511054E+00
(PID.TID 0000.0001) %MON dynstat_uvel_min             =  -1.7221094824454E+00
(PID.TID 0000.0001) %MON dynstat_uvel_mean            =   1.0936321515349E-03
(PID.TID 0000.0001) %MON dynstat_uvel_sd              =   3.0252543125973E-02
(PID.TID 0000.0001) %MON dynstat_uvel_del2            =   2.3496776284144E-05
(PID.TID 0000.0001) %MON dynstat_vvel_max             =   2.1784656506206E+00
(PID.TID 0000.0001) %MON dynstat_vvel_min             =  -1.7987786348081E+00
(PID.TID 0000.0001) %MON dynstat_vvel_mean            =  -9.3931874455099E-04
(PID.TID 0000.0001) %MON dynstat_vvel_sd              =   2.9193100415348E-02
(PID.TID 0000.0001) %MON dynstat_vvel_del2            =   2.3416934871834E-05
(PID.TID 0000.0001) %MON dynstat_wvel_max             =   5.2164254142003E-03
(PID.TID 0000.0001) %MON dynstat_wvel_min             =  -5.7673832026937E-03
(PID.TID 0000.0001) %MON dynstat_wvel_mean            =  -3.4130554116077E-07
(PID.TID 0000.0001) %MON dynstat_wvel_sd              =   6.9333098786704E-05
(PID.TID 0000.0001) %MON dynstat_wvel_del2            =   1.1892316720215E-07
(PID.TID 0000.0001) %MON dynstat_theta_max            =   3.2335870906634E+01
(PID.TID 0000.0001) %MON dynstat_theta_min            =  -2.0057620842971E+00
(PID.TID 0000.0001) %MON dynstat_theta_mean           =   3.5922953471101E+00
(PID.TID 0000.0001) %MON dynstat_theta_sd             =   4.4423995514681E+00
(PID.TID 0000.0001) %MON dynstat_theta_del2           =   1.1791815621284E-04
(PID.TID 0000.0001) %MON dynstat_salt_max             =   4.0655995865264E+01
(PID.TID 0000.0001) %MON dynstat_salt_min             =   1.6299757151893E+01
(PID.TID 0000.0001) %MON dynstat_salt_mean            =   3.4724872597913E+01
(PID.TID 0000.0001) %MON dynstat_salt_sd              =   3.7949303726285E-01
(PID.TID 0000.0001) %MON dynstat_salt_del2            =   8.1901304221005E-05
(PID.TID 0000.0001) %MON dynstat_sst_max              =   3.2335870906634E+01
(PID.TID 0000.0001) %MON dynstat_sst_min              =  -2.0057620842971E+00
(PID.TID 0000.0001) %MON dynstat_sst_mean             =   1.8181466561287E+01
(PID.TID 0000.0001) %MON dynstat_sst_sd               =   1.0138984712843E+01
(PID.TID 0000.0001) %MON dynstat_sst_del2             =   1.1621086044435E-03
(PID.TID 0000.0001) %MON dynstat_sss_max              =   3.9483428112000E+01
(PID.TID 0000.0001) %MON dynstat_sss_min              =   1.6299757151893E+01
(PID.TID 0000.0001) %MON dynstat_sss_mean             =   3.4656082001979E+01
(PID.TID 0000.0001) %MON dynstat_sss_sd               =   1.2776416618836E+00
(PID.TID 0000.0001) %MON dynstat_sss_del2             =   1.5122326959999E-03
(PID.TID 0000.0001) %MON forcing_qnet_max             =   8.0564028320312E+03
(PID.TID 0000.0001) %MON forcing_qnet_min             =  -1.8278861328125E+04
(PID.TID 0000.0001) %MON forcing_qnet_mean            =  -1.6247071278073E+01
(PID.TID 0000.0001) %MON forcing_qnet_sd              =   2.8091212830268E+02
(PID.TID 0000.0001) %MON forcing_qnet_del2            =   1.6518238696461E+00
(PID.TID 0000.0001) %MON forcing_qsw_max              =   0.0000000000000E+00
(PID.TID 0000.0001) %MON forcing_qsw_min              =  -1.1259502000429E+02
(PID.TID 0000.0001) %MON forcing_qsw_mean             =  -1.6176181105490E+01
(PID.TID 0000.0001) %MON forcing_qsw_sd               =   2.9212873169096E+01
(PID.TID 0000.0001) %MON forcing_qsw_del2             =   2.2385087052216E-02
(PID.TID 0000.0001) %MON forcing_empmr_max            =   8.7761193513870E-02
(PID.TID 0000.0001) %MON forcing_empmr_min            =  -5.8986347168684E-02
(PID.TID 0000.0001) %MON forcing_empmr_mean           =   2.7516313151435E-05
(PID.TID 0000.0001) %MON forcing_empmr_sd             =   6.9147221776743E-04
(PID.TID 0000.0001) %MON forcing_empmr_del2           =   6.2473976091419E-06
(PID.TID 0000.0001) %MON forcing_fu_max               =   1.0702207700199E+00
(PID.TID 0000.0001) %MON forcing_fu_min               =  -1.0081339937618E+00
(PID.TID 0000.0001) %MON forcing_fu_mean              =   8.6504515842849E-03
(PID.TID 0000.0001) %MON forcing_fu_sd                =   1.1208609300486E-01
(PID.TID 0000.0001) %MON forcing_fu_del2              =   1.6971948554643E-04
(PID.TID 0000.0001) %MON forcing_fv_max               =   1.1257222366047E+00
(PID.TID 0000.0001) %MON forcing_fv_min               =  -1.6383212461364E+00
(PID.TID 0000.0001) %MON forcing_fv_mean              =  -1.8969748882779E-03
(PID.TID 0000.0001) %MON forcing_fv_sd                =   1.0983353815656E-01
(PID.TID 0000.0001) %MON forcing_fv_del2              =   1.6171154233651E-04
(PID.TID 0000.0001) %MON trAdv_CFL_u_max              =   1.8898770731446E-02
(PID.TID 0000.0001) %MON trAdv_CFL_v_max              =   2.2630288203566E-02
(PID.TID 0000.0001) %MON trAdv_CFL_w_max              =   5.8717320848396E-02
(PID.TID 0000.0001) %MON advcfl_uvel_max              =   1.9195816647679E-02
(PID.TID 0000.0001) %MON advcfl_vvel_max              =   2.2662612603094E-02
(PID.TID 0000.0001) %MON advcfl_wvel_max              =   1.0772635910555E-01
(PID.TID 0000.0001) %MON advcfl_W_hf_max              =   5.8717320848396E-02
(PID.TID 0000.0001) %MON pe_b_mean                    =   1.9351094829009E-03
(PID.TID 0000.0001) %MON ke_max                       =   2.0529155792287E+00
(PID.TID 0000.0001) %MON ke_mean                      =   8.5325000514050E-04
(PID.TID 0000.0001) %MON ke_vol                       =   1.3350064351420E+18
(PID.TID 0000.0001) %MON vort_r_min                   =  -5.2633087435633E-05
(PID.TID 0000.0001) %MON vort_r_max                   =   7.2922048043192E-05
(PID.TID 0000.0001) %MON vort_a_mean                  =  -1.9725078365643E-05
(PID.TID 0000.0001) %MON vort_a_sd                    =   7.4538392087789E-05
(PID.TID 0000.0001) %MON vort_p_mean                  =  -2.1669083472187E-05
(PID.TID 0000.0001) %MON vort_p_sd                    =   9.3609373379309E-05
(PID.TID 0000.0001) %MON surfExpan_theta_mean         =   8.4906603513626E-06
(PID.TID 0000.0001) %MON surfExpan_salt_mean          =  -5.6965555555079E-06
(PID.TID 0000.0001) // =======================================================
(PID.TID 0000.0001) // End MONITOR dynamic field statistics
(PID.TID 0000.0001) // =======================================================
(PID.TID 0000.0001) // =======================================================
(PID.TID 0000.0001) // Begin MONITOR SEAICE statistics
(PID.TID 0000.0001) // =======================================================
(PID.TID 0000.0001) %MON seaice_tsnumber              =                174637
(PID.TID 0000.0001) %MON seaice_time_sec              =   7.8586650000000E+07
(PID.TID 0000.0001) %MON seaice_uice_max              =   1.9755069584108E+00
(PID.TID 0000.0001) %MON seaice_uice_min              =  -1.8672008588137E+00
(PID.TID 0000.0001) %MON seaice_uice_mean             =  -1.2586770162634E-03
(PID.TID 0000.0001) %MON seaice_uice_sd               =   1.7288358436734E-01
(PID.TID 0000.0001) %MON seaice_uice_del2             =   3.9318568727833E-04
(PID.TID 0000.0001) %MON seaice_vice_max              =   1.7985912311608E+00
(PID.TID 0000.0001) %MON seaice_vice_min              =  -1.7952504030593E+00
(PID.TID 0000.0001) %MON seaice_vice_mean             =  -2.7182687090182E-02
(PID.TID 0000.0001) %MON seaice_vice_sd               =   1.7914014239361E-01
(PID.TID 0000.0001) %MON seaice_vice_del2             =   4.1818004787745E-04
(PID.TID 0000.0001) %MON seaice_area_max              =   1.0122707878272E+00
(PID.TID 0000.0001) %MON seaice_area_min              =   0.0000000000000E+00
(PID.TID 0000.0001) %MON seaice_area_mean             =   5.7229371137828E-02
(PID.TID 0000.0001) %MON seaice_area_sd               =   2.2204974540218E-01
(PID.TID 0000.0001) %MON seaice_area_del2             =   3.5286363624134E-04
(PID.TID 0000.0001) %MON seaice_heff_max              =   9.9503320393129E+00
(PID.TID 0000.0001) %MON seaice_heff_min              =   0.0000000000000E+00
(PID.TID 0000.0001) %MON seaice_heff_mean             =   1.5020095786832E-01
(PID.TID 0000.0001) %MON seaice_heff_sd               =   7.2200913167815E-01
(PID.TID 0000.0001) %MON seaice_heff_del2             =   1.6095656869486E-03
(PID.TID 0000.0001) %MON seaice_hsnow_max             =   3.2866071253563E+00
(PID.TID 0000.0001) %MON seaice_hsnow_min             =   0.0000000000000E+00
(PID.TID 0000.0001) %MON seaice_hsnow_mean            =   1.2767003574252E-02
(PID.TID 0000.0001) %MON seaice_hsnow_sd              =   6.9902995311081E-02
(PID.TID 0000.0001) %MON seaice_hsnow_del2            =   4.5530781635339E-04
(PID.TID 0000.0001) // =======================================================
(PID.TID 0000.0001) // End MONITOR SEAICE statistics
(PID.TID 0000.0001) // =======================================================
(PID.TID 0000.0001) // =======================================================
(PID.TID 0000.0001) // Begin MONITOR dynamic field statistics
(PID.TID 0000.0001) // =======================================================
(PID.TID 0000.0001) %MON time_tsnumber                =                174638
(PID.TID 0000.0001) %MON time_secondsf                =   7.8587100000000E+07
(PID.TID 0000.0001) %MON dynstat_eta_max              =   3.7908050687077E+00
(PID.TID 0000.0001) %MON dynstat_eta_min              =  -1.1854356625612E+01
(PID.TID 0000.0001) %MON dynstat_eta_mean             =   6.3724706253163E-02
(PID.TID 0000.0001) %MON dynstat_eta_sd               =   8.1523581806428E-01
(PID.TID 0000.0001) %MON dynstat_eta_del2             =   2.0948405112892E-03
(PID.TID 0000.0001) %MON dynstat_uvel_max             =   1.9413110489061E+00
(PID.TID 0000.0001) %MON dynstat_uvel_min             =  -1.6944362122725E+00
(PID.TID 0000.0001) %MON dynstat_uvel_mean            =   1.0474787382411E-03
(PID.TID 0000.0001) %MON dynstat_uvel_sd              =   3.0256950177587E-02
(PID.TID 0000.0001) %MON dynstat_uvel_del2            =   2.3417479445340E-05
(PID.TID 0000.0001) %MON dynstat_vvel_max             =   2.1985612538534E+00
(PID.TID 0000.0001) %MON dynstat_vvel_min             =  -1.7828852146928E+00
(PID.TID 0000.0001) %MON dynstat_vvel_mean            =  -9.5251075176883E-04
(PID.TID 0000.0001) %MON dynstat_vvel_sd              =   2.9219480337673E-02
(PID.TID 0000.0001) %MON dynstat_vvel_del2            =   2.3300852730425E-05
(PID.TID 0000.0001) %MON dynstat_wvel_max             =   5.2636173960704E-03
(PID.TID 0000.0001) %MON dynstat_wvel_min             =  -5.8470237148147E-03
(PID.TID 0000.0001) %MON dynstat_wvel_mean            =  -3.3603548483063E-07
(PID.TID 0000.0001) %MON dynstat_wvel_sd              =   6.9726836745372E-05
(PID.TID 0000.0001) %MON dynstat_wvel_del2            =   1.2069171024565E-07
(PID.TID 0000.0001) %MON dynstat_theta_max            =   3.2341335654504E+01
(PID.TID 0000.0001) %MON dynstat_theta_min            =  -2.0066321578287E+00
(PID.TID 0000.0001) %MON dynstat_theta_mean           =   3.5922947672956E+00
(PID.TID 0000.0001) %MON dynstat_theta_sd             =   4.4424016331064E+00
(PID.TID 0000.0001) %MON dynstat_theta_del2           =   1.1794198652815E-04
(PID.TID 0000.0001) %MON dynstat_salt_max             =   4.0655995865250E+01
(PID.TID 0000.0001) %MON dynstat_salt_min             =   1.6297536382973E+01
(PID.TID 0000.0001) %MON dynstat_salt_mean            =   3.4724871788020E+01
(PID.TID 0000.0001) %MON dynstat_salt_sd              =   3.7949522118384E-01
(PID.TID 0000.0001) %MON dynstat_salt_del2            =   8.1722988192025E-05
(PID.TID 0000.0001) %MON dynstat_sst_max              =   3.2341335654504E+01
(PID.TID 0000.0001) %MON dynstat_sst_min              =  -2.0066321578287E+00
(PID.TID 0000.0001) %MON dynstat_sst_mean             =   1.8181352400530E+01
(PID.TID 0000.0001) %MON dynstat_sst_sd               =   1.0139320589072E+01
(PID.TID 0000.0001) %MON dynstat_sst_del2             =   1.1623329125672E-03
(PID.TID 0000.0001) %MON dynstat_sss_max              =   3.9483435113705E+01
(PID.TID 0000.0001) %MON dynstat_sss_min              =   1.6297536382973E+01
(PID.TID 0000.0001) %MON dynstat_sss_mean             =   3.4655955033807E+01
(PID.TID 0000.0001) %MON dynstat_sss_sd               =   1.2778200815260E+00
(PID.TID 0000.0001) %MON dynstat_sss_del2             =   1.5107210471910E-03
(PID.TID 0000.0001) %MON forcing_qnet_max             =   1.2872244140625E+04
(PID.TID 0000.0001) %MON forcing_qnet_min             =  -1.1840604188988E+04
(PID.TID 0000.0001) %MON forcing_qnet_mean            =  -1.4831075407081E+01
(PID.TID 0000.0001) %MON forcing_qnet_sd              =   2.7770666919978E+02
(PID.TID 0000.0001) %MON forcing_qnet_del2            =   1.5229785813489E+00
(PID.TID 0000.0001) %MON forcing_qsw_max              =   0.0000000000000E+00
(PID.TID 0000.0001) %MON forcing_qsw_min              =  -1.1260551374474E+02
(PID.TID 0000.0001) %MON forcing_qsw_mean             =  -1.6104788722886E+01
(PID.TID 0000.0001) %MON forcing_qsw_sd               =   2.9234253346319E+01
(PID.TID 0000.0001) %MON forcing_qsw_del2             =   2.2252666519238E-02
(PID.TID 0000.0001) %MON forcing_empmr_max            =   9.8872691392899E-02
(PID.TID 0000.0001) %MON forcing_empmr_min            =  -5.7421624660492E-02
(PID.TID 0000.0001) %MON forcing_empmr_mean           =   2.7305762892231E-05
(PID.TID 0000.0001) %MON forcing_empmr_sd             =   7.2100619401701E-04
(PID.TID 0000.0001) %MON forcing_empmr_del2           =   6.2671671152494E-06
(PID.TID 0000.0001) %MON forcing_fu_max               =   1.0632947473179E+00
(PID.TID 0000.0001) %MON forcing_fu_min               =  -1.0364862909092E+00
(PID.TID 0000.0001) %MON forcing_fu_mean              =   8.6346425862352E-03
(PID.TID 0000.0001) %MON forcing_fu_sd                =   1.1217714356277E-01
(PID.TID 0000.0001) %MON forcing_fu_del2              =   1.6915728477580E-04
(PID.TID 0000.0001) %MON forcing_fv_max               =   1.0431830178733E+00
(PID.TID 0000.0001) %MON forcing_fv_min               =  -1.6253266795274E+00
(PID.TID 0000.0001) %MON forcing_fv_mean              =  -1.8942272877081E-03
(PID.TID 0000.0001) %MON forcing_fv_sd                =   1.0995357292769E-01
(PID.TID 0000.0001) %MON forcing_fv_del2              =   1.6185494686785E-04
(PID.TID 0000.0001) %MON trAdv_CFL_u_max              =   1.6237533921723E-02
(PID.TID 0000.0001) %MON trAdv_CFL_v_max              =   2.0610667073043E-02
(PID.TID 0000.0001) %MON trAdv_CFL_w_max              =   6.1797839243326E-02
(PID.TID 0000.0001) %MON advcfl_uvel_max              =   1.6059413592289E-02
(PID.TID 0000.0001) %MON advcfl_vvel_max              =   2.0640106708589E-02
(PID.TID 0000.0001) %MON advcfl_wvel_max              =   1.0443754180387E-01
(PID.TID 0000.0001) %MON advcfl_W_hf_max              =   6.1797839243326E-02
(PID.TID 0000.0001) %MON pe_b_mean                    =   1.9309077429053E-03
(PID.TID 0000.0001) %MON ke_max                       =   2.0632631334372E+00
(PID.TID 0000.0001) %MON ke_mean                      =   8.5408600789540E-04
(PID.TID 0000.0001) %MON ke_vol                       =   1.3350064351420E+18
(PID.TID 0000.0001) %MON vort_r_min                   =  -5.2984545075054E-05
(PID.TID 0000.0001) %MON vort_r_max                   =   5.8777502777175E-05
(PID.TID 0000.0001) %MON vort_a_mean                  =  -1.9725079412756E-05
(PID.TID 0000.0001) %MON vort_a_sd                    =   7.4538403160577E-05
(PID.TID 0000.0001) %MON vort_p_mean                  =  -2.1669084622498E-05
(PID.TID 0000.0001) %MON vort_p_sd                    =   9.3609237609954E-05
(PID.TID 0000.0001) %MON surfExpan_theta_mean         =   9.0188127287626E-06
(PID.TID 0000.0001) %MON surfExpan_salt_mean          =  -5.8479579465687E-06
(PID.TID 0000.0001) // =======================================================
(PID.TID 0000.0001) // End MONITOR dynamic field statistics
(PID.TID 0000.0001) // =======================================================
(PID.TID 0000.0001) // =======================================================
(PID.TID 0000.0001) // Begin MONITOR SEAICE statistics
(PID.TID 0000.0001) // =======================================================
(PID.TID 0000.0001) %MON seaice_tsnumber              =                174638
(PID.TID 0000.0001) %MON seaice_time_sec              =   7.8587100000000E+07
(PID.TID 0000.0001) %MON seaice_uice_max              =   1.8988540969809E+00
(PID.TID 0000.0001) %MON seaice_uice_min              =  -1.6955427820454E+00
(PID.TID 0000.0001) %MON seaice_uice_mean             =  -1.3094947035797E-03
(PID.TID 0000.0001) %MON seaice_uice_sd               =   1.7228354076269E-01
(PID.TID 0000.0001) %MON seaice_uice_del2             =   3.8817079177626E-04
(PID.TID 0000.0001) %MON seaice_vice_max              =   1.8331092325951E+00
(PID.TID 0000.0001) %MON seaice_vice_min              =  -1.7987786348081E+00
(PID.TID 0000.0001) %MON seaice_vice_mean             =  -2.7369900639616E-02
(PID.TID 0000.0001) %MON seaice_vice_sd               =   1.7850190923623E-01
(PID.TID 0000.0001) %MON seaice_vice_del2             =   4.1205125439011E-04
(PID.TID 0000.0001) %MON seaice_area_max              =   1.0122215509956E+00
(PID.TID 0000.0001) %MON seaice_area_min              =   0.0000000000000E+00
(PID.TID 0000.0001) %MON seaice_area_mean             =   5.7229992957332E-02
(PID.TID 0000.0001) %MON seaice_area_sd               =   2.2204216533874E-01
(PID.TID 0000.0001) %MON seaice_area_del2             =   3.5204240569298E-04
(PID.TID 0000.0001) %MON seaice_heff_max              =   9.9502901708308E+00
(PID.TID 0000.0001) %MON seaice_heff_min              =   0.0000000000000E+00
(PID.TID 0000.0001) %MON seaice_heff_mean             =   1.5020049056284E-01
(PID.TID 0000.0001) %MON seaice_heff_sd               =   7.2201081174318E-01
(PID.TID 0000.0001) %MON seaice_heff_del2             =   1.6063598191349E-03
(PID.TID 0000.0001) %MON seaice_hsnow_max             =   3.2865933745095E+00
(PID.TID 0000.0001) %MON seaice_hsnow_min             =   0.0000000000000E+00
(PID.TID 0000.0001) %MON seaice_hsnow_mean            =   1.2766608581822E-02
(PID.TID 0000.0001) %MON seaice_hsnow_sd              =   6.9888372192063E-02
(PID.TID 0000.0001) %MON seaice_hsnow_del2            =   4.5425302539479E-04
(PID.TID 0000.0001) // =======================================================
(PID.TID 0000.0001) // End MONITOR SEAICE statistics
(PID.TID 0000.0001) // =======================================================
(PID.TID 0000.0001) // =======================================================
(PID.TID 0000.0001) // Begin MONITOR dynamic field statistics
(PID.TID 0000.0001) // =======================================================
(PID.TID 0000.0001) %MON time_tsnumber                =                174639
(PID.TID 0000.0001) %MON time_secondsf                =   7.8587550000000E+07
(PID.TID 0000.0001) %MON dynstat_eta_max              =   4.1103345536632E+00
(PID.TID 0000.0001) %MON dynstat_eta_min              =  -1.1872797808087E+01
(PID.TID 0000.0001) %MON dynstat_eta_mean             =   6.3600052628937E-02
(PID.TID 0000.0001) %MON dynstat_eta_sd               =   8.1569554676367E-01
(PID.TID 0000.0001) %MON dynstat_eta_del2             =   2.0944046408152E-03
(PID.TID 0000.0001) %MON dynstat_uvel_max             =   1.9530914786159E+00
(PID.TID 0000.0001) %MON dynstat_uvel_min             =  -1.6549203542340E+00
(PID.TID 0000.0001) %MON dynstat_uvel_mean            =   1.0023883095390E-03
(PID.TID 0000.0001) %MON dynstat_uvel_sd              =   3.0263492405332E-02
(PID.TID 0000.0001) %MON dynstat_uvel_del2            =   2.3364141180552E-05
(PID.TID 0000.0001) %MON dynstat_vvel_max             =   2.2028296553488E+00
(PID.TID 0000.0001) %MON dynstat_vvel_min             =  -1.7484711641015E+00
(PID.TID 0000.0001) %MON dynstat_vvel_mean            =  -9.5922563363818E-04
(PID.TID 0000.0001) %MON dynstat_vvel_sd              =   2.9254135208609E-02
(PID.TID 0000.0001) %MON dynstat_vvel_del2            =   2.3205828172788E-05
(PID.TID 0000.0001) %MON dynstat_wvel_max             =   5.3082550280809E-03
(PID.TID 0000.0001) %MON dynstat_wvel_min             =  -5.9334034263347E-03
(PID.TID 0000.0001) %MON dynstat_wvel_mean            =  -3.2949326401382E-07
(PID.TID 0000.0001) %MON dynstat_wvel_sd              =   7.0126122782827E-05
(PID.TID 0000.0001) %MON dynstat_wvel_del2            =   1.2251032370585E-07
(PID.TID 0000.0001) %MON dynstat_theta_max            =   3.2346746401316E+01
(PID.TID 0000.0001) %MON dynstat_theta_min            =  -2.0074398334172E+00
(PID.TID 0000.0001) %MON dynstat_theta_mean           =   3.5922940537901E+00
(PID.TID 0000.0001) %MON dynstat_theta_sd             =   4.4424029542633E+00
(PID.TID 0000.0001) %MON dynstat_theta_del2           =   1.1795441830293E-04
(PID.TID 0000.0001) %MON dynstat_salt_max             =   4.0655995865236E+01
(PID.TID 0000.0001) %MON dynstat_salt_min             =   1.6295717893209E+01
(PID.TID 0000.0001) %MON dynstat_salt_mean            =   3.4724871004448E+01
(PID.TID 0000.0001) %MON dynstat_salt_sd              =   3.7949735780347E-01
(PID.TID 0000.0001) %MON dynstat_salt_del2            =   8.1548100936598E-05
(PID.TID 0000.0001) %MON dynstat_sst_max              =   3.2346746401316E+01
(PID.TID 0000.0001) %MON dynstat_sst_min              =  -2.0074398334172E+00
(PID.TID 0000.0001) %MON dynstat_sst_mean             =   1.8181218031727E+01
(PID.TID 0000.0001) %MON dynstat_sst_sd               =   1.0139631145723E+01
(PID.TID 0000.0001) %MON dynstat_sst_del2             =   1.1619249941557E-03
(PID.TID 0000.0001) %MON dynstat_sss_max              =   3.9483440750313E+01
(PID.TID 0000.0001) %MON dynstat_sss_min              =   1.6295717893209E+01
(PID.TID 0000.0001) %MON dynstat_sss_mean             =   3.4655828751328E+01
(PID.TID 0000.0001) %MON dynstat_sss_sd               =   1.2779940830795E+00
(PID.TID 0000.0001) %MON dynstat_sss_del2             =   1.5092455460936E-03
(PID.TID 0000.0001) %MON forcing_qnet_max             =   5.7333597292344E+03
(PID.TID 0000.0001) %MON forcing_qnet_min             =  -2.9132829589844E+03
(PID.TID 0000.0001) %MON forcing_qnet_mean            =  -1.2350905746785E+01
(PID.TID 0000.0001) %MON forcing_qnet_sd              =   2.7005627167711E+02
(PID.TID 0000.0001) %MON forcing_qnet_del2            =   1.2294113148392E+00
(PID.TID 0000.0001) %MON forcing_qsw_max              =   0.0000000000000E+00
(PID.TID 0000.0001) %MON forcing_qsw_min              =  -1.1260865732467E+02
(PID.TID 0000.0001) %MON forcing_qsw_mean             =  -1.6025690434910E+01
(PID.TID 0000.0001) %MON forcing_qsw_sd               =   2.9237766739229E+01
(PID.TID 0000.0001) %MON forcing_qsw_del2             =   2.2112110450035E-02
(PID.TID 0000.0001) %MON forcing_empmr_max            =   1.0786226391792E-01
(PID.TID 0000.0001) %MON forcing_empmr_min            =  -5.7546880096197E-02
(PID.TID 0000.0001) %MON forcing_empmr_mean           =   2.6939598444894E-05
(PID.TID 0000.0001) %MON forcing_empmr_sd             =   7.4900388804059E-04
(PID.TID 0000.0001) %MON forcing_empmr_del2           =   6.3086880993362E-06
(PID.TID 0000.0001) %MON forcing_fu_max               =   1.0407861495343E+00
(PID.TID 0000.0001) %MON forcing_fu_min               =  -1.2027899707661E+00
(PID.TID 0000.0001) %MON forcing_fu_mean              =   8.6170374744200E-03
(PID.TID 0000.0001) %MON forcing_fu_sd                =   1.1226858780826E-01
(PID.TID 0000.0001) %MON forcing_fu_del2              =   1.6914189258525E-04
(PID.TID 0000.0001) %MON forcing_fv_max               =   9.7494494915009E-01
(PID.TID 0000.0001) %MON forcing_fv_min               =  -1.8146736865796E+00
(PID.TID 0000.0001) %MON forcing_fv_mean              =  -1.8889358874959E-03
(PID.TID 0000.0001) %MON forcing_fv_sd                =   1.1009635658430E-01
(PID.TID 0000.0001) %MON forcing_fv_del2              =   1.6246122072419E-04
(PID.TID 0000.0001) %MON trAdv_CFL_u_max              =   1.6336067913549E-02
(PID.TID 0000.0001) %MON trAdv_CFL_v_max              =   1.7917592627391E-02
(PID.TID 0000.0001) %MON trAdv_CFL_w_max              =   6.9787879639463E-02
(PID.TID 0000.0001) %MON advcfl_uvel_max              =   1.6156866699100E-02
(PID.TID 0000.0001) %MON advcfl_vvel_max              =   1.7943185559194E-02
(PID.TID 0000.0001) %MON advcfl_wvel_max              =   1.2070341631195E-01
(PID.TID 0000.0001) %MON advcfl_W_hf_max              =   6.9787879639463E-02
(PID.TID 0000.0001) %MON pe_b_mean                    =   1.9264664622308E-03
(PID.TID 0000.0001) %MON ke_max                       =   2.0463432428157E+00
(PID.TID 0000.0001) %MON ke_mean                      =   8.5521568799156E-04
(PID.TID 0000.0001) %MON ke_vol                       =   1.3350064351420E+18
(PID.TID 0000.0001) %MON vort_r_min                   =  -5.3260441266736E-05
(PID.TID 0000.0001) %MON vort_r_max                   =   5.3419342878314E-05
(PID.TID 0000.0001) %MON vort_a_mean                  =  -1.9725080333943E-05
(PID.TID 0000.0001) %MON vort_a_sd                    =   7.4538415329447E-05
(PID.TID 0000.0001) %MON vort_p_mean                  =  -2.1669085634473E-05
(PID.TID 0000.0001) %MON vort_p_sd                    =   9.3609103306493E-05
(PID.TID 0000.0001) %MON surfExpan_theta_mean         =   9.5805175408781E-06
(PID.TID 0000.0001) %MON surfExpan_salt_mean          =  -5.9345604988787E-06
(PID.TID 0000.0001) // =======================================================
(PID.TID 0000.0001) // End MONITOR dynamic field statistics
(PID.TID 0000.0001) // =======================================================
(PID.TID 0000.0001) // =======================================================
(PID.TID 0000.0001) // Begin MONITOR SEAICE statistics
(PID.TID 0000.0001) // =======================================================
(PID.TID 0000.0001) %MON seaice_tsnumber              =                174639
(PID.TID 0000.0001) %MON seaice_time_sec              =   7.8587550000000E+07
(PID.TID 0000.0001) %MON seaice_uice_max              =   1.7919019330159E+00
(PID.TID 0000.0001) %MON seaice_uice_min              =  -1.5197581429605E+00
(PID.TID 0000.0001) %MON seaice_uice_mean             =  -1.3598637853554E-03
(PID.TID 0000.0001) %MON seaice_uice_sd               =   1.7172033515549E-01
(PID.TID 0000.0001) %MON seaice_uice_del2             =   3.8351943651441E-04
(PID.TID 0000.0001) %MON seaice_vice_max              =   1.8513293109764E+00
(PID.TID 0000.0001) %MON seaice_vice_min              =  -1.7828852146928E+00
(PID.TID 0000.0001) %MON seaice_vice_mean             =  -2.7554005769529E-02
(PID.TID 0000.0001) %MON seaice_vice_sd               =   1.7792527730347E-01
(PID.TID 0000.0001) %MON seaice_vice_del2             =   4.0573026782430E-04
(PID.TID 0000.0001) %MON seaice_area_max              =   1.0120021025813E+00
(PID.TID 0000.0001) %MON seaice_area_min              =   0.0000000000000E+00
(PID.TID 0000.0001) %MON seaice_area_mean             =   5.7230469981202E-02
(PID.TID 0000.0001) %MON seaice_area_sd               =   2.2203401550641E-01
(PID.TID 0000.0001) %MON seaice_area_del2             =   3.5121797196040E-04
(PID.TID 0000.0001) %MON seaice_heff_max              =   9.9502501162919E+00
(PID.TID 0000.0001) %MON seaice_heff_min              =   0.0000000000000E+00
(PID.TID 0000.0001) %MON seaice_heff_mean             =   1.5019989535791E-01
(PID.TID 0000.0001) %MON seaice_heff_sd               =   7.2201106736057E-01
(PID.TID 0000.0001) %MON seaice_heff_del2             =   1.6030353584279E-03
(PID.TID 0000.0001) %MON seaice_hsnow_max             =   3.2865808082987E+00
(PID.TID 0000.0001) %MON seaice_hsnow_min             =   0.0000000000000E+00
(PID.TID 0000.0001) %MON seaice_hsnow_mean            =   1.2766208909884E-02
(PID.TID 0000.0001) %MON seaice_hsnow_sd              =   6.9872877903304E-02
(PID.TID 0000.0001) %MON seaice_hsnow_del2            =   4.5315508575675E-04
(PID.TID 0000.0001) // =======================================================
(PID.TID 0000.0001) // End MONITOR SEAICE statistics
(PID.TID 0000.0001) // =======================================================
(PID.TID 0000.0001) // =======================================================
(PID.TID 0000.0001) // Begin MONITOR dynamic field statistics
(PID.TID 0000.0001) // =======================================================
(PID.TID 0000.0001) %MON time_tsnumber                =                174640
(PID.TID 0000.0001) %MON time_secondsf                =   7.8588000000000E+07
(PID.TID 0000.0001) %MON dynstat_eta_max              =   4.2961586683128E+00
(PID.TID 0000.0001) %MON dynstat_eta_min              =  -1.1981111055105E+01
(PID.TID 0000.0001) %MON dynstat_eta_mean             =   6.3478353739760E-02
(PID.TID 0000.0001) %MON dynstat_eta_sd               =   8.1608824447481E-01
(PID.TID 0000.0001) %MON dynstat_eta_del2             =   2.0939494952123E-03
(PID.TID 0000.0001) %MON dynstat_uvel_max             =   1.9625514834900E+00
(PID.TID 0000.0001) %MON dynstat_uvel_min             =  -1.6045748308059E+00
(PID.TID 0000.0001) %MON dynstat_uvel_mean            =   9.5930732596859E-04
(PID.TID 0000.0001) %MON dynstat_uvel_sd              =   3.0272796324976E-02
(PID.TID 0000.0001) %MON dynstat_uvel_del2            =   2.3340868032864E-05
(PID.TID 0000.0001) %MON dynstat_vvel_max             =   2.1916810684900E+00
(PID.TID 0000.0001) %MON dynstat_vvel_min             =  -1.7520234705608E+00
(PID.TID 0000.0001) %MON dynstat_vvel_mean            =  -9.5966714627747E-04
(PID.TID 0000.0001) %MON dynstat_vvel_sd              =   2.9296856483514E-02
(PID.TID 0000.0001) %MON dynstat_vvel_del2            =   2.3138109769244E-05
(PID.TID 0000.0001) %MON dynstat_wvel_max             =   5.3513018524178E-03
(PID.TID 0000.0001) %MON dynstat_wvel_min             =  -6.0259433235315E-03
(PID.TID 0000.0001) %MON dynstat_wvel_mean            =  -3.2150802905864E-07
(PID.TID 0000.0001) %MON dynstat_wvel_sd              =   7.0527312295194E-05
(PID.TID 0000.0001) %MON dynstat_wvel_del2            =   1.2434412679760E-07
(PID.TID 0000.0001) %MON dynstat_theta_max            =   3.2352089744451E+01
(PID.TID 0000.0001) %MON dynstat_theta_min            =  -2.0081886357412E+00
(PID.TID 0000.0001) %MON dynstat_theta_mean           =   3.5922932214532E+00
(PID.TID 0000.0001) %MON dynstat_theta_sd             =   4.4424036368596E+00
(PID.TID 0000.0001) %MON dynstat_theta_del2           =   1.1797844821307E-04
(PID.TID 0000.0001) %MON dynstat_salt_max             =   4.0655995865221E+01
(PID.TID 0000.0001) %MON dynstat_salt_min             =   1.6294250027645E+01
(PID.TID 0000.0001) %MON dynstat_salt_mean            =   3.4724870250654E+01
(PID.TID 0000.0001) %MON dynstat_salt_sd              =   3.7949942702468E-01
(PID.TID 0000.0001) %MON dynstat_salt_del2            =   8.1374307982883E-05
(PID.TID 0000.0001) %MON dynstat_sst_max              =   3.2352089744451E+01
(PID.TID 0000.0001) %MON dynstat_sst_min              =  -2.0081886357412E+00
(PID.TID 0000.0001) %MON dynstat_sst_mean             =   1.8181090009661E+01
(PID.TID 0000.0001) %MON dynstat_sst_sd               =   1.0139946869292E+01
(PID.TID 0000.0001) %MON dynstat_sst_del2             =   1.1622139130454E-03
(PID.TID 0000.0001) %MON dynstat_sss_max              =   3.9483446348959E+01
(PID.TID 0000.0001) %MON dynstat_sss_min              =   1.6294250027645E+01
(PID.TID 0000.0001) %MON dynstat_sss_mean             =   3.4655702246970E+01
(PID.TID 0000.0001) %MON dynstat_sss_sd               =   1.2781666348487E+00
(PID.TID 0000.0001) %MON dynstat_sss_del2             =   1.5079005719710E-03
(PID.TID 0000.0001) %MON forcing_qnet_max             =   2.6687222700232E+04
(PID.TID 0000.0001) %MON forcing_qnet_min             =  -4.9390522460938E+03
(PID.TID 0000.0001) %MON forcing_qnet_mean            =  -1.0532768657297E+01
(PID.TID 0000.0001) %MON forcing_qnet_sd              =   2.7760096722997E+02
(PID.TID 0000.0001) %MON forcing_qnet_del2            =   1.9796787876135E+00
(PID.TID 0000.0001) %MON forcing_qsw_max              =   0.0000000000000E+00
(PID.TID 0000.0001) %MON forcing_qsw_min              =  -1.1260043096179E+02
(PID.TID 0000.0001) %MON forcing_qsw_mean             =  -1.5939536198106E+01
(PID.TID 0000.0001) %MON forcing_qsw_sd               =   2.9223189512053E+01
(PID.TID 0000.0001) %MON forcing_qsw_del2             =   2.1963981950915E-02
(PID.TID 0000.0001) %MON forcing_empmr_max            =   1.1406886577606E-01
(PID.TID 0000.0001) %MON forcing_empmr_min            =  -5.9108279645443E-02
(PID.TID 0000.0001) %MON forcing_empmr_mean           =   2.6668171518157E-05
(PID.TID 0000.0001) %MON forcing_empmr_sd             =   7.7091731675411E-04
(PID.TID 0000.0001) %MON forcing_empmr_del2           =   6.3757260553163E-06
(PID.TID 0000.0001) %MON forcing_fu_max               =   1.1864384458682E+00
(PID.TID 0000.0001) %MON forcing_fu_min               =  -1.3009440558211E+00
(PID.TID 0000.0001) %MON forcing_fu_mean              =   8.6145228497103E-03
(PID.TID 0000.0001) %MON forcing_fu_sd                =   1.1241644236722E-01
(PID.TID 0000.0001) %MON forcing_fu_del2              =   1.6892005423479E-04
(PID.TID 0000.0001) %MON forcing_fv_max               =   9.7760713100433E-01
(PID.TID 0000.0001) %MON forcing_fv_min               =  -2.0672880047522E+00
(PID.TID 0000.0001) %MON forcing_fv_mean              =  -1.8795611267799E-03
(PID.TID 0000.0001) %MON forcing_fv_sd                =   1.1024534815768E-01
(PID.TID 0000.0001) %MON forcing_fv_del2              =   1.6265382876558E-04
(PID.TID 0000.0001) %MON trAdv_CFL_u_max              =   1.7945188231749E-02
(PID.TID 0000.0001) %MON trAdv_CFL_v_max              =   1.5683258773248E-02
(PID.TID 0000.0001) %MON trAdv_CFL_w_max              =   7.5298478413989E-02
(PID.TID 0000.0001) %MON advcfl_uvel_max              =   1.7605267533339E-02
(PID.TID 0000.0001) %MON advcfl_vvel_max              =   1.5640298892583E-02
(PID.TID 0000.0001) %MON advcfl_wvel_max              =   1.3173402787025E-01
(PID.TID 0000.0001) %MON advcfl_W_hf_max              =   7.5298478413989E-02
(PID.TID 0000.0001) %MON pe_b_mean                    =   1.9218105143505E-03
(PID.TID 0000.0001) %MON ke_max                       =   2.0038784613470E+00
(PID.TID 0000.0001) %MON ke_mean                      =   8.5665311216524E-04
(PID.TID 0000.0001) %MON ke_vol                       =   1.3350064351420E+18
(PID.TID 0000.0001) %MON vort_r_min                   =  -5.3463210592377E-05
(PID.TID 0000.0001) %MON vort_r_max                   =   5.4382759996604E-05
(PID.TID 0000.0001) %MON vort_a_mean                  =  -1.9725081109004E-05
(PID.TID 0000.0001) %MON vort_a_sd                    =   7.4538428356258E-05
(PID.TID 0000.0001) %MON vort_p_mean                  =  -2.1669086485920E-05
(PID.TID 0000.0001) %MON vort_p_sd                    =   9.3608971215765E-05
(PID.TID 0000.0001) %MON surfExpan_theta_mean         =   1.0187254664940E-05
(PID.TID 0000.0001) %MON surfExpan_salt_mean          =  -5.9472924057810E-06
(PID.TID 0000.0001) // =======================================================
(PID.TID 0000.0001) // End MONITOR dynamic field statistics
(PID.TID 0000.0001) // =======================================================
(PID.TID 0000.0001) // =======================================================
(PID.TID 0000.0001) // Begin MONITOR SEAICE statistics
(PID.TID 0000.0001) // =======================================================
(PID.TID 0000.0001) %MON seaice_tsnumber              =                174640
(PID.TID 0000.0001) %MON seaice_time_sec              =   7.8588000000000E+07
(PID.TID 0000.0001) %MON seaice_uice_max              =   1.7575703712988E+00
(PID.TID 0000.0001) %MON seaice_uice_min              =  -1.5420022498304E+00
(PID.TID 0000.0001) %MON seaice_uice_mean             =  -1.4086543148410E-03
(PID.TID 0000.0001) %MON seaice_uice_sd               =   1.7119147786337E-01
(PID.TID 0000.0001) %MON seaice_uice_del2             =   3.7930295073112E-04
(PID.TID 0000.0001) %MON seaice_vice_max              =   1.8884069412929E+00
(PID.TID 0000.0001) %MON seaice_vice_min              =  -1.7484711641015E+00
(PID.TID 0000.0001) %MON seaice_vice_mean             =  -2.7711353143510E-02
(PID.TID 0000.0001) %MON seaice_vice_sd               =   1.7737739067202E-01
(PID.TID 0000.0001) %MON seaice_vice_del2             =   3.9937044940965E-04
(PID.TID 0000.0001) %MON seaice_area_max              =   1.0116105789486E+00
(PID.TID 0000.0001) %MON seaice_area_min              =   0.0000000000000E+00
(PID.TID 0000.0001) %MON seaice_area_mean             =   5.7230892777901E-02
(PID.TID 0000.0001) %MON seaice_area_sd               =   2.2202565646775E-01
(PID.TID 0000.0001) %MON seaice_area_del2             =   3.5039197090568E-04
(PID.TID 0000.0001) %MON seaice_heff_max              =   9.9502109268293E+00
(PID.TID 0000.0001) %MON seaice_heff_min              =   0.0000000000000E+00
(PID.TID 0000.0001) %MON seaice_heff_mean             =   1.5019917430351E-01
(PID.TID 0000.0001) %MON seaice_heff_sd               =   7.2200993211352E-01
(PID.TID 0000.0001) %MON seaice_heff_del2             =   1.5995996269281E-03
(PID.TID 0000.0001) %MON seaice_hsnow_max             =   3.2865682082065E+00
(PID.TID 0000.0001) %MON seaice_hsnow_min             =   0.0000000000000E+00
(PID.TID 0000.0001) %MON seaice_hsnow_mean            =   1.2765810454053E-02
(PID.TID 0000.0001) %MON seaice_hsnow_sd              =   6.9856591683711E-02
(PID.TID 0000.0001) %MON seaice_hsnow_del2            =   4.5201852601685E-04
(PID.TID 0000.0001) // =======================================================
(PID.TID 0000.0001) // End MONITOR SEAICE statistics
(PID.TID 0000.0001) // =======================================================
(PID.TID 0000.0001) // =======================================================
(PID.TID 0000.0001) // Begin MONITOR dynamic field statistics
(PID.TID 0000.0001) // =======================================================
(PID.TID 0000.0001) %MON time_tsnumber                =                174641
(PID.TID 0000.0001) %MON time_secondsf                =   7.8588450000000E+07
(PID.TID 0000.0001) %MON dynstat_eta_max              =   4.3383379926451E+00
(PID.TID 0000.0001) %MON dynstat_eta_min              =  -1.2026935194991E+01
(PID.TID 0000.0001) %MON dynstat_eta_mean             =   6.3360424751598E-02
(PID.TID 0000.0001) %MON dynstat_eta_sd               =   8.1641926878209E-01
(PID.TID 0000.0001) %MON dynstat_eta_del2             =   2.0932929428726E-03
(PID.TID 0000.0001) %MON dynstat_uvel_max             =   1.9696203705713E+00
(PID.TID 0000.0001) %MON dynstat_uvel_min             =  -1.5786665757497E+00
(PID.TID 0000.0001) %MON dynstat_uvel_mean            =   9.1917920184667E-04
(PID.TID 0000.0001) %MON dynstat_uvel_sd              =   3.0285087676371E-02
(PID.TID 0000.0001) %MON dynstat_uvel_del2            =   2.3347800597409E-05
(PID.TID 0000.0001) %MON dynstat_vvel_max             =   2.1658038477464E+00
(PID.TID 0000.0001) %MON dynstat_vvel_min             =  -1.7849881184086E+00
(PID.TID 0000.0001) %MON dynstat_vvel_mean            =  -9.5407029182320E-04
(PID.TID 0000.0001) %MON dynstat_vvel_sd              =   2.9345853933083E-02
(PID.TID 0000.0001) %MON dynstat_vvel_del2            =   2.3100489662171E-05
(PID.TID 0000.0001) %MON dynstat_wvel_max             =   5.3935920123371E-03
(PID.TID 0000.0001) %MON dynstat_wvel_min             =  -6.1237954930323E-03
(PID.TID 0000.0001) %MON dynstat_wvel_mean            =  -3.1214035001894E-07
(PID.TID 0000.0001) %MON dynstat_wvel_sd              =   7.0928585688893E-05
(PID.TID 0000.0001) %MON dynstat_wvel_del2            =   1.2616328959396E-07
(PID.TID 0000.0001) %MON dynstat_theta_max            =   3.2357376541533E+01
(PID.TID 0000.0001) %MON dynstat_theta_min            =  -2.0088781245059E+00
(PID.TID 0000.0001) %MON dynstat_theta_mean           =   3.5922922728630E+00
(PID.TID 0000.0001) %MON dynstat_theta_sd             =   4.4424036905130E+00
(PID.TID 0000.0001) %MON dynstat_theta_del2           =   1.1798935284013E-04
(PID.TID 0000.0001) %MON dynstat_salt_max             =   4.0655995865207E+01
(PID.TID 0000.0001) %MON dynstat_salt_min             =   1.6293031630862E+01
(PID.TID 0000.0001) %MON dynstat_salt_mean            =   3.4724869530585E+01
(PID.TID 0000.0001) %MON dynstat_salt_sd              =   3.7950140953870E-01
(PID.TID 0000.0001) %MON dynstat_salt_del2            =   8.1198404251626E-05
(PID.TID 0000.0001) %MON dynstat_sst_max              =   3.2357376541533E+01
(PID.TID 0000.0001) %MON dynstat_sst_min              =  -2.0088781245059E+00
(PID.TID 0000.0001) %MON dynstat_sst_mean             =   1.8180948610686E+01
(PID.TID 0000.0001) %MON dynstat_sst_sd               =   1.0140245122411E+01
(PID.TID 0000.0001) %MON dynstat_sst_del2             =   1.1620583837439E-03
(PID.TID 0000.0001) %MON dynstat_sss_max              =   3.9483450325968E+01
(PID.TID 0000.0001) %MON dynstat_sss_min              =   1.6293031630862E+01
(PID.TID 0000.0001) %MON dynstat_sss_mean             =   3.4655577742157E+01
(PID.TID 0000.0001) %MON dynstat_sss_sd               =   1.2783318359717E+00
(PID.TID 0000.0001) %MON dynstat_sss_del2             =   1.5065326952682E-03
(PID.TID 0000.0001) %MON forcing_qnet_max             =   1.4021084960938E+04
(PID.TID 0000.0001) %MON forcing_qnet_min             =  -2.0164007812500E+04
(PID.TID 0000.0001) %MON forcing_qnet_mean            =  -8.9881083488635E+00
(PID.TID 0000.0001) %MON forcing_qnet_sd              =   3.0671562922826E+02
(PID.TID 0000.0001) %MON forcing_qnet_del2            =   2.0326707673482E+00
(PID.TID 0000.0001) %MON forcing_qsw_max              =   0.0000000000000E+00
(PID.TID 0000.0001) %MON forcing_qsw_min              =  -1.1247498660704E+02
(PID.TID 0000.0001) %MON forcing_qsw_mean             =  -1.5846281446598E+01
(PID.TID 0000.0001) %MON forcing_qsw_sd               =   2.9190662834372E+01
(PID.TID 0000.0001) %MON forcing_qsw_del2             =   2.1808761476395E-02
(PID.TID 0000.0001) %MON forcing_empmr_max            =   1.1721351742744E-01
(PID.TID 0000.0001) %MON forcing_empmr_min            =  -5.4379086941481E-02
(PID.TID 0000.0001) %MON forcing_empmr_mean           =   2.6445759949444E-05
(PID.TID 0000.0001) %MON forcing_empmr_sd             =   7.7845056313872E-04
(PID.TID 0000.0001) %MON forcing_empmr_del2           =   6.3055569704992E-06
(PID.TID 0000.0001) %MON forcing_fu_max               =   1.3317418667441E+00
(PID.TID 0000.0001) %MON forcing_fu_min               =  -1.2575956166302E+00
(PID.TID 0000.0001) %MON forcing_fu_mean              =   8.6054175922403E-03
(PID.TID 0000.0001) %MON forcing_fu_sd                =   1.1253352608233E-01
(PID.TID 0000.0001) %MON forcing_fu_del2              =   1.6894969050338E-04
(PID.TID 0000.0001) %MON forcing_fv_max               =   9.7276517748833E-01
(PID.TID 0000.0001) %MON forcing_fv_min               =  -2.2819740947496E+00
(PID.TID 0000.0001) %MON forcing_fv_mean              =  -1.8684538861320E-03
(PID.TID 0000.0001) %MON forcing_fv_sd                =   1.1035383009901E-01
(PID.TID 0000.0001) %MON forcing_fv_del2              =   1.6287926666805E-04
(PID.TID 0000.0001) %MON trAdv_CFL_u_max              =   1.9341123158551E-02
(PID.TID 0000.0001) %MON trAdv_CFL_v_max              =   1.6040684110994E-02
(PID.TID 0000.0001) %MON trAdv_CFL_w_max              =   7.8429027751914E-02
(PID.TID 0000.0001) %MON advcfl_uvel_max              =   1.8974760431832E-02
(PID.TID 0000.0001) %MON advcfl_vvel_max              =   1.5996745164047E-02
(PID.TID 0000.0001) %MON advcfl_wvel_max              =   1.3779511667947E-01
(PID.TID 0000.0001) %MON advcfl_W_hf_max              =   7.8429027751914E-02
(PID.TID 0000.0001) %MON pe_b_mean                    =   1.9169803058941E-03
(PID.TID 0000.0001) %MON ke_max                       =   1.9384265866389E+00
(PID.TID 0000.0001) %MON ke_mean                      =   8.5835606615528E-04
(PID.TID 0000.0001) %MON ke_vol                       =   1.3350064351420E+18
(PID.TID 0000.0001) %MON vort_r_min                   =  -5.3594004438198E-05
(PID.TID 0000.0001) %MON vort_r_max                   =   5.5268337693112E-05
(PID.TID 0000.0001) %MON vort_a_mean                  =  -1.9725081721063E-05
(PID.TID 0000.0001) %MON vort_a_sd                    =   7.4538441953082E-05
(PID.TID 0000.0001) %MON vort_p_mean                  =  -2.1669087158301E-05
(PID.TID 0000.0001) %MON vort_p_sd                    =   9.3608842012534E-05
(PID.TID 0000.0001) %MON surfExpan_theta_mean         =   1.0845274502386E-05
(PID.TID 0000.0001) %MON surfExpan_salt_mean          =  -5.8833872146542E-06
(PID.TID 0000.0001) // =======================================================
(PID.TID 0000.0001) // End MONITOR dynamic field statistics
(PID.TID 0000.0001) // =======================================================
(PID.TID 0000.0001) // =======================================================
(PID.TID 0000.0001) // Begin MONITOR SEAICE statistics
(PID.TID 0000.0001) // =======================================================
(PID.TID 0000.0001) %MON seaice_tsnumber              =                174641
(PID.TID 0000.0001) %MON seaice_time_sec              =   7.8588450000000E+07
(PID.TID 0000.0001) %MON seaice_uice_max              =   1.7717709232052E+00
(PID.TID 0000.0001) %MON seaice_uice_min              =  -1.5825181480878E+00
(PID.TID 0000.0001) %MON seaice_uice_mean             =  -1.4565253836354E-03
(PID.TID 0000.0001) %MON seaice_uice_sd               =   1.7071440258594E-01
(PID.TID 0000.0001) %MON seaice_uice_del2             =   3.7584319465033E-04
(PID.TID 0000.0001) %MON seaice_vice_max              =   1.9593587882979E+00
(PID.TID 0000.0001) %MON seaice_vice_min              =  -1.6967259397600E+00
(PID.TID 0000.0001) %MON seaice_vice_mean             =  -2.7868179423027E-02
(PID.TID 0000.0001) %MON seaice_vice_sd               =   1.7690244517283E-01
(PID.TID 0000.0001) %MON seaice_vice_del2             =   3.9337487088638E-04
(PID.TID 0000.0001) %MON seaice_area_max              =   1.0110753870885E+00
(PID.TID 0000.0001) %MON seaice_area_min              =   0.0000000000000E+00
(PID.TID 0000.0001) %MON seaice_area_mean             =   5.7231302755186E-02
(PID.TID 0000.0001) %MON seaice_area_sd               =   2.2201732231820E-01
(PID.TID 0000.0001) %MON seaice_area_del2             =   3.4956695417710E-04
(PID.TID 0000.0001) %MON seaice_heff_max              =   9.9501726031581E+00
(PID.TID 0000.0001) %MON seaice_heff_min              =   0.0000000000000E+00
(PID.TID 0000.0001) %MON seaice_heff_mean             =   1.5019831849042E-01
(PID.TID 0000.0001) %MON seaice_heff_sd               =   7.2200749546422E-01
(PID.TID 0000.0001) %MON seaice_heff_del2             =   1.5960740146607E-03
(PID.TID 0000.0001) %MON seaice_hsnow_max             =   3.2865553414887E+00
(PID.TID 0000.0001) %MON seaice_hsnow_min             =   0.0000000000000E+00
(PID.TID 0000.0001) %MON seaice_hsnow_mean            =   1.2765415021092E-02
(PID.TID 0000.0001) %MON seaice_hsnow_sd              =   6.9839605106086E-02
(PID.TID 0000.0001) %MON seaice_hsnow_del2            =   4.5085172073005E-04
(PID.TID 0000.0001) // =======================================================
(PID.TID 0000.0001) // End MONITOR SEAICE statistics
(PID.TID 0000.0001) // =======================================================
(PID.TID 0000.0001) // =======================================================
(PID.TID 0000.0001) // Begin MONITOR dynamic field statistics
(PID.TID 0000.0001) // =======================================================
(PID.TID 0000.0001) %MON time_tsnumber                =                174642
(PID.TID 0000.0001) %MON time_secondsf                =   7.8588900000000E+07
(PID.TID 0000.0001) %MON dynstat_eta_max              =   4.2343179111132E+00
(PID.TID 0000.0001) %MON dynstat_eta_min              =  -1.2007379310451E+01
(PID.TID 0000.0001) %MON dynstat_eta_mean             =   6.3246942878357E-02
(PID.TID 0000.0001) %MON dynstat_eta_sd               =   8.1669864939119E-01
(PID.TID 0000.0001) %MON dynstat_eta_del2             =   2.0922941338722E-03
(PID.TID 0000.0001) %MON dynstat_uvel_max             =   1.9744767511131E+00
(PID.TID 0000.0001) %MON dynstat_uvel_min             =  -1.5850248401565E+00
(PID.TID 0000.0001) %MON dynstat_uvel_mean            =   8.8291151507558E-04
(PID.TID 0000.0001) %MON dynstat_uvel_sd              =   3.0300513720303E-02
(PID.TID 0000.0001) %MON dynstat_uvel_del2            =   2.3383424045862E-05
(PID.TID 0000.0001) %MON dynstat_vvel_max             =   2.1260999220710E+00
(PID.TID 0000.0001) %MON dynstat_vvel_min             =  -1.8126613115524E+00
(PID.TID 0000.0001) %MON dynstat_vvel_mean            =  -9.4266857167589E-04
(PID.TID 0000.0001) %MON dynstat_vvel_sd              =   2.9400291019623E-02
(PID.TID 0000.0001) %MON dynstat_vvel_del2            =   2.3094545899410E-05
(PID.TID 0000.0001) %MON dynstat_wvel_max             =   5.4358569855314E-03
(PID.TID 0000.0001) %MON dynstat_wvel_min             =  -6.2259198096577E-03
(PID.TID 0000.0001) %MON dynstat_wvel_mean            =  -3.0170409805835E-07
(PID.TID 0000.0001) %MON dynstat_wvel_sd              =   7.1330138799749E-05
(PID.TID 0000.0001) %MON dynstat_wvel_del2            =   1.2794217512216E-07
(PID.TID 0000.0001) %MON dynstat_theta_max            =   3.2362476806788E+01
(PID.TID 0000.0001) %MON dynstat_theta_min            =  -2.0095104012643E+00
(PID.TID 0000.0001) %MON dynstat_theta_mean           =   3.5922911722695E+00
(PID.TID 0000.0001) %MON dynstat_theta_sd             =   4.4424029928567E+00
(PID.TID 0000.0001) %MON dynstat_theta_del2           =   1.1800042036368E-04
(PID.TID 0000.0001) %MON dynstat_salt_max             =   4.0655995865192E+01
(PID.TID 0000.0001) %MON dynstat_salt_min             =   1.6291928611251E+01
(PID.TID 0000.0001) %MON dynstat_salt_mean            =   3.4724868827348E+01
(PID.TID 0000.0001) %MON dynstat_salt_sd              =   3.7950338157103E-01
(PID.TID 0000.0001) %MON dynstat_salt_del2            =   8.1018687146657E-05
(PID.TID 0000.0001) %MON dynstat_sst_max              =   3.2362476806788E+01
(PID.TID 0000.0001) %MON dynstat_sst_min              =  -2.0095104012643E+00
(PID.TID 0000.0001) %MON dynstat_sst_mean             =   1.8180803347628E+01
(PID.TID 0000.0001) %MON dynstat_sst_sd               =   1.0140541084018E+01
(PID.TID 0000.0001) %MON dynstat_sst_del2             =   1.1619467250548E-03
(PID.TID 0000.0001) %MON dynstat_sss_max              =   3.9483454093272E+01
(PID.TID 0000.0001) %MON dynstat_sss_min              =   1.6291928611251E+01
(PID.TID 0000.0001) %MON dynstat_sss_mean             =   3.4655451667553E+01
(PID.TID 0000.0001) %MON dynstat_sss_sd               =   1.2785004874779E+00
(PID.TID 0000.0001) %MON dynstat_sss_del2             =   1.5052186690354E-03
(PID.TID 0000.0001) %MON forcing_qnet_max             =   1.6269296875000E+04
(PID.TID 0000.0001) %MON forcing_qnet_min             =  -8.3248945312500E+03
(PID.TID 0000.0001) %MON forcing_qnet_mean            =  -6.3706619392648E+00
(PID.TID 0000.0001) %MON forcing_qnet_sd              =   2.8264788864991E+02
(PID.TID 0000.0001) %MON forcing_qnet_del2            =   1.5328905127290E+00
(PID.TID 0000.0001) %MON forcing_qsw_max              =   0.0000000000000E+00
(PID.TID 0000.0001) %MON forcing_qsw_min              =  -1.1223244716670E+02
(PID.TID 0000.0001) %MON forcing_qsw_mean             =  -1.5745828890156E+01
(PID.TID 0000.0001) %MON forcing_qsw_sd               =   2.9140381622952E+01
(PID.TID 0000.0001) %MON forcing_qsw_del2             =   2.1646872059986E-02
(PID.TID 0000.0001) %MON forcing_empmr_max            =   1.1518333852291E-01
(PID.TID 0000.0001) %MON forcing_empmr_min            =  -5.4780371487141E-02
(PID.TID 0000.0001) %MON forcing_empmr_mean           =   2.6162863847935E-05
(PID.TID 0000.0001) %MON forcing_empmr_sd             =   7.7688735736059E-04
(PID.TID 0000.0001) %MON forcing_empmr_del2           =   6.3079786139085E-06
(PID.TID 0000.0001) %MON forcing_fu_max               =   1.4492465355814E+00
(PID.TID 0000.0001) %MON forcing_fu_min               =  -1.1046115767107E+00
(PID.TID 0000.0001) %MON forcing_fu_mean              =   8.5918355459861E-03
(PID.TID 0000.0001) %MON forcing_fu_sd                =   1.1259772039634E-01
(PID.TID 0000.0001) %MON forcing_fu_del2              =   1.6744840729741E-04
(PID.TID 0000.0001) %MON forcing_fv_max               =   9.6673208475113E-01
(PID.TID 0000.0001) %MON forcing_fv_min               =  -2.4332715174415E+00
(PID.TID 0000.0001) %MON forcing_fv_mean              =  -1.8568460730746E-03
(PID.TID 0000.0001) %MON forcing_fv_sd                =   1.1039310832550E-01
(PID.TID 0000.0001) %MON forcing_fv_del2              =   1.6207280515722E-04
(PID.TID 0000.0001) %MON trAdv_CFL_u_max              =   2.0137135987421E-02
(PID.TID 0000.0001) %MON trAdv_CFL_v_max              =   1.6525969577552E-02
(PID.TID 0000.0001) %MON trAdv_CFL_w_max              =   7.9385098101053E-02
(PID.TID 0000.0001) %MON advcfl_uvel_max              =   1.9755695055155E-02
(PID.TID 0000.0001) %MON advcfl_vvel_max              =   1.6480701327427E-02
(PID.TID 0000.0001) %MON advcfl_wvel_max              =   1.3941073956351E-01
(PID.TID 0000.0001) %MON advcfl_W_hf_max              =   7.9385098101053E-02
(PID.TID 0000.0001) %MON pe_b_mean                    =   1.9120233790686E-03
(PID.TID 0000.0001) %MON ke_max                       =   1.8716596294997E+00
(PID.TID 0000.0001) %MON ke_mean                      =   8.6030686855367E-04
(PID.TID 0000.0001) %MON ke_vol                       =   1.3350064351420E+18
(PID.TID 0000.0001) %MON vort_r_min                   =  -5.3657609782117E-05
(PID.TID 0000.0001) %MON vort_r_max                   =   5.6056305330142E-05
(PID.TID 0000.0001) %MON vort_a_mean                  =  -1.9725082157682E-05
(PID.TID 0000.0001) %MON vort_a_sd                    =   7.4538455840764E-05
(PID.TID 0000.0001) %MON vort_p_mean                  =  -2.1669087637950E-05
(PID.TID 0000.0001) %MON vort_p_sd                    =   9.3608716597486E-05
(PID.TID 0000.0001) %MON surfExpan_theta_mean         =   1.1540944059926E-05
(PID.TID 0000.0001) %MON surfExpan_salt_mean          =  -5.7555609519556E-06
(PID.TID 0000.0001) // =======================================================
(PID.TID 0000.0001) // End MONITOR dynamic field statistics
(PID.TID 0000.0001) // =======================================================
(PID.TID 0000.0001) // =======================================================
(PID.TID 0000.0001) // Begin MONITOR SEAICE statistics
(PID.TID 0000.0001) // =======================================================
(PID.TID 0000.0001) %MON seaice_tsnumber              =                174642
(PID.TID 0000.0001) %MON seaice_time_sec              =   7.8588900000000E+07
(PID.TID 0000.0001) %MON seaice_uice_max              =   1.7867135851749E+00
(PID.TID 0000.0001) %MON seaice_uice_min              =  -1.6057377960364E+00
(PID.TID 0000.0001) %MON seaice_uice_mean             =  -1.4976385470248E-03
(PID.TID 0000.0001) %MON seaice_uice_sd               =   1.7029132642047E-01
(PID.TID 0000.0001) %MON seaice_uice_del2             =   3.7303515795275E-04
(PID.TID 0000.0001) %MON seaice_vice_max              =   2.0175022945699E+00
(PID.TID 0000.0001) %MON seaice_vice_min              =  -1.6289112217153E+00
(PID.TID 0000.0001) %MON seaice_vice_mean             =  -2.8003587472999E-02
(PID.TID 0000.0001) %MON seaice_vice_sd               =   1.7647081370684E-01
(PID.TID 0000.0001) %MON seaice_vice_del2             =   3.8784186275824E-04
(PID.TID 0000.0001) %MON seaice_area_max              =   1.0104247226997E+00
(PID.TID 0000.0001) %MON seaice_area_min              =   0.0000000000000E+00
(PID.TID 0000.0001) %MON seaice_area_mean             =   5.7231661183160E-02
(PID.TID 0000.0001) %MON seaice_area_sd               =   2.2200884146874E-01
(PID.TID 0000.0001) %MON seaice_area_del2             =   3.4874462751533E-04
(PID.TID 0000.0001) %MON seaice_heff_max              =   9.9501360931361E+00
(PID.TID 0000.0001) %MON seaice_heff_min              =   0.0000000000000E+00
(PID.TID 0000.0001) %MON seaice_heff_mean             =   1.5019731117337E-01
(PID.TID 0000.0001) %MON seaice_heff_sd               =   7.2200394013030E-01
(PID.TID 0000.0001) %MON seaice_heff_del2             =   1.5924940471657E-03
(PID.TID 0000.0001) %MON seaice_hsnow_max             =   3.2865441311235E+00
(PID.TID 0000.0001) %MON seaice_hsnow_min             =   0.0000000000000E+00
(PID.TID 0000.0001) %MON seaice_hsnow_mean            =   1.2765010997697E-02
(PID.TID 0000.0001) %MON seaice_hsnow_sd              =   6.9822015698761E-02
(PID.TID 0000.0001) %MON seaice_hsnow_del2            =   4.4966687678331E-04
(PID.TID 0000.0001) // =======================================================
(PID.TID 0000.0001) // End MONITOR SEAICE statistics
(PID.TID 0000.0001) // =======================================================
(PID.TID 0000.0001) // =======================================================
(PID.TID 0000.0001) // Begin MONITOR dynamic field statistics
(PID.TID 0000.0001) // =======================================================
(PID.TID 0000.0001) %MON time_tsnumber                =                174643
(PID.TID 0000.0001) %MON time_secondsf                =   7.8589350000000E+07
(PID.TID 0000.0001) %MON dynstat_eta_max              =   3.9894938726537E+00
(PID.TID 0000.0001) %MON dynstat_eta_min              =  -1.1921847996876E+01
(PID.TID 0000.0001) %MON dynstat_eta_mean             =   6.3138350459412E-02
(PID.TID 0000.0001) %MON dynstat_eta_sd               =   8.1693993764294E-01
(PID.TID 0000.0001) %MON dynstat_eta_del2             =   2.0908637680694E-03
(PID.TID 0000.0001) %MON dynstat_uvel_max             =   1.9771667612176E+00
(PID.TID 0000.0001) %MON dynstat_uvel_min             =  -1.5770160271876E+00
(PID.TID 0000.0001) %MON dynstat_uvel_mean            =   8.5135609802246E-04
(PID.TID 0000.0001) %MON dynstat_uvel_sd              =   3.0319076294264E-02
(PID.TID 0000.0001) %MON dynstat_uvel_del2            =   2.3445132196172E-05
(PID.TID 0000.0001) %MON dynstat_vvel_max             =   2.0943129590879E+00
(PID.TID 0000.0001) %MON dynstat_vvel_min             =  -1.8363719415307E+00
(PID.TID 0000.0001) %MON dynstat_vvel_mean            =  -9.2569779927023E-04
(PID.TID 0000.0001) %MON dynstat_vvel_sd              =   2.9458365461994E-02
(PID.TID 0000.0001) %MON dynstat_vvel_del2            =   2.3121153499684E-05
(PID.TID 0000.0001) %MON dynstat_wvel_max             =   5.4787498808562E-03
(PID.TID 0000.0001) %MON dynstat_wvel_min             =  -6.3311488506332E-03
(PID.TID 0000.0001) %MON dynstat_wvel_mean            =  -2.9049700297286E-07
(PID.TID 0000.0001) %MON dynstat_wvel_sd              =   7.1731969122153E-05
(PID.TID 0000.0001) %MON dynstat_wvel_del2            =   1.2966206485046E-07
(PID.TID 0000.0001) %MON dynstat_theta_max            =   3.2367369220596E+01
(PID.TID 0000.0001) %MON dynstat_theta_min            =  -2.0100879864917E+00
(PID.TID 0000.0001) %MON dynstat_theta_mean           =   3.5922899494460E+00
(PID.TID 0000.0001) %MON dynstat_theta_sd             =   4.4424017264298E+00
(PID.TID 0000.0001) %MON dynstat_theta_del2           =   1.1800964539467E-04
(PID.TID 0000.0001) %MON dynstat_salt_max             =   4.0655995865176E+01
(PID.TID 0000.0001) %MON dynstat_salt_min             =   1.6290795570637E+01
(PID.TID 0000.0001) %MON dynstat_salt_mean            =   3.4724868156069E+01
(PID.TID 0000.0001) %MON dynstat_salt_sd              =   3.7950532560266E-01
(PID.TID 0000.0001) %MON dynstat_salt_del2            =   8.0841714211052E-05
(PID.TID 0000.0001) %MON dynstat_sst_max              =   3.2367369220596E+01
(PID.TID 0000.0001) %MON dynstat_sst_min              =  -2.0100879864917E+00
(PID.TID 0000.0001) %MON dynstat_sst_mean             =   1.8180649915409E+01
(PID.TID 0000.0001) %MON dynstat_sst_sd               =   1.0140829196480E+01
(PID.TID 0000.0001) %MON dynstat_sst_del2             =   1.1615794865649E-03
(PID.TID 0000.0001) %MON dynstat_sss_max              =   3.9483457412226E+01
(PID.TID 0000.0001) %MON dynstat_sss_min              =   1.6290795570637E+01
(PID.TID 0000.0001) %MON dynstat_sss_mean             =   3.4655328726429E+01
(PID.TID 0000.0001) %MON dynstat_sss_sd               =   1.2786678893454E+00
(PID.TID 0000.0001) %MON dynstat_sss_del2             =   1.5039425612254E-03
(PID.TID 0000.0001) %MON forcing_qnet_max             =   4.7085381685470E+03
(PID.TID 0000.0001) %MON forcing_qnet_min             =  -6.9463701171875E+03
(PID.TID 0000.0001) %MON forcing_qnet_mean            =  -4.8219860112914E+00
(PID.TID 0000.0001) %MON forcing_qnet_sd              =   2.6961433053222E+02
(PID.TID 0000.0001) %MON forcing_qnet_del2            =   1.2646132863775E+00
(PID.TID 0000.0001) %MON forcing_qsw_max              =   0.0000000000000E+00
(PID.TID 0000.0001) %MON forcing_qsw_min              =  -1.1227540687861E+02
(PID.TID 0000.0001) %MON forcing_qsw_mean             =  -1.5638240266741E+01
(PID.TID 0000.0001) %MON forcing_qsw_sd               =   2.9072453226381E+01
(PID.TID 0000.0001) %MON forcing_qsw_del2             =   2.1478820000044E-02
(PID.TID 0000.0001) %MON forcing_empmr_max            =   1.0408355295658E-01
(PID.TID 0000.0001) %MON forcing_empmr_min            =  -5.2036728709936E-02
(PID.TID 0000.0001) %MON forcing_empmr_mean           =   2.5797198945500E-05
(PID.TID 0000.0001) %MON forcing_empmr_sd             =   7.5158764624788E-04
(PID.TID 0000.0001) %MON forcing_empmr_del2           =   6.2525961850337E-06
(PID.TID 0000.0001) %MON forcing_fu_max               =   1.5298663827376E+00
(PID.TID 0000.0001) %MON forcing_fu_min               =  -1.1763991860282E+00
(PID.TID 0000.0001) %MON forcing_fu_mean              =   8.5857482200561E-03
(PID.TID 0000.0001) %MON forcing_fu_sd                =   1.1267998968533E-01
(PID.TID 0000.0001) %MON forcing_fu_del2              =   1.6480747536804E-04
(PID.TID 0000.0001) %MON forcing_fv_max               =   9.6730536222458E-01
(PID.TID 0000.0001) %MON forcing_fv_min               =  -2.4881157347632E+00
(PID.TID 0000.0001) %MON forcing_fv_mean              =  -1.8385439985667E-03
(PID.TID 0000.0001) %MON forcing_fv_sd                =   1.1040297331916E-01
(PID.TID 0000.0001) %MON forcing_fv_del2              =   1.6051574369331E-04
(PID.TID 0000.0001) %MON trAdv_CFL_u_max              =   2.0486258862400E-02
(PID.TID 0000.0001) %MON trAdv_CFL_v_max              =   1.6502872981098E-02
(PID.TID 0000.0001) %MON trAdv_CFL_w_max              =   7.8356044693209E-02
(PID.TID 0000.0001) %MON advcfl_uvel_max              =   2.0098204787382E-02
(PID.TID 0000.0001) %MON advcfl_vvel_max              =   1.6457667997609E-02
(PID.TID 0000.0001) %MON advcfl_wvel_max              =   1.3723605496121E-01
(PID.TID 0000.0001) %MON advcfl_W_hf_max              =   7.8356044693209E-02
(PID.TID 0000.0001) %MON pe_b_mean                    =   1.9069907738438E-03
(PID.TID 0000.0001) %MON ke_max                       =   1.9038446516623E+00
(PID.TID 0000.0001) %MON ke_mean                      =   8.6245605782305E-04
(PID.TID 0000.0001) %MON ke_vol                       =   1.3350064351420E+18
(PID.TID 0000.0001) %MON vort_r_min                   =  -5.6392938284853E-05
(PID.TID 0000.0001) %MON vort_r_max                   =   5.6729711136859E-05
(PID.TID 0000.0001) %MON vort_a_mean                  =  -1.9725082411216E-05
(PID.TID 0000.0001) %MON vort_a_sd                    =   7.4538469788556E-05
(PID.TID 0000.0001) %MON vort_p_mean                  =  -2.1669087916472E-05
(PID.TID 0000.0001) %MON vort_p_sd                    =   9.3608595913075E-05
(PID.TID 0000.0001) %MON surfExpan_theta_mean         =   1.2249739232585E-05
(PID.TID 0000.0001) %MON surfExpan_salt_mean          =  -5.5824671822868E-06
(PID.TID 0000.0001) // =======================================================
(PID.TID 0000.0001) // End MONITOR dynamic field statistics
(PID.TID 0000.0001) // =======================================================
(PID.TID 0000.0001) // =======================================================
(PID.TID 0000.0001) // Begin MONITOR SEAICE statistics
(PID.TID 0000.0001) // =======================================================
(PID.TID 0000.0001) %MON seaice_tsnumber              =                174643
(PID.TID 0000.0001) %MON seaice_time_sec              =   7.8589350000000E+07
(PID.TID 0000.0001) %MON seaice_uice_max              =   1.8026293683348E+00
(PID.TID 0000.0001) %MON seaice_uice_min              =  -1.6130288211752E+00
(PID.TID 0000.0001) %MON seaice_uice_mean             =  -1.5304764254868E-03
(PID.TID 0000.0001) %MON seaice_uice_sd               =   1.6992492952245E-01
(PID.TID 0000.0001) %MON seaice_uice_del2             =   3.7085945148748E-04
(PID.TID 0000.0001) %MON seaice_vice_max              =   2.0625382079313E+00
(PID.TID 0000.0001) %MON seaice_vice_min              =  -1.5463638002018E+00
(PID.TID 0000.0001) %MON seaice_vice_mean             =  -2.8129916656368E-02
(PID.TID 0000.0001) %MON seaice_vice_sd               =   1.7610552513406E-01
(PID.TID 0000.0001) %MON seaice_vice_del2             =   3.8273722005311E-04
(PID.TID 0000.0001) %MON seaice_area_max              =   1.0096677701753E+00
(PID.TID 0000.0001) %MON seaice_area_min              =   0.0000000000000E+00
(PID.TID 0000.0001) %MON seaice_area_mean             =   5.7231989550944E-02
(PID.TID 0000.0001) %MON seaice_area_sd               =   2.2200033490021E-01
(PID.TID 0000.0001) %MON seaice_area_del2             =   3.4792521915608E-04
(PID.TID 0000.0001) %MON seaice_heff_max              =   9.9501013714434E+00
(PID.TID 0000.0001) %MON seaice_heff_min              =   0.0000000000000E+00
(PID.TID 0000.0001) %MON seaice_heff_mean             =   1.5019616307455E-01
(PID.TID 0000.0001) %MON seaice_heff_sd               =   7.2199953037523E-01
(PID.TID 0000.0001) %MON seaice_heff_del2             =   1.5888941528129E-03
(PID.TID 0000.0001) %MON seaice_hsnow_max             =   3.2865323990063E+00
(PID.TID 0000.0001) %MON seaice_hsnow_min             =   0.0000000000000E+00
(PID.TID 0000.0001) %MON seaice_hsnow_mean            =   1.2764587914302E-02
(PID.TID 0000.0001) %MON seaice_hsnow_sd              =   6.9804058683726E-02
(PID.TID 0000.0001) %MON seaice_hsnow_del2            =   4.4847589147534E-04
(PID.TID 0000.0001) // =======================================================
(PID.TID 0000.0001) // End MONITOR SEAICE statistics
(PID.TID 0000.0001) // =======================================================
(PID.TID 0000.0001) // =======================================================
(PID.TID 0000.0001) // Begin MONITOR dynamic field statistics
(PID.TID 0000.0001) // =======================================================
(PID.TID 0000.0001) %MON time_tsnumber                =                174644
(PID.TID 0000.0001) %MON time_secondsf                =   7.8589800000000E+07
(PID.TID 0000.0001) %MON dynstat_eta_max              =   3.7100492999056E+00
(PID.TID 0000.0001) %MON dynstat_eta_min              =  -1.1788549923193E+01
(PID.TID 0000.0001) %MON dynstat_eta_mean             =   6.3035008429757E-02
(PID.TID 0000.0001) %MON dynstat_eta_sd               =   8.1715945604732E-01
(PID.TID 0000.0001) %MON dynstat_eta_del2             =   2.0889605136153E-03
(PID.TID 0000.0001) %MON dynstat_uvel_max             =   1.9779241189259E+00
(PID.TID 0000.0001) %MON dynstat_uvel_min             =  -1.5563223975623E+00
(PID.TID 0000.0001) %MON dynstat_uvel_mean            =   8.2525861093922E-04
(PID.TID 0000.0001) %MON dynstat_uvel_sd              =   3.0340538891301E-02
(PID.TID 0000.0001) %MON dynstat_uvel_del2            =   2.3529800362949E-05
(PID.TID 0000.0001) %MON dynstat_vvel_max             =   2.1127680649729E+00
(PID.TID 0000.0001) %MON dynstat_vvel_min             =  -1.8568755760059E+00
(PID.TID 0000.0001) %MON dynstat_vvel_mean            =  -9.0338631668302E-04
(PID.TID 0000.0001) %MON dynstat_vvel_sd              =   2.9518938359658E-02
(PID.TID 0000.0001) %MON dynstat_vvel_del2            =   2.3177370695109E-05
(PID.TID 0000.0001) %MON dynstat_wvel_max             =   5.5228085630481E-03
(PID.TID 0000.0001) %MON dynstat_wvel_min             =  -6.4382398157127E-03
(PID.TID 0000.0001) %MON dynstat_wvel_mean            =  -2.7873588103449E-07
(PID.TID 0000.0001) %MON dynstat_wvel_sd              =   7.2134454075219E-05
(PID.TID 0000.0001) %MON dynstat_wvel_del2            =   1.3131587236576E-07
(PID.TID 0000.0001) %MON dynstat_theta_max            =   3.2372075659701E+01
(PID.TID 0000.0001) %MON dynstat_theta_min            =  -2.0106085669295E+00
(PID.TID 0000.0001) %MON dynstat_theta_mean           =   3.5922885950793E+00
(PID.TID 0000.0001) %MON dynstat_theta_sd             =   4.4423998744954E+00
(PID.TID 0000.0001) %MON dynstat_theta_del2           =   1.1801673457417E-04
(PID.TID 0000.0001) %MON dynstat_salt_max             =   4.0655995865161E+01
(PID.TID 0000.0001) %MON dynstat_salt_min             =   1.6289498554655E+01
(PID.TID 0000.0001) %MON dynstat_salt_mean            =   3.4724867508857E+01
(PID.TID 0000.0001) %MON dynstat_salt_sd              =   3.7950723907292E-01
(PID.TID 0000.0001) %MON dynstat_salt_del2            =   8.0671592205499E-05
(PID.TID 0000.0001) %MON dynstat_sst_max              =   3.2372075659701E+01
(PID.TID 0000.0001) %MON dynstat_sst_min              =  -2.0106085669295E+00
(PID.TID 0000.0001) %MON dynstat_sst_mean             =   1.8180497464808E+01
(PID.TID 0000.0001) %MON dynstat_sst_sd               =   1.0141118714379E+01
(PID.TID 0000.0001) %MON dynstat_sst_del2             =   1.1612297664231E-03
(PID.TID 0000.0001) %MON dynstat_sss_max              =   3.9483460454577E+01
(PID.TID 0000.0001) %MON dynstat_sss_min              =   1.6289498554655E+01
(PID.TID 0000.0001) %MON dynstat_sss_mean             =   3.4655208004583E+01
(PID.TID 0000.0001) %MON dynstat_sss_sd               =   1.2788347375648E+00
(PID.TID 0000.0001) %MON dynstat_sss_del2             =   1.5026244820132E-03
(PID.TID 0000.0001) %MON forcing_qnet_max             =   6.3730762475839E+03
(PID.TID 0000.0001) %MON forcing_qnet_min             =  -7.9290332031250E+03
(PID.TID 0000.0001) %MON forcing_qnet_mean            =  -3.0004312107606E+00
(PID.TID 0000.0001) %MON forcing_qnet_sd              =   2.7175621590900E+02
(PID.TID 0000.0001) %MON forcing_qnet_del2            =   1.2978050894418E+00
(PID.TID 0000.0001) %MON forcing_qsw_max              =   0.0000000000000E+00
(PID.TID 0000.0001) %MON forcing_qsw_min              =  -1.1223830870912E+02
(PID.TID 0000.0001) %MON forcing_qsw_mean             =  -1.5523946937846E+01
(PID.TID 0000.0001) %MON forcing_qsw_sd               =   2.8986794397619E+01
(PID.TID 0000.0001) %MON forcing_qsw_del2             =   2.1305049639737E-02
(PID.TID 0000.0001) %MON forcing_empmr_max            =   8.4131345152855E-02
(PID.TID 0000.0001) %MON forcing_empmr_min            =  -5.3494181483984E-02
(PID.TID 0000.0001) %MON forcing_empmr_mean           =   2.5237164136671E-05
(PID.TID 0000.0001) %MON forcing_empmr_sd             =   7.1430818044396E-04
(PID.TID 0000.0001) %MON forcing_empmr_del2           =   6.2652685990386E-06
(PID.TID 0000.0001) %MON forcing_fu_max               =   1.5657367169417E+00
(PID.TID 0000.0001) %MON forcing_fu_min               =  -1.2266619316255E+00
(PID.TID 0000.0001) %MON forcing_fu_mean              =   8.5656554498332E-03
(PID.TID 0000.0001) %MON forcing_fu_sd                =   1.1277074035536E-01
(PID.TID 0000.0001) %MON forcing_fu_del2              =   1.6260333690858E-04
(PID.TID 0000.0001) %MON forcing_fv_max               =   9.7032430768013E-01
(PID.TID 0000.0001) %MON forcing_fv_min               =  -2.4342428940985E+00
(PID.TID 0000.0001) %MON forcing_fv_mean              =  -1.8090660017439E-03
(PID.TID 0000.0001) %MON forcing_fv_sd                =   1.1042196872966E-01
(PID.TID 0000.0001) %MON forcing_fv_del2              =   1.5943571292056E-04
(PID.TID 0000.0001) %MON trAdv_CFL_u_max              =   2.0380268504230E-02
(PID.TID 0000.0001) %MON trAdv_CFL_v_max              =   1.6483586945957E-02
(PID.TID 0000.0001) %MON trAdv_CFL_w_max              =   7.6780044013708E-02
(PID.TID 0000.0001) %MON advcfl_uvel_max              =   1.9994222115958E-02
(PID.TID 0000.0001) %MON advcfl_vvel_max              =   1.6480499824034E-02
(PID.TID 0000.0001) %MON advcfl_wvel_max              =   1.3199764232220E-01
(PID.TID 0000.0001) %MON advcfl_W_hf_max              =   8.0351208851555E-02
(PID.TID 0000.0001) %MON pe_b_mean                    =   1.9019364415761E-03
(PID.TID 0000.0001) %MON ke_max                       =   1.9306201290963E+00
(PID.TID 0000.0001) %MON ke_mean                      =   8.6476570520703E-04
(PID.TID 0000.0001) %MON ke_vol                       =   1.3350064351420E+18
(PID.TID 0000.0001) %MON vort_r_min                   =  -6.4421132533714E-05
(PID.TID 0000.0001) %MON vort_r_max                   =   5.7269640000880E-05
(PID.TID 0000.0001) %MON vort_a_mean                  =  -1.9725082479108E-05
(PID.TID 0000.0001) %MON vort_a_sd                    =   7.4538483561363E-05
(PID.TID 0000.0001) %MON vort_p_mean                  =  -2.1669087991054E-05
(PID.TID 0000.0001) %MON vort_p_sd                    =   9.3608480988708E-05
(PID.TID 0000.0001) %MON surfExpan_theta_mean         =   1.2964022475922E-05
(PID.TID 0000.0001) %MON surfExpan_salt_mean          =  -5.3726525033494E-06
(PID.TID 0000.0001) // =======================================================
(PID.TID 0000.0001) // End MONITOR dynamic field statistics
(PID.TID 0000.0001) // =======================================================
(PID.TID 0000.0001) // =======================================================
(PID.TID 0000.0001) // Begin MONITOR SEAICE statistics
(PID.TID 0000.0001) // =======================================================
(PID.TID 0000.0001) %MON seaice_tsnumber              =                174644
(PID.TID 0000.0001) %MON seaice_time_sec              =   7.8589800000000E+07
(PID.TID 0000.0001) %MON seaice_uice_max              =   1.8187972372483E+00
(PID.TID 0000.0001) %MON seaice_uice_min              =  -1.6059402668854E+00
(PID.TID 0000.0001) %MON seaice_uice_mean             =  -1.5501790284650E-03
(PID.TID 0000.0001) %MON seaice_uice_sd               =   1.6962784008956E-01
(PID.TID 0000.0001) %MON seaice_uice_del2             =   3.6929361599362E-04
(PID.TID 0000.0001) %MON seaice_vice_max              =   2.0943129590879E+00
(PID.TID 0000.0001) %MON seaice_vice_min              =  -1.5061527908519E+00
(PID.TID 0000.0001) %MON seaice_vice_mean             =  -2.8233736227421E-02
(PID.TID 0000.0001) %MON seaice_vice_sd               =   1.7579585082357E-01
(PID.TID 0000.0001) %MON seaice_vice_del2             =   3.7826466000848E-04
(PID.TID 0000.0001) %MON seaice_area_max              =   1.0088429483729E+00
(PID.TID 0000.0001) %MON seaice_area_min              =   0.0000000000000E+00
(PID.TID 0000.0001) %MON seaice_area_mean             =   5.7232319861336E-02
(PID.TID 0000.0001) %MON seaice_area_sd               =   2.2199187543905E-01
(PID.TID 0000.0001) %MON seaice_area_del2             =   3.4710971602257E-04
(PID.TID 0000.0001) %MON seaice_heff_max              =   9.9500693877018E+00
(PID.TID 0000.0001) %MON seaice_heff_min              =   0.0000000000000E+00
(PID.TID 0000.0001) %MON seaice_heff_mean             =   1.5019489616996E-01
(PID.TID 0000.0001) %MON seaice_heff_sd               =   7.2199445262179E-01
(PID.TID 0000.0001) %MON seaice_heff_del2             =   1.5852989306415E-03
(PID.TID 0000.0001) %MON seaice_hsnow_max             =   3.2865223147958E+00
(PID.TID 0000.0001) %MON seaice_hsnow_min             =   0.0000000000000E+00
(PID.TID 0000.0001) %MON seaice_hsnow_mean            =   1.2764167626001E-02
(PID.TID 0000.0001) %MON seaice_hsnow_sd              =   6.9785989830798E-02
(PID.TID 0000.0001) %MON seaice_hsnow_del2            =   4.4728846443109E-04
(PID.TID 0000.0001) // =======================================================
(PID.TID 0000.0001) // End MONITOR SEAICE statistics
(PID.TID 0000.0001) // =======================================================
(PID.TID 0000.0001) // =======================================================
(PID.TID 0000.0001) // Begin MONITOR dynamic field statistics
(PID.TID 0000.0001) // =======================================================
(PID.TID 0000.0001) %MON time_tsnumber                =                174645
(PID.TID 0000.0001) %MON time_secondsf                =   7.8590250000000E+07
(PID.TID 0000.0001) %MON dynstat_eta_max              =   3.8978656023616E+00
(PID.TID 0000.0001) %MON dynstat_eta_min              =  -1.1726614355614E+01
(PID.TID 0000.0001) %MON dynstat_eta_mean             =   6.2937523932193E-02
(PID.TID 0000.0001) %MON dynstat_eta_sd               =   8.1737471184967E-01
(PID.TID 0000.0001) %MON dynstat_eta_del2             =   2.0865872521720E-03
(PID.TID 0000.0001) %MON dynstat_uvel_max             =   1.9769800033797E+00
(PID.TID 0000.0001) %MON dynstat_uvel_min             =  -1.5245101809485E+00
(PID.TID 0000.0001) %MON dynstat_uvel_mean            =   8.0524974618691E-04
(PID.TID 0000.0001) %MON dynstat_uvel_sd              =   3.0364600365518E-02
(PID.TID 0000.0001) %MON dynstat_uvel_del2            =   2.3634154886213E-05
(PID.TID 0000.0001) %MON dynstat_vvel_max             =   2.1172897920135E+00
(PID.TID 0000.0001) %MON dynstat_vvel_min             =  -1.8740056671518E+00
(PID.TID 0000.0001) %MON dynstat_vvel_mean            =  -8.7594527672481E-04
(PID.TID 0000.0001) %MON dynstat_vvel_sd              =   2.9580236415500E-02
(PID.TID 0000.0001) %MON dynstat_vvel_del2            =   2.3261248608103E-05
(PID.TID 0000.0001) %MON dynstat_wvel_max             =   5.5684690351860E-03
(PID.TID 0000.0001) %MON dynstat_wvel_min             =  -6.5459816844694E-03
(PID.TID 0000.0001) %MON dynstat_wvel_mean            =  -2.6580084527228E-07
(PID.TID 0000.0001) %MON dynstat_wvel_sd              =   7.2538151191475E-05
(PID.TID 0000.0001) %MON dynstat_wvel_del2            =   1.3290146982408E-07
(PID.TID 0000.0001) %MON dynstat_theta_max            =   3.2376482209997E+01
(PID.TID 0000.0001) %MON dynstat_theta_min            =  -2.0110774115479E+00
(PID.TID 0000.0001) %MON dynstat_theta_mean           =   3.5922870474313E+00
(PID.TID 0000.0001) %MON dynstat_theta_sd             =   4.4423971485909E+00
(PID.TID 0000.0001) %MON dynstat_theta_del2           =   1.1801846604436E-04
(PID.TID 0000.0001) %MON dynstat_salt_max             =   4.0655995865145E+01
(PID.TID 0000.0001) %MON dynstat_salt_min             =   1.6287931386269E+01
(PID.TID 0000.0001) %MON dynstat_salt_mean            =   3.4724866876940E+01
(PID.TID 0000.0001) %MON dynstat_salt_sd              =   3.7950911041151E-01
(PID.TID 0000.0001) %MON dynstat_salt_del2            =   8.0504502022511E-05
(PID.TID 0000.0001) %MON dynstat_sst_max              =   3.2376482209997E+01
(PID.TID 0000.0001) %MON dynstat_sst_min              =  -2.0110774115479E+00
(PID.TID 0000.0001) %MON dynstat_sst_mean             =   1.8180314858770E+01
(PID.TID 0000.0001) %MON dynstat_sst_sd               =   1.0141380905894E+01
(PID.TID 0000.0001) %MON dynstat_sst_del2             =   1.1609973627947E-03
(PID.TID 0000.0001) %MON dynstat_sss_max              =   3.9483463668669E+01
(PID.TID 0000.0001) %MON dynstat_sss_min              =   1.6287931386269E+01
(PID.TID 0000.0001) %MON dynstat_sss_mean             =   3.4655086186377E+01
(PID.TID 0000.0001) %MON dynstat_sss_sd               =   1.2789981785019E+00
(PID.TID 0000.0001) %MON dynstat_sss_del2             =   1.5012393892406E-03
(PID.TID 0000.0001) %MON forcing_qnet_max             =   1.2009952546791E+04
(PID.TID 0000.0001) %MON forcing_qnet_min             =  -3.2326528320312E+03
(PID.TID 0000.0001) %MON forcing_qnet_mean            =   8.8489507161416E-01
(PID.TID 0000.0001) %MON forcing_qnet_sd              =   2.6891807824311E+02
(PID.TID 0000.0001) %MON forcing_qnet_del2            =   1.1800695102100E+00
(PID.TID 0000.0001) %MON forcing_qsw_max              =   0.0000000000000E+00
(PID.TID 0000.0001) %MON forcing_qsw_min              =  -1.1179130058891E+02
(PID.TID 0000.0001) %MON forcing_qsw_mean             =  -1.5224889676711E+01
(PID.TID 0000.0001) %MON forcing_qsw_sd               =   2.8757979796403E+01
(PID.TID 0000.0001) %MON forcing_qsw_del2             =   2.0789552494555E-02
(PID.TID 0000.0001) %MON forcing_empmr_max            =   1.5790677070618E-01
(PID.TID 0000.0001) %MON forcing_empmr_min            =  -5.0297483801842E-02
(PID.TID 0000.0001) %MON forcing_empmr_mean           =   2.5036029639213E-05
(PID.TID 0000.0001) %MON forcing_empmr_sd             =   8.2330597662649E-04
(PID.TID 0000.0001) %MON forcing_empmr_del2           =   6.8351576334859E-06
(PID.TID 0000.0001) %MON forcing_fu_max               =   1.5613385192355E+00
(PID.TID 0000.0001) %MON forcing_fu_min               =  -1.2527267216246E+00
(PID.TID 0000.0001) %MON forcing_fu_mean              =   8.5429437441082E-03
(PID.TID 0000.0001) %MON forcing_fu_sd                =   1.1288252853998E-01
(PID.TID 0000.0001) %MON forcing_fu_del2              =   1.6113309351500E-04
(PID.TID 0000.0001) %MON forcing_fv_max               =   9.7493818402290E-01
(PID.TID 0000.0001) %MON forcing_fv_min               =  -2.3115579687725E+00
(PID.TID 0000.0001) %MON forcing_fv_mean              =  -1.7723463134506E-03
(PID.TID 0000.0001) %MON forcing_fv_sd                =   1.1046252606353E-01
(PID.TID 0000.0001) %MON forcing_fv_del2              =   1.5918919074942E-04
(PID.TID 0000.0001) %MON trAdv_CFL_u_max              =   1.9879715606885E-02
(PID.TID 0000.0001) %MON trAdv_CFL_v_max              =   1.6635651710255E-02
(PID.TID 0000.0001) %MON trAdv_CFL_w_max              =   8.1118897751640E-02
(PID.TID 0000.0001) %MON advcfl_uvel_max              =   1.9503150773683E-02
(PID.TID 0000.0001) %MON advcfl_vvel_max              =   1.6632536108944E-02
(PID.TID 0000.0001) %MON advcfl_wvel_max              =   1.2433733428799E-01
(PID.TID 0000.0001) %MON advcfl_W_hf_max              =   8.4891869740088E-02
(PID.TID 0000.0001) %MON pe_b_mean                    =   1.8969241050544E-03
(PID.TID 0000.0001) %MON ke_max                       =   1.9517877371704E+00
(PID.TID 0000.0001) %MON ke_mean                      =   8.6717761876371E-04
(PID.TID 0000.0001) %MON ke_vol                       =   1.3350064351420E+18
(PID.TID 0000.0001) %MON vort_r_min                   =  -7.0138084665337E-05
(PID.TID 0000.0001) %MON vort_r_max                   =   5.7664653280619E-05
(PID.TID 0000.0001) %MON vort_a_mean                  =  -1.9725082363589E-05
(PID.TID 0000.0001) %MON vort_a_sd                    =   7.4538497029515E-05
(PID.TID 0000.0001) %MON vort_p_mean                  =  -2.1669087864151E-05
(PID.TID 0000.0001) %MON vort_p_sd                    =   9.3608372838029E-05
(PID.TID 0000.0001) %MON surfExpan_theta_mean         =   1.3699497370716E-05
(PID.TID 0000.0001) %MON surfExpan_salt_mean          =  -5.0874364422784E-06
(PID.TID 0000.0001) // =======================================================
(PID.TID 0000.0001) // End MONITOR dynamic field statistics
(PID.TID 0000.0001) // =======================================================
(PID.TID 0000.0001) // =======================================================
(PID.TID 0000.0001) // Begin MONITOR SEAICE statistics
(PID.TID 0000.0001) // =======================================================
(PID.TID 0000.0001) %MON seaice_tsnumber              =                174645
(PID.TID 0000.0001) %MON seaice_time_sec              =   7.8590250000000E+07
(PID.TID 0000.0001) %MON seaice_uice_max              =   1.8329138642228E+00
(PID.TID 0000.0001) %MON seaice_uice_min              =  -1.5860892724639E+00
(PID.TID 0000.0001) %MON seaice_uice_mean             =  -1.5594947574512E-03
(PID.TID 0000.0001) %MON seaice_uice_sd               =   1.6938460139302E-01
(PID.TID 0000.0001) %MON seaice_uice_del2             =   3.6839666837949E-04
(PID.TID 0000.0001) %MON seaice_vice_max              =   2.1127680649729E+00
(PID.TID 0000.0001) %MON seaice_vice_min              =  -1.5055022770738E+00
(PID.TID 0000.0001) %MON seaice_vice_mean             =  -2.8327630721864E-02
(PID.TID 0000.0001) %MON seaice_vice_sd               =   1.7553832783209E-01
(PID.TID 0000.0001) %MON seaice_vice_del2             =   3.7452859114892E-04
(PID.TID 0000.0001) %MON seaice_area_max              =   1.0079645715426E+00
(PID.TID 0000.0001) %MON seaice_area_min              =   0.0000000000000E+00
(PID.TID 0000.0001) %MON seaice_area_mean             =   5.7232673140036E-02
(PID.TID 0000.0001) %MON seaice_area_sd               =   2.2198347640974E-01
(PID.TID 0000.0001) %MON seaice_area_del2             =   3.4629843764081E-04
(PID.TID 0000.0001) %MON seaice_heff_max              =   9.9500343464374E+00
(PID.TID 0000.0001) %MON seaice_heff_min              =   0.0000000000000E+00
(PID.TID 0000.0001) %MON seaice_heff_mean             =   1.5019351190857E-01
(PID.TID 0000.0001) %MON seaice_heff_sd               =   7.2198882324818E-01
(PID.TID 0000.0001) %MON seaice_heff_del2             =   1.5817338384994E-03
(PID.TID 0000.0001) %MON seaice_hsnow_max             =   3.2865109244625E+00
(PID.TID 0000.0001) %MON seaice_hsnow_min             =   0.0000000000000E+00
(PID.TID 0000.0001) %MON seaice_hsnow_mean            =   1.2763770868034E-02
(PID.TID 0000.0001) %MON seaice_hsnow_sd              =   6.9767984082323E-02
(PID.TID 0000.0001) %MON seaice_hsnow_del2            =   4.4611453311193E-04
(PID.TID 0000.0001) // =======================================================
(PID.TID 0000.0001) // End MONITOR SEAICE statistics
(PID.TID 0000.0001) // =======================================================
(PID.TID 0000.0001) // =======================================================
(PID.TID 0000.0001) // Begin MONITOR dynamic field statistics
(PID.TID 0000.0001) // =======================================================
(PID.TID 0000.0001) %MON time_tsnumber                =                174646
(PID.TID 0000.0001) %MON time_secondsf                =   7.8590700000000E+07
(PID.TID 0000.0001) %MON dynstat_eta_max              =   4.0419584390270E+00
(PID.TID 0000.0001) %MON dynstat_eta_min              =  -1.1828512362568E+01
(PID.TID 0000.0001) %MON dynstat_eta_mean             =   6.2847989327847E-02
(PID.TID 0000.0001) %MON dynstat_eta_sd               =   8.1760225813249E-01
(PID.TID 0000.0001) %MON dynstat_eta_del2             =   2.0837916660342E-03
(PID.TID 0000.0001) %MON dynstat_uvel_max             =   1.9745178283509E+00
(PID.TID 0000.0001) %MON dynstat_uvel_min             =  -1.4831470835526E+00
(PID.TID 0000.0001) %MON dynstat_uvel_mean            =   7.9183066030179E-04
(PID.TID 0000.0001) %MON dynstat_uvel_sd              =   3.0391099526940E-02
(PID.TID 0000.0001) %MON dynstat_uvel_del2            =   2.3752485724297E-05
(PID.TID 0000.0001) %MON dynstat_vvel_max             =   2.1089465447918E+00
(PID.TID 0000.0001) %MON dynstat_vvel_min             =  -1.8874597037572E+00
(PID.TID 0000.0001) %MON dynstat_vvel_mean            =  -8.4358142941250E-04
(PID.TID 0000.0001) %MON dynstat_vvel_sd              =   2.9641530354946E-02
(PID.TID 0000.0001) %MON dynstat_vvel_del2            =   2.3368067766573E-05
(PID.TID 0000.0001) %MON dynstat_wvel_max             =   5.6160788368431E-03
(PID.TID 0000.0001) %MON dynstat_wvel_min             =  -6.6532894605780E-03
(PID.TID 0000.0001) %MON dynstat_wvel_mean            =  -2.5168994857422E-07
(PID.TID 0000.0001) %MON dynstat_wvel_sd              =   7.2943026433405E-05
(PID.TID 0000.0001) %MON dynstat_wvel_del2            =   1.3441836541233E-07
(PID.TID 0000.0001) %MON dynstat_theta_max            =   3.2380738195585E+01
(PID.TID 0000.0001) %MON dynstat_theta_min            =  -2.0115044756370E+00
(PID.TID 0000.0001) %MON dynstat_theta_mean           =   3.5922853789380E+00
(PID.TID 0000.0001) %MON dynstat_theta_sd             =   4.4423939508232E+00
(PID.TID 0000.0001) %MON dynstat_theta_del2           =   1.1801761295291E-04
(PID.TID 0000.0001) %MON dynstat_salt_max             =   4.0655995865128E+01
(PID.TID 0000.0001) %MON dynstat_salt_min             =   1.6286027180383E+01
(PID.TID 0000.0001) %MON dynstat_salt_mean            =   3.4724866265098E+01
(PID.TID 0000.0001) %MON dynstat_salt_sd              =   3.7951096458568E-01
(PID.TID 0000.0001) %MON dynstat_salt_del2            =   8.0338037249796E-05
(PID.TID 0000.0001) %MON dynstat_sst_max              =   3.2380738195585E+01
(PID.TID 0000.0001) %MON dynstat_sst_min              =  -2.0115044756370E+00
(PID.TID 0000.0001) %MON dynstat_sst_mean             =   1.8180145077529E+01
(PID.TID 0000.0001) %MON dynstat_sst_sd               =   1.0141649940100E+01
(PID.TID 0000.0001) %MON dynstat_sst_del2             =   1.1606469068605E-03
(PID.TID 0000.0001) %MON dynstat_sss_max              =   3.9483466711008E+01
(PID.TID 0000.0001) %MON dynstat_sss_min              =   1.6286027180383E+01
(PID.TID 0000.0001) %MON dynstat_sss_mean             =   3.4654966594659E+01
(PID.TID 0000.0001) %MON dynstat_sss_sd               =   1.2791617347067E+00
(PID.TID 0000.0001) %MON dynstat_sss_del2             =   1.4998001085653E-03
(PID.TID 0000.0001) %MON forcing_qnet_max             =   4.5064931640625E+03
(PID.TID 0000.0001) %MON forcing_qnet_min             =  -5.0582744140625E+03
(PID.TID 0000.0001) %MON forcing_qnet_mean            =   2.0272956553308E+00
(PID.TID 0000.0001) %MON forcing_qnet_sd              =   2.6469481461147E+02
(PID.TID 0000.0001) %MON forcing_qnet_del2            =   1.1577688109514E+00
(PID.TID 0000.0001) %MON forcing_qsw_max              =   0.0000000000000E+00
(PID.TID 0000.0001) %MON forcing_qsw_min              =  -1.1179992630222E+02
(PID.TID 0000.0001) %MON forcing_qsw_mean             =  -1.5185096995010E+01
(PID.TID 0000.0001) %MON forcing_qsw_sd               =   2.8692046075234E+01
(PID.TID 0000.0001) %MON forcing_qsw_del2             =   2.0700900508177E-02
(PID.TID 0000.0001) %MON forcing_empmr_max            =   3.2761897891760E-02
(PID.TID 0000.0001) %MON forcing_empmr_min            =  -5.2665971219540E-02
(PID.TID 0000.0001) %MON forcing_empmr_mean           =   2.1896959052501E-05
(PID.TID 0000.0001) %MON forcing_empmr_sd             =   5.2585899137486E-04
(PID.TID 0000.0001) %MON forcing_empmr_del2           =   5.8031474639042E-06
(PID.TID 0000.0001) %MON forcing_fu_max               =   1.5323014770924E+00
(PID.TID 0000.0001) %MON forcing_fu_min               =  -1.2552202562571E+00
(PID.TID 0000.0001) %MON forcing_fu_mean              =   8.5314163218474E-03
(PID.TID 0000.0001) %MON forcing_fu_sd                =   1.1302254124246E-01
(PID.TID 0000.0001) %MON forcing_fu_del2              =   1.6000911739922E-04
(PID.TID 0000.0001) %MON forcing_fv_max               =   9.7637307643890E-01
(PID.TID 0000.0001) %MON forcing_fv_min               =  -2.1785216589769E+00
(PID.TID 0000.0001) %MON forcing_fv_mean              =  -1.7395210147548E-03
(PID.TID 0000.0001) %MON forcing_fv_sd                =   1.1048018423442E-01
(PID.TID 0000.0001) %MON forcing_fv_del2              =   1.5929351362552E-04
(PID.TID 0000.0001) %MON trAdv_CFL_u_max              =   1.9008939771988E-02
(PID.TID 0000.0001) %MON trAdv_CFL_v_max              =   1.7504081123331E-02
(PID.TID 0000.0001) %MON trAdv_CFL_w_max              =   8.4816071235556E-02
(PID.TID 0000.0001) %MON advcfl_uvel_max              =   1.8648869317453E-02
(PID.TID 0000.0001) %MON advcfl_vvel_max              =   1.7479814870789E-02
(PID.TID 0000.0001) %MON advcfl_wvel_max              =   1.1488090602518E-01
(PID.TID 0000.0001) %MON advcfl_W_hf_max              =   8.8525337525780E-02
(PID.TID 0000.0001) %MON pe_b_mean                    =   1.8920549576630E-03
(PID.TID 0000.0001) %MON ke_max                       =   1.9667024921771E+00
(PID.TID 0000.0001) %MON ke_mean                      =   8.6966714173827E-04
(PID.TID 0000.0001) %MON ke_vol                       =   1.3350064351420E+18
(PID.TID 0000.0001) %MON vort_r_min                   =  -7.3565515425114E-05
(PID.TID 0000.0001) %MON vort_r_max                   =   5.7900192508285E-05
(PID.TID 0000.0001) %MON vort_a_mean                  =  -1.9725082071448E-05
(PID.TID 0000.0001) %MON vort_a_sd                    =   7.4538510098071E-05
(PID.TID 0000.0001) %MON vort_p_mean                  =  -2.1669087543217E-05
(PID.TID 0000.0001) %MON vort_p_sd                    =   9.3608272458494E-05
(PID.TID 0000.0001) %MON surfExpan_theta_mean         =   1.4456441004895E-05
(PID.TID 0000.0001) %MON surfExpan_salt_mean          =  -4.7247779978109E-06
(PID.TID 0000.0001) // =======================================================
(PID.TID 0000.0001) // End MONITOR dynamic field statistics
(PID.TID 0000.0001) // =======================================================
(PID.TID 0000.0001) // =======================================================
(PID.TID 0000.0001) // Begin MONITOR SEAICE statistics
(PID.TID 0000.0001) // =======================================================
(PID.TID 0000.0001) %MON seaice_tsnumber              =                174646
(PID.TID 0000.0001) %MON seaice_time_sec              =   7.8590700000000E+07
(PID.TID 0000.0001) %MON seaice_uice_max              =   1.8434207817556E+00
(PID.TID 0000.0001) %MON seaice_uice_min              =  -1.5564763549570E+00
(PID.TID 0000.0001) %MON seaice_uice_mean             =  -1.5508095500546E-03
(PID.TID 0000.0001) %MON seaice_uice_sd               =   1.6918739201864E-01
(PID.TID 0000.0001) %MON seaice_uice_del2             =   3.6800317600400E-04
(PID.TID 0000.0001) %MON seaice_vice_max              =   2.1172897920135E+00
(PID.TID 0000.0001) %MON seaice_vice_min              =  -1.5047532891954E+00
(PID.TID 0000.0001) %MON seaice_vice_mean             =  -2.8400591439531E-02
(PID.TID 0000.0001) %MON seaice_vice_sd               =   1.7532591452838E-01
(PID.TID 0000.0001) %MON seaice_vice_del2             =   3.7166105625505E-04
(PID.TID 0000.0001) %MON seaice_area_max              =   1.0070414003764E+00
(PID.TID 0000.0001) %MON seaice_area_min              =   0.0000000000000E+00
(PID.TID 0000.0001) %MON seaice_area_mean             =   5.7232987210679E-02
(PID.TID 0000.0001) %MON seaice_area_sd               =   2.2197493677489E-01
(PID.TID 0000.0001) %MON seaice_area_del2             =   3.4549817788457E-04
(PID.TID 0000.0001) %MON seaice_heff_max              =   9.9500030421018E+00
(PID.TID 0000.0001) %MON seaice_heff_min              =   0.0000000000000E+00
(PID.TID 0000.0001) %MON seaice_heff_mean             =   1.5019201154765E-01
(PID.TID 0000.0001) %MON seaice_heff_sd               =   7.2198280705376E-01
(PID.TID 0000.0001) %MON seaice_heff_del2             =   1.5782234542762E-03
(PID.TID 0000.0001) %MON seaice_hsnow_max             =   3.2865012110976E+00
(PID.TID 0000.0001) %MON seaice_hsnow_min             =   0.0000000000000E+00
(PID.TID 0000.0001) %MON seaice_hsnow_mean            =   1.2763359708276E-02
(PID.TID 0000.0001) %MON seaice_hsnow_sd              =   6.9750089305334E-02
(PID.TID 0000.0001) %MON seaice_hsnow_del2            =   4.4496233722237E-04
(PID.TID 0000.0001) // =======================================================
(PID.TID 0000.0001) // End MONITOR SEAICE statistics
(PID.TID 0000.0001) // =======================================================
(PID.TID 0000.0001) // =======================================================
(PID.TID 0000.0001) // Begin MONITOR dynamic field statistics
(PID.TID 0000.0001) // =======================================================
(PID.TID 0000.0001) %MON time_tsnumber                =                174647
(PID.TID 0000.0001) %MON time_secondsf                =   7.8591150000000E+07
(PID.TID 0000.0001) %MON dynstat_eta_max              =   4.1405540164938E+00
(PID.TID 0000.0001) %MON dynstat_eta_min              =  -1.1901883445086E+01
(PID.TID 0000.0001) %MON dynstat_eta_mean             =   6.2765563441145E-02
(PID.TID 0000.0001) %MON dynstat_eta_sd               =   8.1785967094882E-01
(PID.TID 0000.0001) %MON dynstat_eta_del2             =   2.0806300340697E-03
(PID.TID 0000.0001) %MON dynstat_uvel_max             =   1.9708309328454E+00
(PID.TID 0000.0001) %MON dynstat_uvel_min             =  -1.4957811004264E+00
(PID.TID 0000.0001) %MON dynstat_uvel_mean            =   7.8533916759306E-04
(PID.TID 0000.0001) %MON dynstat_uvel_sd              =   3.0419611978950E-02
(PID.TID 0000.0001) %MON dynstat_uvel_del2            =   2.3879449908344E-05
(PID.TID 0000.0001) %MON dynstat_vvel_max             =   2.0883239647196E+00
(PID.TID 0000.0001) %MON dynstat_vvel_min             =  -1.8971369253963E+00
(PID.TID 0000.0001) %MON dynstat_vvel_mean            =  -8.0648295916703E-04
(PID.TID 0000.0001) %MON dynstat_vvel_sd              =   2.9701124432916E-02
(PID.TID 0000.0001) %MON dynstat_vvel_del2            =   2.3492411294586E-05
(PID.TID 0000.0001) %MON dynstat_wvel_max             =   5.6659365410096E-03
(PID.TID 0000.0001) %MON dynstat_wvel_min             =  -6.7592021837761E-03
(PID.TID 0000.0001) %MON dynstat_wvel_mean            =  -2.3643786873151E-07
(PID.TID 0000.0001) %MON dynstat_wvel_sd              =   7.3348106487523E-05
(PID.TID 0000.0001) %MON dynstat_wvel_del2            =   1.3587102487210E-07
(PID.TID 0000.0001) %MON dynstat_theta_max            =   3.2384801749022E+01
(PID.TID 0000.0001) %MON dynstat_theta_min            =  -2.0118886821302E+00
(PID.TID 0000.0001) %MON dynstat_theta_mean           =   3.5922835791060E+00
(PID.TID 0000.0001) %MON dynstat_theta_sd             =   4.4423902552467E+00
(PID.TID 0000.0001) %MON dynstat_theta_del2           =   1.1801845277448E-04
(PID.TID 0000.0001) %MON dynstat_salt_max             =   4.0655995865111E+01
(PID.TID 0000.0001) %MON dynstat_salt_min             =   1.6283763410727E+01
(PID.TID 0000.0001) %MON dynstat_salt_mean            =   3.4724865668867E+01
(PID.TID 0000.0001) %MON dynstat_salt_sd              =   3.7951281712095E-01
(PID.TID 0000.0001) %MON dynstat_salt_del2            =   8.0172354450858E-05
(PID.TID 0000.0001) %MON dynstat_sst_max              =   3.2384801749022E+01
(PID.TID 0000.0001) %MON dynstat_sst_min              =  -2.0118886821302E+00
(PID.TID 0000.0001) %MON dynstat_sst_mean             =   1.8179965600494E+01
(PID.TID 0000.0001) %MON dynstat_sst_sd               =   1.0141907663094E+01
(PID.TID 0000.0001) %MON dynstat_sst_del2             =   1.1603902486052E-03
(PID.TID 0000.0001) %MON dynstat_sss_max              =   3.9483470201684E+01
(PID.TID 0000.0001) %MON dynstat_sss_min              =   1.6283763410727E+01
(PID.TID 0000.0001) %MON dynstat_sss_mean             =   3.4654847363383E+01
(PID.TID 0000.0001) %MON dynstat_sss_sd               =   1.2793237357147E+00
(PID.TID 0000.0001) %MON dynstat_sss_del2             =   1.4983908839847E-03
(PID.TID 0000.0001) %MON forcing_qnet_max             =   7.1303403320312E+03
(PID.TID 0000.0001) %MON forcing_qnet_min             =  -6.5949179687500E+03
(PID.TID 0000.0001) %MON forcing_qnet_mean            =   3.7908333014625E+00
(PID.TID 0000.0001) %MON forcing_qnet_sd              =   2.6661800099574E+02
(PID.TID 0000.0001) %MON forcing_qnet_del2            =   1.2223151318328E+00
(PID.TID 0000.0001) %MON forcing_qsw_max              =   0.0000000000000E+00
(PID.TID 0000.0001) %MON forcing_qsw_min              =  -1.1197235531326E+02
(PID.TID 0000.0001) %MON forcing_qsw_mean             =  -1.5139628473321E+01
(PID.TID 0000.0001) %MON forcing_qsw_sd               =   2.8608069476876E+01
(PID.TID 0000.0001) %MON forcing_qsw_del2             =   2.0608459881491E-02
(PID.TID 0000.0001) %MON forcing_empmr_max            =   6.9544911384583E-02
(PID.TID 0000.0001) %MON forcing_empmr_min            =  -5.3134493529797E-02
(PID.TID 0000.0001) %MON forcing_empmr_mean           =   2.2535731894655E-05
(PID.TID 0000.0001) %MON forcing_empmr_sd             =   6.3535274448842E-04
(PID.TID 0000.0001) %MON forcing_empmr_del2           =   6.9578896201843E-06
(PID.TID 0000.0001) %MON forcing_fu_max               =   1.4919327364425E+00
(PID.TID 0000.0001) %MON forcing_fu_min               =  -1.2339839184204E+00
(PID.TID 0000.0001) %MON forcing_fu_mean              =   8.5163878367451E-03
(PID.TID 0000.0001) %MON forcing_fu_sd                =   1.1312333937880E-01
(PID.TID 0000.0001) %MON forcing_fu_del2              =   1.5905869379002E-04
(PID.TID 0000.0001) %MON forcing_fv_max               =   1.0141199504984E+00
(PID.TID 0000.0001) %MON forcing_fv_min               =  -2.0651922972906E+00
(PID.TID 0000.0001) %MON forcing_fv_mean              =  -1.6997756131658E-03
(PID.TID 0000.0001) %MON forcing_fv_sd                =   1.1052046374107E-01
(PID.TID 0000.0001) %MON forcing_fv_del2              =   1.5975435134964E-04
(PID.TID 0000.0001) %MON trAdv_CFL_u_max              =   1.8220499647793E-02
(PID.TID 0000.0001) %MON trAdv_CFL_v_max              =   1.8691990193259E-02
(PID.TID 0000.0001) %MON trAdv_CFL_w_max              =   8.8084205528712E-02
(PID.TID 0000.0001) %MON advcfl_uvel_max              =   1.7940108879646E-02
(PID.TID 0000.0001) %MON advcfl_vvel_max              =   1.8666077118969E-02
(PID.TID 0000.0001) %MON advcfl_wvel_max              =   1.2831674403738E-01
(PID.TID 0000.0001) %MON advcfl_W_hf_max              =   9.1277739174919E-02
(PID.TID 0000.0001) %MON pe_b_mean                    =   1.8873525762889E-03
(PID.TID 0000.0001) %MON ke_max                       =   1.9756971540744E+00
(PID.TID 0000.0001) %MON ke_mean                      =   8.7217403997848E-04
(PID.TID 0000.0001) %MON ke_vol                       =   1.3350064351420E+18
(PID.TID 0000.0001) %MON vort_r_min                   =  -7.4867406529333E-05
(PID.TID 0000.0001) %MON vort_r_max                   =   5.7975984837065E-05
(PID.TID 0000.0001) %MON vort_a_mean                  =  -1.9725081613329E-05
(PID.TID 0000.0001) %MON vort_a_sd                    =   7.4538522721082E-05
(PID.TID 0000.0001) %MON vort_p_mean                  =  -2.1669087039949E-05
(PID.TID 0000.0001) %MON vort_p_sd                    =   9.3608180209067E-05
(PID.TID 0000.0001) %MON surfExpan_theta_mean         =   1.5221030698993E-05
(PID.TID 0000.0001) %MON surfExpan_salt_mean          =  -4.2844815666178E-06
(PID.TID 0000.0001) // =======================================================
(PID.TID 0000.0001) // End MONITOR dynamic field statistics
(PID.TID 0000.0001) // =======================================================
(PID.TID 0000.0001) // =======================================================
(PID.TID 0000.0001) // Begin MONITOR SEAICE statistics
(PID.TID 0000.0001) // =======================================================
(PID.TID 0000.0001) %MON seaice_tsnumber              =                174647
(PID.TID 0000.0001) %MON seaice_time_sec              =   7.8591150000000E+07
(PID.TID 0000.0001) %MON seaice_uice_max              =   1.8506871488167E+00
(PID.TID 0000.0001) %MON seaice_uice_min              =  -1.5166664971542E+00
(PID.TID 0000.0001) %MON seaice_uice_mean             =  -1.5311406723146E-03
(PID.TID 0000.0001) %MON seaice_uice_sd               =   1.6904493468422E-01
(PID.TID 0000.0001) %MON seaice_uice_del2             =   3.6795335562446E-04
(PID.TID 0000.0001) %MON seaice_vice_max              =   2.1089465447918E+00
(PID.TID 0000.0001) %MON seaice_vice_min              =  -1.5039125120115E+00
(PID.TID 0000.0001) %MON seaice_vice_mean             =  -2.8461881845855E-02
(PID.TID 0000.0001) %MON seaice_vice_sd               =   1.7517285688580E-01
(PID.TID 0000.0001) %MON seaice_vice_del2             =   3.6960640529114E-04
(PID.TID 0000.0001) %MON seaice_area_max              =   1.0060931722951E+00
(PID.TID 0000.0001) %MON seaice_area_min              =   0.0000000000000E+00
(PID.TID 0000.0001) %MON seaice_area_mean             =   5.7233360259025E-02
(PID.TID 0000.0001) %MON seaice_area_sd               =   2.2196658253885E-01
(PID.TID 0000.0001) %MON seaice_area_del2             =   3.4470976539739E-04
(PID.TID 0000.0001) %MON seaice_heff_max              =   9.9500031004359E+00
(PID.TID 0000.0001) %MON seaice_heff_min              =   0.0000000000000E+00
(PID.TID 0000.0001) %MON seaice_heff_mean             =   1.5019039355751E-01
(PID.TID 0000.0001) %MON seaice_heff_sd               =   7.2197646271465E-01
(PID.TID 0000.0001) %MON seaice_heff_del2             =   1.5747871045261E-03
(PID.TID 0000.0001) %MON seaice_hsnow_max             =   3.2865015974520E+00
(PID.TID 0000.0001) %MON seaice_hsnow_min             =   0.0000000000000E+00
(PID.TID 0000.0001) %MON seaice_hsnow_mean            =   1.2762950654188E-02
(PID.TID 0000.0001) %MON seaice_hsnow_sd              =   6.9732483104188E-02
(PID.TID 0000.0001) %MON seaice_hsnow_del2            =   4.4383827820635E-04
(PID.TID 0000.0001) // =======================================================
(PID.TID 0000.0001) // End MONITOR SEAICE statistics
(PID.TID 0000.0001) // =======================================================
(PID.TID 0000.0001) // =======================================================
(PID.TID 0000.0001) // Begin MONITOR dynamic field statistics
(PID.TID 0000.0001) // =======================================================
(PID.TID 0000.0001) %MON time_tsnumber                =                174648
(PID.TID 0000.0001) %MON time_secondsf                =   7.8591600000000E+07
(PID.TID 0000.0001) %MON dynstat_eta_max              =   4.1927448434554E+00
(PID.TID 0000.0001) %MON dynstat_eta_min              =  -1.1946390696130E+01
(PID.TID 0000.0001) %MON dynstat_eta_mean             =   6.2692117639397E-02
(PID.TID 0000.0001) %MON dynstat_eta_sd               =   8.1816401544896E-01
(PID.TID 0000.0001) %MON dynstat_eta_del2             =   2.0771817286387E-03
(PID.TID 0000.0001) %MON dynstat_uvel_max             =   1.9661555566877E+00
(PID.TID 0000.0001) %MON dynstat_uvel_min             =  -1.4714056270202E+00
(PID.TID 0000.0001) %MON dynstat_uvel_mean            =   7.8597148843767E-04
(PID.TID 0000.0001) %MON dynstat_uvel_sd              =   3.0449690679713E-02
(PID.TID 0000.0001) %MON dynstat_uvel_del2            =   2.4009673117276E-05
(PID.TID 0000.0001) %MON dynstat_vvel_max             =   2.0560899802600E+00
(PID.TID 0000.0001) %MON dynstat_vvel_min             =  -1.9031522095101E+00
(PID.TID 0000.0001) %MON dynstat_vvel_mean            =  -7.6483921243878E-04
(PID.TID 0000.0001) %MON dynstat_vvel_sd              =   2.9758744892980E-02
(PID.TID 0000.0001) %MON dynstat_vvel_del2            =   2.3628611703276E-05
(PID.TID 0000.0001) %MON dynstat_wvel_max             =   5.7182897163317E-03
(PID.TID 0000.0001) %MON dynstat_wvel_min             =  -6.8629387360725E-03
(PID.TID 0000.0001) %MON dynstat_wvel_mean            =  -2.2023365159253E-07
(PID.TID 0000.0001) %MON dynstat_wvel_sd              =   7.3751952064954E-05
(PID.TID 0000.0001) %MON dynstat_wvel_del2            =   1.3726616734735E-07
(PID.TID 0000.0001) %MON dynstat_theta_max            =   3.2388710087888E+01
(PID.TID 0000.0001) %MON dynstat_theta_min            =  -2.0122490114545E+00
(PID.TID 0000.0001) %MON dynstat_theta_mean           =   3.5922816505217E+00
(PID.TID 0000.0001) %MON dynstat_theta_sd             =   4.4423861177521E+00
(PID.TID 0000.0001) %MON dynstat_theta_del2           =   1.1801535338708E-04
(PID.TID 0000.0001) %MON dynstat_salt_max             =   4.0655995865093E+01
(PID.TID 0000.0001) %MON dynstat_salt_min             =   1.6281167753259E+01
(PID.TID 0000.0001) %MON dynstat_salt_mean            =   3.4724865090428E+01
(PID.TID 0000.0001) %MON dynstat_salt_sd              =   3.7951468312196E-01
(PID.TID 0000.0001) %MON dynstat_salt_del2            =   8.0006840715765E-05
(PID.TID 0000.0001) %MON dynstat_sst_max              =   3.2388710087888E+01
(PID.TID 0000.0001) %MON dynstat_sst_min              =  -2.0122490114545E+00
(PID.TID 0000.0001) %MON dynstat_sst_mean             =   1.8179794327620E+01
(PID.TID 0000.0001) %MON dynstat_sst_sd               =   1.0142168820711E+01
(PID.TID 0000.0001) %MON dynstat_sst_del2             =   1.1598537625879E-03
(PID.TID 0000.0001) %MON dynstat_sss_max              =   3.9483473520604E+01
(PID.TID 0000.0001) %MON dynstat_sss_min              =   1.6281167753259E+01
(PID.TID 0000.0001) %MON dynstat_sss_mean             =   3.4654729926843E+01
(PID.TID 0000.0001) %MON dynstat_sss_sd               =   1.2794861233038E+00
(PID.TID 0000.0001) %MON dynstat_sss_del2             =   1.4969330458442E-03
(PID.TID 0000.0001) %MON forcing_qnet_max             =   4.1207675781250E+03
(PID.TID 0000.0001) %MON forcing_qnet_min             =  -3.8978784179688E+03
(PID.TID 0000.0001) %MON forcing_qnet_mean            =   5.1442568057231E+00
(PID.TID 0000.0001) %MON forcing_qnet_sd              =   2.6216229755240E+02
(PID.TID 0000.0001) %MON forcing_qnet_del2            =   1.1209236022838E+00
(PID.TID 0000.0001) %MON forcing_qsw_max              =   0.0000000000000E+00
(PID.TID 0000.0001) %MON forcing_qsw_min              =  -1.1203150900473E+02
(PID.TID 0000.0001) %MON forcing_qsw_mean             =  -1.5088805323080E+01
(PID.TID 0000.0001) %MON forcing_qsw_sd               =   2.8506292560149E+01
(PID.TID 0000.0001) %MON forcing_qsw_del2             =   2.0512797191648E-02
(PID.TID 0000.0001) %MON forcing_empmr_max            =   3.2721128314734E-02
(PID.TID 0000.0001) %MON forcing_empmr_min            =  -5.2167635411024E-02
(PID.TID 0000.0001) %MON forcing_empmr_mean           =   2.0340739267970E-05
(PID.TID 0000.0001) %MON forcing_empmr_sd             =   5.0909390274275E-04
(PID.TID 0000.0001) %MON forcing_empmr_del2           =   5.7460464138793E-06
(PID.TID 0000.0001) %MON forcing_fu_max               =   1.4463597254954E+00
(PID.TID 0000.0001) %MON forcing_fu_min               =  -1.1916074448792E+00
(PID.TID 0000.0001) %MON forcing_fu_mean              =   8.5088969821274E-03
(PID.TID 0000.0001) %MON forcing_fu_sd                =   1.1324614884313E-01
(PID.TID 0000.0001) %MON forcing_fu_del2              =   1.5809918412925E-04
(PID.TID 0000.0001) %MON forcing_fv_max               =   1.0084952894375E+00
(PID.TID 0000.0001) %MON forcing_fv_min               =  -1.9756550727512E+00
(PID.TID 0000.0001) %MON forcing_fv_mean              =  -1.6624516498834E-03
(PID.TID 0000.0001) %MON forcing_fv_sd                =   1.1054601034666E-01
(PID.TID 0000.0001) %MON forcing_fv_del2              =   1.6050411054524E-04
(PID.TID 0000.0001) %MON trAdv_CFL_u_max              =   1.7923575649699E-02
(PID.TID 0000.0001) %MON trAdv_CFL_v_max              =   1.9191223254331E-02
(PID.TID 0000.0001) %MON trAdv_CFL_w_max              =   9.0544440775259E-02
(PID.TID 0000.0001) %MON advcfl_uvel_max              =   1.7647754171612E-02
(PID.TID 0000.0001) %MON advcfl_vvel_max              =   1.9164618083411E-02
(PID.TID 0000.0001) %MON advcfl_wvel_max              =   1.3716889634892E-01
(PID.TID 0000.0001) %MON advcfl_W_hf_max              =   9.3174364052852E-02
(PID.TID 0000.0001) %MON pe_b_mean                    =   1.8829128009188E-03
(PID.TID 0000.0001) %MON ke_max                       =   1.9792363031997E+00
(PID.TID 0000.0001) %MON ke_mean                      =   8.7467787029717E-04
(PID.TID 0000.0001) %MON ke_vol                       =   1.3350064351420E+18
(PID.TID 0000.0001) %MON vort_r_min                   =  -7.4269882709123E-05
(PID.TID 0000.0001) %MON vort_r_max                   =   5.7888352670053E-05
(PID.TID 0000.0001) %MON vort_a_mean                  =  -1.9725081003060E-05
(PID.TID 0000.0001) %MON vort_a_sd                    =   7.4538534917117E-05
(PID.TID 0000.0001) %MON vort_p_mean                  =  -2.1669086369534E-05
(PID.TID 0000.0001) %MON vort_p_sd                    =   9.3608098026161E-05
(PID.TID 0000.0001) %MON surfExpan_theta_mean         =   1.5980134457348E-05
(PID.TID 0000.0001) %MON surfExpan_salt_mean          =  -3.7809544244559E-06
(PID.TID 0000.0001) // =======================================================
(PID.TID 0000.0001) // End MONITOR dynamic field statistics
(PID.TID 0000.0001) // =======================================================
(PID.TID 0000.0001) // =======================================================
(PID.TID 0000.0001) // Begin MONITOR SEAICE statistics
(PID.TID 0000.0001) // =======================================================
(PID.TID 0000.0001) %MON seaice_tsnumber              =                174648
(PID.TID 0000.0001) %MON seaice_time_sec              =   7.8591600000000E+07
(PID.TID 0000.0001) %MON seaice_uice_max              =   1.8555605152652E+00
(PID.TID 0000.0001) %MON seaice_uice_min              =  -1.4684124696871E+00
(PID.TID 0000.0001) %MON seaice_uice_mean             =  -1.4976916308101E-03
(PID.TID 0000.0001) %MON seaice_uice_sd               =   1.6894470059040E-01
(PID.TID 0000.0001) %MON seaice_uice_del2             =   3.6818530781413E-04
(PID.TID 0000.0001) %MON seaice_vice_max              =   2.0883239647196E+00
(PID.TID 0000.0001) %MON seaice_vice_min              =  -1.5029685883309E+00
(PID.TID 0000.0001) %MON seaice_vice_mean             =  -2.8505005494793E-02
(PID.TID 0000.0001) %MON seaice_vice_sd               =   1.7503512533930E-01
(PID.TID 0000.0001) %MON seaice_vice_del2             =   3.6823152068802E-04
(PID.TID 0000.0001) %MON seaice_area_max              =   1.0051374312423E+00
(PID.TID 0000.0001) %MON seaice_area_min              =   0.0000000000000E+00
(PID.TID 0000.0001) %MON seaice_area_mean             =   5.7233852808324E-02
(PID.TID 0000.0001) %MON seaice_area_sd               =   2.2195867943790E-01
(PID.TID 0000.0001) %MON seaice_area_del2             =   3.4393331792797E-04
(PID.TID 0000.0001) %MON seaice_heff_max              =   9.9499734399610E+00
(PID.TID 0000.0001) %MON seaice_heff_min              =   0.0000000000000E+00
(PID.TID 0000.0001) %MON seaice_heff_mean             =   1.5018866996535E-01
(PID.TID 0000.0001) %MON seaice_heff_sd               =   7.2196991769266E-01
(PID.TID 0000.0001) %MON seaice_heff_del2             =   1.5714388088304E-03
(PID.TID 0000.0001) %MON seaice_hsnow_max             =   3.2864920343567E+00
(PID.TID 0000.0001) %MON seaice_hsnow_min             =   0.0000000000000E+00
(PID.TID 0000.0001) %MON seaice_hsnow_mean            =   1.2762544993836E-02
(PID.TID 0000.0001) %MON seaice_hsnow_sd              =   6.9715288145659E-02
(PID.TID 0000.0001) %MON seaice_hsnow_del2            =   4.4274789332922E-04
(PID.TID 0000.0001) // =======================================================
(PID.TID 0000.0001) // End MONITOR SEAICE statistics
(PID.TID 0000.0001) // =======================================================
(PID.TID 0000.0001) // =======================================================
(PID.TID 0000.0001) // Begin MONITOR dynamic field statistics
(PID.TID 0000.0001) // =======================================================
(PID.TID 0000.0001) %MON time_tsnumber                =                174649
(PID.TID 0000.0001) %MON time_secondsf                =   7.8592050000000E+07
(PID.TID 0000.0001) %MON dynstat_eta_max              =   4.1985101672344E+00
(PID.TID 0000.0001) %MON dynstat_eta_min              =  -1.1962792838972E+01
(PID.TID 0000.0001) %MON dynstat_eta_mean             =   6.2627616060786E-02
(PID.TID 0000.0001) %MON dynstat_eta_sd               =   8.1852863993032E-01
(PID.TID 0000.0001) %MON dynstat_eta_del2             =   2.0735403751539E-03
(PID.TID 0000.0001) %MON dynstat_uvel_max             =   1.9607952532215E+00
(PID.TID 0000.0001) %MON dynstat_uvel_min             =  -1.5097232257958E+00
(PID.TID 0000.0001) %MON dynstat_uvel_mean            =   7.9377004308828E-04
(PID.TID 0000.0001) %MON dynstat_uvel_sd              =   3.0480886800925E-02
(PID.TID 0000.0001) %MON dynstat_uvel_del2            =   2.4139465662194E-05
(PID.TID 0000.0001) %MON dynstat_vvel_max             =   2.0129355541631E+00
(PID.TID 0000.0001) %MON dynstat_vvel_min             =  -1.9065852304469E+00
(PID.TID 0000.0001) %MON dynstat_vvel_mean            =  -7.1886321646287E-04
(PID.TID 0000.0001) %MON dynstat_vvel_sd              =   2.9812816869533E-02
(PID.TID 0000.0001) %MON dynstat_vvel_del2            =   2.3771753475652E-05
(PID.TID 0000.0001) %MON dynstat_wvel_max             =   5.7733202279826E-03
(PID.TID 0000.0001) %MON dynstat_wvel_min             =  -6.9639176537424E-03
(PID.TID 0000.0001) %MON dynstat_wvel_mean            =  -2.0326490598527E-07
(PID.TID 0000.0001) %MON dynstat_wvel_sd              =   7.4152455860143E-05
(PID.TID 0000.0001) %MON dynstat_wvel_del2            =   1.3861471541925E-07
(PID.TID 0000.0001) %MON dynstat_theta_max            =   3.2392444572058E+01
(PID.TID 0000.0001) %MON dynstat_theta_min            =  -2.0126000602766E+00
(PID.TID 0000.0001) %MON dynstat_theta_mean           =   3.5922795832128E+00
(PID.TID 0000.0001) %MON dynstat_theta_sd             =   4.4423815053403E+00
(PID.TID 0000.0001) %MON dynstat_theta_del2           =   1.1801537835159E-04
(PID.TID 0000.0001) %MON dynstat_salt_max             =   4.0655995865074E+01
(PID.TID 0000.0001) %MON dynstat_salt_min             =   1.6278296043601E+01
(PID.TID 0000.0001) %MON dynstat_salt_mean            =   3.4724864521431E+01
(PID.TID 0000.0001) %MON dynstat_salt_sd              =   3.7951655745724E-01
(PID.TID 0000.0001) %MON dynstat_salt_del2            =   7.9842081711527E-05
(PID.TID 0000.0001) %MON dynstat_sst_max              =   3.2392444572058E+01
(PID.TID 0000.0001) %MON dynstat_sst_min              =  -2.0126000602766E+00
(PID.TID 0000.0001) %MON dynstat_sst_mean             =   1.8179606544456E+01
(PID.TID 0000.0001) %MON dynstat_sst_sd               =   1.0142414734471E+01
(PID.TID 0000.0001) %MON dynstat_sst_del2             =   1.1594335833379E-03
(PID.TID 0000.0001) %MON dynstat_sss_max              =   3.9483477564457E+01
(PID.TID 0000.0001) %MON dynstat_sss_min              =   1.6278296043601E+01
(PID.TID 0000.0001) %MON dynstat_sss_mean             =   3.4654611606877E+01
(PID.TID 0000.0001) %MON dynstat_sss_sd               =   1.2796458019974E+00
(PID.TID 0000.0001) %MON dynstat_sss_del2             =   1.4954827072186E-03
(PID.TID 0000.0001) %MON forcing_qnet_max             =   1.2142562500000E+04
(PID.TID 0000.0001) %MON forcing_qnet_min             =  -2.6408103027344E+03
(PID.TID 0000.0001) %MON forcing_qnet_mean            =   6.9996878809175E+00
(PID.TID 0000.0001) %MON forcing_qnet_sd              =   2.6765231726059E+02
(PID.TID 0000.0001) %MON forcing_qnet_del2            =   1.2580121324208E+00
(PID.TID 0000.0001) %MON forcing_qsw_max              =   0.0000000000000E+00
(PID.TID 0000.0001) %MON forcing_qsw_min              =  -1.1197214024317E+02
(PID.TID 0000.0001) %MON forcing_qsw_mean             =  -1.5032743769874E+01
(PID.TID 0000.0001) %MON forcing_qsw_sd               =   2.8387073934249E+01
(PID.TID 0000.0001) %MON forcing_qsw_del2             =   2.0414276109228E-02
(PID.TID 0000.0001) %MON forcing_empmr_max            =   3.4829720854759E-02
(PID.TID 0000.0001) %MON forcing_empmr_min            =  -5.0359737128019E-02
(PID.TID 0000.0001) %MON forcing_empmr_mean           =   1.9172378792073E-05
(PID.TID 0000.0001) %MON forcing_empmr_sd             =   5.0731232152410E-04
(PID.TID 0000.0001) %MON forcing_empmr_del2           =   5.7877821544289E-06
(PID.TID 0000.0001) %MON forcing_fu_max               =   1.3977001032852E+00
(PID.TID 0000.0001) %MON forcing_fu_min               =  -1.1365562644720E+00
(PID.TID 0000.0001) %MON forcing_fu_mean              =   8.5012535006813E-03
(PID.TID 0000.0001) %MON forcing_fu_sd                =   1.1334739000499E-01
(PID.TID 0000.0001) %MON forcing_fu_del2              =   1.5739454856237E-04
(PID.TID 0000.0001) %MON forcing_fv_max               =   9.8429682850838E-01
(PID.TID 0000.0001) %MON forcing_fv_min               =  -1.9053213407200E+00
(PID.TID 0000.0001) %MON forcing_fv_mean              =  -1.6382115868135E-03
(PID.TID 0000.0001) %MON forcing_fv_sd                =   1.1051054748829E-01
(PID.TID 0000.0001) %MON forcing_fv_del2              =   1.6146948263719E-04
(PID.TID 0000.0001) %MON trAdv_CFL_u_max              =   1.8390332312687E-02
(PID.TID 0000.0001) %MON trAdv_CFL_v_max              =   1.9078685991149E-02
(PID.TID 0000.0001) %MON trAdv_CFL_w_max              =   9.2198600885117E-02
(PID.TID 0000.0001) %MON advcfl_uvel_max              =   1.8107328031613E-02
(PID.TID 0000.0001) %MON advcfl_vvel_max              =   1.9052236832855E-02
(PID.TID 0000.0001) %MON advcfl_wvel_max              =   1.4155366280012E-01
(PID.TID 0000.0001) %MON advcfl_W_hf_max              =   9.4236361151878E-02
(PID.TID 0000.0001) %MON pe_b_mean                    =   1.8787714149674E-03
(PID.TID 0000.0001) %MON ke_max                       =   1.9794374663131E+00
(PID.TID 0000.0001) %MON ke_mean                      =   8.7712070223584E-04
(PID.TID 0000.0001) %MON ke_vol                       =   1.3350064351420E+18
(PID.TID 0000.0001) %MON vort_r_min                   =  -7.8676403258751E-05
(PID.TID 0000.0001) %MON vort_r_max                   =   5.8183428115102E-05
(PID.TID 0000.0001) %MON vort_a_mean                  =  -1.9725080256925E-05
(PID.TID 0000.0001) %MON vort_a_sd                    =   7.4538546726432E-05
(PID.TID 0000.0001) %MON vort_p_mean                  =  -2.1669085549864E-05
(PID.TID 0000.0001) %MON vort_p_sd                    =   9.3608025184327E-05
(PID.TID 0000.0001) %MON surfExpan_theta_mean         =   1.6724904375032E-05
(PID.TID 0000.0001) %MON surfExpan_salt_mean          =  -3.2312767912047E-06
(PID.TID 0000.0001) // =======================================================
(PID.TID 0000.0001) // End MONITOR dynamic field statistics
(PID.TID 0000.0001) // =======================================================
(PID.TID 0000.0001) // =======================================================
(PID.TID 0000.0001) // Begin MONITOR SEAICE statistics
(PID.TID 0000.0001) // =======================================================
(PID.TID 0000.0001) %MON seaice_tsnumber              =                174649
(PID.TID 0000.0001) %MON seaice_time_sec              =   7.8592050000000E+07
(PID.TID 0000.0001) %MON seaice_uice_max              =   1.8601344508638E+00
(PID.TID 0000.0001) %MON seaice_uice_min              =  -1.4457128151797E+00
(PID.TID 0000.0001) %MON seaice_uice_mean             =  -1.4541272615275E-03
(PID.TID 0000.0001) %MON seaice_uice_sd               =   1.6888037184779E-01
(PID.TID 0000.0001) %MON seaice_uice_del2             =   3.6851657981772E-04
(PID.TID 0000.0001) %MON seaice_vice_max              =   2.0560899802600E+00
(PID.TID 0000.0001) %MON seaice_vice_min              =  -1.5019355803998E+00
(PID.TID 0000.0001) %MON seaice_vice_mean             =  -2.8534301154731E-02
(PID.TID 0000.0001) %MON seaice_vice_sd               =   1.7494637071091E-01
(PID.TID 0000.0001) %MON seaice_vice_del2             =   3.6753106148333E-04
(PID.TID 0000.0001) %MON seaice_area_max              =   1.0041917745023E+00
(PID.TID 0000.0001) %MON seaice_area_min              =   0.0000000000000E+00
(PID.TID 0000.0001) %MON seaice_area_mean             =   5.7234431856176E-02
(PID.TID 0000.0001) %MON seaice_area_sd               =   2.2195111271262E-01
(PID.TID 0000.0001) %MON seaice_area_del2             =   3.4317790199984E-04
(PID.TID 0000.0001) %MON seaice_heff_max              =   9.9499610712759E+00
(PID.TID 0000.0001) %MON seaice_heff_min              =   0.0000000000000E+00
(PID.TID 0000.0001) %MON seaice_heff_mean             =   1.5018684104494E-01
(PID.TID 0000.0001) %MON seaice_heff_sd               =   7.2196322196880E-01
(PID.TID 0000.0001) %MON seaice_heff_del2             =   1.5681890073484E-03
(PID.TID 0000.0001) %MON seaice_hsnow_max             =   3.2864884865077E+00
(PID.TID 0000.0001) %MON seaice_hsnow_min             =   0.0000000000000E+00
(PID.TID 0000.0001) %MON seaice_hsnow_mean            =   1.2762128016675E-02
(PID.TID 0000.0001) %MON seaice_hsnow_sd              =   6.9698523543770E-02
(PID.TID 0000.0001) %MON seaice_hsnow_del2            =   4.4169475978223E-04
(PID.TID 0000.0001) // =======================================================
(PID.TID 0000.0001) // End MONITOR SEAICE statistics
(PID.TID 0000.0001) // =======================================================
(PID.TID 0000.0001) // =======================================================
(PID.TID 0000.0001) // Begin MONITOR dynamic field statistics
(PID.TID 0000.0001) // =======================================================
(PID.TID 0000.0001) %MON time_tsnumber                =                174650
(PID.TID 0000.0001) %MON time_secondsf                =   7.8592500000000E+07
(PID.TID 0000.0001) %MON dynstat_eta_max              =   4.1586652197126E+00
(PID.TID 0000.0001) %MON dynstat_eta_min              =  -1.1952689584136E+01
(PID.TID 0000.0001) %MON dynstat_eta_mean             =   6.2572482552634E-02
(PID.TID 0000.0001) %MON dynstat_eta_sd               =   8.1896445776213E-01
(PID.TID 0000.0001) %MON dynstat_eta_del2             =   2.0698080143912E-03
(PID.TID 0000.0001) %MON dynstat_uvel_max             =   1.9549034816775E+00
(PID.TID 0000.0001) %MON dynstat_uvel_min             =  -1.5625171411441E+00
(PID.TID 0000.0001) %MON dynstat_uvel_mean            =   8.0864415700608E-04
(PID.TID 0000.0001) %MON dynstat_uvel_sd              =   3.0512706794596E-02
(PID.TID 0000.0001) %MON dynstat_uvel_del2            =   2.4265098369006E-05
(PID.TID 0000.0001) %MON dynstat_vvel_max             =   1.9597276791176E+00
(PID.TID 0000.0001) %MON dynstat_vvel_min             =  -1.9079032757702E+00
(PID.TID 0000.0001) %MON dynstat_vvel_mean            =  -6.6877155529632E-04
(PID.TID 0000.0001) %MON dynstat_vvel_sd              =   2.9863470946880E-02
(PID.TID 0000.0001) %MON dynstat_vvel_del2            =   2.3916487547977E-05
(PID.TID 0000.0001) %MON dynstat_wvel_max             =   5.8311677858460E-03
(PID.TID 0000.0001) %MON dynstat_wvel_min             =  -7.0618500180534E-03
(PID.TID 0000.0001) %MON dynstat_wvel_mean            =  -1.8501889895036E-07
(PID.TID 0000.0001) %MON dynstat_wvel_sd              =   7.4546535407968E-05
(PID.TID 0000.0001) %MON dynstat_wvel_del2            =   1.3992696362353E-07
(PID.TID 0000.0001) %MON dynstat_theta_max            =   3.2396048583883E+01
(PID.TID 0000.0001) %MON dynstat_theta_min            =  -2.0129457997755E+00
(PID.TID 0000.0001) %MON dynstat_theta_mean           =   3.5922774067729E+00
(PID.TID 0000.0001) %MON dynstat_theta_sd             =   4.4423765757031E+00
(PID.TID 0000.0001) %MON dynstat_theta_del2           =   1.1800535107119E-04
(PID.TID 0000.0001) %MON dynstat_salt_max             =   4.0655995865055E+01
(PID.TID 0000.0001) %MON dynstat_salt_min             =   1.6275175232036E+01
(PID.TID 0000.0001) %MON dynstat_salt_mean            =   3.4724863969957E+01
(PID.TID 0000.0001) %MON dynstat_salt_sd              =   3.7951847312903E-01
(PID.TID 0000.0001) %MON dynstat_salt_del2            =   7.9677377063942E-05
(PID.TID 0000.0001) %MON dynstat_sst_max              =   3.2396048583883E+01
(PID.TID 0000.0001) %MON dynstat_sst_min              =  -2.0129457997755E+00
(PID.TID 0000.0001) %MON dynstat_sst_mean             =   1.8179430806199E+01
(PID.TID 0000.0001) %MON dynstat_sst_sd               =   1.0142667155905E+01
(PID.TID 0000.0001) %MON dynstat_sst_del2             =   1.1589639773050E-03
(PID.TID 0000.0001) %MON dynstat_sss_max              =   3.9483462498812E+01
(PID.TID 0000.0001) %MON dynstat_sss_min              =   1.6275175232036E+01
(PID.TID 0000.0001) %MON dynstat_sss_mean             =   3.4654497071216E+01
(PID.TID 0000.0001) %MON dynstat_sss_sd               =   1.2798067941786E+00
(PID.TID 0000.0001) %MON dynstat_sss_del2             =   1.4940310859492E-03
(PID.TID 0000.0001) %MON forcing_qnet_max             =   4.1547562611870E+03
(PID.TID 0000.0001) %MON forcing_qnet_min             =  -4.2311005859375E+03
(PID.TID 0000.0001) %MON forcing_qnet_mean            =   7.9067656586894E+00
(PID.TID 0000.0001) %MON forcing_qnet_sd              =   2.5944309922260E+02
(PID.TID 0000.0001) %MON forcing_qnet_del2            =   1.0716665270165E+00
(PID.TID 0000.0001) %MON forcing_qsw_max              =   0.0000000000000E+00
(PID.TID 0000.0001) %MON forcing_qsw_min              =  -1.1182257910106E+02
(PID.TID 0000.0001) %MON forcing_qsw_mean             =  -1.4971317173287E+01
(PID.TID 0000.0001) %MON forcing_qsw_sd               =   2.8250907339652E+01
(PID.TID 0000.0001) %MON forcing_qsw_del2             =   2.0313243587299E-02
(PID.TID 0000.0001) %MON forcing_empmr_max            =   6.1162415891886E-02
(PID.TID 0000.0001) %MON forcing_empmr_min            =  -5.0317112356424E-02
(PID.TID 0000.0001) %MON forcing_empmr_mean           =   1.8792365078055E-05
(PID.TID 0000.0001) %MON forcing_empmr_sd             =   5.1832285304305E-04
(PID.TID 0000.0001) %MON forcing_empmr_del2           =   6.1292740695247E-06
(PID.TID 0000.0001) %MON forcing_fu_max               =   1.3466504191998E+00
(PID.TID 0000.0001) %MON forcing_fu_min               =  -1.0797164284091E+00
(PID.TID 0000.0001) %MON forcing_fu_mean              =   8.4939479867848E-03
(PID.TID 0000.0001) %MON forcing_fu_sd                =   1.1345534938398E-01
(PID.TID 0000.0001) %MON forcing_fu_del2              =   1.5709437672649E-04
(PID.TID 0000.0001) %MON forcing_fv_max               =   9.7950318455696E-01
(PID.TID 0000.0001) %MON forcing_fv_min               =  -1.8489695316892E+00
(PID.TID 0000.0001) %MON forcing_fv_mean              =  -1.6091498223208E-03
(PID.TID 0000.0001) %MON forcing_fv_sd                =   1.1051271320311E-01
(PID.TID 0000.0001) %MON forcing_fv_del2              =   1.6281286219307E-04
(PID.TID 0000.0001) %MON trAdv_CFL_u_max              =   1.9033428762920E-02
(PID.TID 0000.0001) %MON trAdv_CFL_v_max              =   1.8428981715231E-02
(PID.TID 0000.0001) %MON trAdv_CFL_w_max              =   9.3051709306137E-02
(PID.TID 0000.0001) %MON advcfl_uvel_max              =   1.8740528029435E-02
(PID.TID 0000.0001) %MON advcfl_vvel_max              =   1.8403433254776E-02
(PID.TID 0000.0001) %MON advcfl_wvel_max              =   1.4167657885758E-01
(PID.TID 0000.0001) %MON advcfl_W_hf_max              =   9.4984534128520E-02
(PID.TID 0000.0001) %MON pe_b_mean                    =   1.8749716272417E-03
(PID.TID 0000.0001) %MON ke_max                       =   1.9773091320632E+00
(PID.TID 0000.0001) %MON ke_mean                      =   8.7949212823744E-04
(PID.TID 0000.0001) %MON ke_vol                       =   1.3350064351420E+18
(PID.TID 0000.0001) %MON vort_r_min                   =  -8.1136037762789E-05
(PID.TID 0000.0001) %MON vort_r_max                   =   5.8896189889823E-05
(PID.TID 0000.0001) %MON vort_a_mean                  =  -1.9725079392913E-05
(PID.TID 0000.0001) %MON vort_a_sd                    =   7.4538558227352E-05
(PID.TID 0000.0001) %MON vort_p_mean                  =  -2.1669084600700E-05
(PID.TID 0000.0001) %MON vort_p_sd                    =   9.3607962597806E-05
(PID.TID 0000.0001) %MON surfExpan_theta_mean         =   1.7468960957470E-05
(PID.TID 0000.0001) %MON surfExpan_salt_mean          =  -2.6073487563042E-06
(PID.TID 0000.0001) // =======================================================
(PID.TID 0000.0001) // End MONITOR dynamic field statistics
(PID.TID 0000.0001) // =======================================================
(PID.TID 0000.0001) // =======================================================
(PID.TID 0000.0001) // Begin MONITOR SEAICE statistics
(PID.TID 0000.0001) // =======================================================
(PID.TID 0000.0001) %MON seaice_tsnumber              =                174650
(PID.TID 0000.0001) %MON seaice_time_sec              =   7.8592500000000E+07
(PID.TID 0000.0001) %MON seaice_uice_max              =   1.8643762747636E+00
(PID.TID 0000.0001) %MON seaice_uice_min              =  -1.5097232257958E+00
(PID.TID 0000.0001) %MON seaice_uice_mean             =  -1.3994046607427E-03
(PID.TID 0000.0001) %MON seaice_uice_sd               =   1.6884423566886E-01
(PID.TID 0000.0001) %MON seaice_uice_del2             =   3.6886738328849E-04
(PID.TID 0000.0001) %MON seaice_vice_max              =   2.0129355541631E+00
(PID.TID 0000.0001) %MON seaice_vice_min              =  -1.5008061340900E+00
(PID.TID 0000.0001) %MON seaice_vice_mean             =  -2.8540499923097E-02
(PID.TID 0000.0001) %MON seaice_vice_sd               =   1.7485145239002E-01
(PID.TID 0000.0001) %MON seaice_vice_del2             =   3.6735589518484E-04
(PID.TID 0000.0001) %MON seaice_area_max              =   1.0037323251924E+00
(PID.TID 0000.0001) %MON seaice_area_min              =   0.0000000000000E+00
(PID.TID 0000.0001) %MON seaice_area_mean             =   5.7235061280240E-02
(PID.TID 0000.0001) %MON seaice_area_sd               =   2.2194374073322E-01
(PID.TID 0000.0001) %MON seaice_area_del2             =   3.4243815703232E-04
(PID.TID 0000.0001) %MON seaice_heff_max              =   9.9499274698748E+00
(PID.TID 0000.0001) %MON seaice_heff_min              =   0.0000000000000E+00
(PID.TID 0000.0001) %MON seaice_heff_mean             =   1.5018491324741E-01
(PID.TID 0000.0001) %MON seaice_heff_sd               =   7.2195639865493E-01
(PID.TID 0000.0001) %MON seaice_heff_del2             =   1.5650447321299E-03
(PID.TID 0000.0001) %MON seaice_hsnow_max             =   3.2864778608343E+00
(PID.TID 0000.0001) %MON seaice_hsnow_min             =   0.0000000000000E+00
(PID.TID 0000.0001) %MON seaice_hsnow_mean            =   1.2761725308486E-02
(PID.TID 0000.0001) %MON seaice_hsnow_sd              =   6.9682314310582E-02
(PID.TID 0000.0001) %MON seaice_hsnow_del2            =   4.4068210125017E-04
(PID.TID 0000.0001) // =======================================================
(PID.TID 0000.0001) // End MONITOR SEAICE statistics
(PID.TID 0000.0001) // =======================================================
(PID.TID 0000.0001) // =======================================================
(PID.TID 0000.0001) // Begin MONITOR dynamic field statistics
(PID.TID 0000.0001) // =======================================================
(PID.TID 0000.0001) %MON time_tsnumber                =                174651
(PID.TID 0000.0001) %MON time_secondsf                =   7.8592950000000E+07
(PID.TID 0000.0001) %MON dynstat_eta_max              =   4.0747802663174E+00
(PID.TID 0000.0001) %MON dynstat_eta_min              =  -1.1991804979344E+01
(PID.TID 0000.0001) %MON dynstat_eta_mean             =   6.2527366176840E-02
(PID.TID 0000.0001) %MON dynstat_eta_sd               =   8.1947855151993E-01
(PID.TID 0000.0001) %MON dynstat_eta_del2             =   2.0661128619150E-03
(PID.TID 0000.0001) %MON dynstat_uvel_max             =   1.9488448198434E+00
(PID.TID 0000.0001) %MON dynstat_uvel_min             =  -1.5687617044092E+00
(PID.TID 0000.0001) %MON dynstat_uvel_mean            =   8.3036989569257E-04
(PID.TID 0000.0001) %MON dynstat_uvel_sd              =   3.0544737928984E-02
(PID.TID 0000.0001) %MON dynstat_uvel_del2            =   2.4383776404367E-05
(PID.TID 0000.0001) %MON dynstat_vvel_max             =   1.8972500006467E+00
(PID.TID 0000.0001) %MON dynstat_vvel_min             =  -1.9070050238978E+00
(PID.TID 0000.0001) %MON dynstat_vvel_mean            =  -6.1481118690369E-04
(PID.TID 0000.0001) %MON dynstat_vvel_sd              =   2.9909890480693E-02
(PID.TID 0000.0001) %MON dynstat_vvel_del2            =   2.4059057104587E-05
(PID.TID 0000.0001) %MON dynstat_wvel_max             =   5.8919396009417E-03
(PID.TID 0000.0001) %MON dynstat_wvel_min             =  -7.1566463325792E-03
(PID.TID 0000.0001) %MON dynstat_wvel_mean            =  -1.6586883454695E-07
(PID.TID 0000.0001) %MON dynstat_wvel_sd              =   7.4931075043756E-05
(PID.TID 0000.0001) %MON dynstat_wvel_del2            =   1.4121207397644E-07
(PID.TID 0000.0001) %MON dynstat_theta_max            =   3.2399508605443E+01
(PID.TID 0000.0001) %MON dynstat_theta_min            =  -2.0132852849077E+00
(PID.TID 0000.0001) %MON dynstat_theta_mean           =   3.5922751204161E+00
(PID.TID 0000.0001) %MON dynstat_theta_sd             =   4.4423713486294E+00
(PID.TID 0000.0001) %MON dynstat_theta_del2           =   1.1801200192638E-04
(PID.TID 0000.0001) %MON dynstat_salt_max             =   4.0655995865035E+01
(PID.TID 0000.0001) %MON dynstat_salt_min             =   1.6271845537804E+01
(PID.TID 0000.0001) %MON dynstat_salt_mean            =   3.4724863434657E+01
(PID.TID 0000.0001) %MON dynstat_salt_sd              =   3.7952043267716E-01
(PID.TID 0000.0001) %MON dynstat_salt_del2            =   7.9515046856001E-05
(PID.TID 0000.0001) %MON dynstat_sst_max              =   3.2399508605443E+01
(PID.TID 0000.0001) %MON dynstat_sst_min              =  -2.0132852849077E+00
(PID.TID 0000.0001) %MON dynstat_sst_mean             =   1.8179254878225E+01
(PID.TID 0000.0001) %MON dynstat_sst_sd               =   1.0142910734724E+01
(PID.TID 0000.0001) %MON dynstat_sst_del2             =   1.1585822293974E-03
(PID.TID 0000.0001) %MON dynstat_sss_max              =   3.9483409690553E+01
(PID.TID 0000.0001) %MON dynstat_sss_min              =   1.6271845537804E+01
(PID.TID 0000.0001) %MON dynstat_sss_mean             =   3.4654384780195E+01
(PID.TID 0000.0001) %MON dynstat_sss_sd               =   1.2799680923610E+00
(PID.TID 0000.0001) %MON dynstat_sss_del2             =   1.4925959126905E-03
(PID.TID 0000.0001) %MON forcing_qnet_max             =   4.0961985527826E+03
(PID.TID 0000.0001) %MON forcing_qnet_min             =  -1.5335097656250E+04
(PID.TID 0000.0001) %MON forcing_qnet_mean            =   8.8479140463692E+00
(PID.TID 0000.0001) %MON forcing_qnet_sd              =   2.7289184253118E+02
(PID.TID 0000.0001) %MON forcing_qnet_del2            =   1.5018084489734E+00
(PID.TID 0000.0001) %MON forcing_qsw_max              =   0.0000000000000E+00
(PID.TID 0000.0001) %MON forcing_qsw_min              =  -1.1199266311662E+02
(PID.TID 0000.0001) %MON forcing_qsw_mean             =  -1.4904260759506E+01
(PID.TID 0000.0001) %MON forcing_qsw_sd               =   2.8098356584825E+01
(PID.TID 0000.0001) %MON forcing_qsw_del2             =   2.0210113623953E-02
(PID.TID 0000.0001) %MON forcing_empmr_max            =   3.2742854207754E-02
(PID.TID 0000.0001) %MON forcing_empmr_min            =  -4.8619389533997E-02
(PID.TID 0000.0001) %MON forcing_empmr_mean           =   1.8275354821398E-05
(PID.TID 0000.0001) %MON forcing_empmr_sd             =   4.9668572775642E-04
(PID.TID 0000.0001) %MON forcing_empmr_del2           =   5.5765047109930E-06
(PID.TID 0000.0001) %MON forcing_fu_max               =   1.2936720788594E+00
(PID.TID 0000.0001) %MON forcing_fu_min               =  -1.0286761554739E+00
(PID.TID 0000.0001) %MON forcing_fu_mean              =   8.4822591390845E-03
(PID.TID 0000.0001) %MON forcing_fu_sd                =   1.1354301278356E-01
(PID.TID 0000.0001) %MON forcing_fu_del2              =   1.5672553223184E-04
(PID.TID 0000.0001) %MON forcing_fv_max               =   9.7879558801651E-01
(PID.TID 0000.0001) %MON forcing_fv_min               =  -1.8028114252877E+00
(PID.TID 0000.0001) %MON forcing_fv_mean              =  -1.5807292683125E-03
(PID.TID 0000.0001) %MON forcing_fv_sd                =   1.1051869584025E-01
(PID.TID 0000.0001) %MON forcing_fv_del2              =   1.6404640523052E-04
(PID.TID 0000.0001) %MON trAdv_CFL_u_max              =   1.9109495416483E-02
(PID.TID 0000.0001) %MON trAdv_CFL_v_max              =   1.7642776205741E-02
(PID.TID 0000.0001) %MON trAdv_CFL_w_max              =   9.3103347724403E-02
(PID.TID 0000.0001) %MON advcfl_uvel_max              =   1.8815424112057E-02
(PID.TID 0000.0001) %MON advcfl_vvel_max              =   1.7618317677474E-02
(PID.TID 0000.0001) %MON advcfl_wvel_max              =   1.3778869243292E-01
(PID.TID 0000.0001) %MON advcfl_W_hf_max              =   9.5037245154880E-02
(PID.TID 0000.0001) %MON pe_b_mean                    =   1.8715591040874E-03
(PID.TID 0000.0001) %MON ke_max                       =   1.9732139088725E+00
(PID.TID 0000.0001) %MON ke_mean                      =   8.8175685611446E-04
(PID.TID 0000.0001) %MON ke_vol                       =   1.3350064351420E+18
(PID.TID 0000.0001) %MON vort_r_min                   =  -8.1365545939113E-05
(PID.TID 0000.0001) %MON vort_r_max                   =   5.9389474404288E-05
(PID.TID 0000.0001) %MON vort_a_mean                  =  -1.9725078430146E-05
(PID.TID 0000.0001) %MON vort_a_sd                    =   7.4538569510906E-05
(PID.TID 0000.0001) %MON vort_p_mean                  =  -2.1669083543047E-05
(PID.TID 0000.0001) %MON vort_p_sd                    =   9.3607910416378E-05
(PID.TID 0000.0001) %MON surfExpan_theta_mean         =   1.8214420554710E-05
(PID.TID 0000.0001) %MON surfExpan_salt_mean          =  -1.9231495148534E-06
(PID.TID 0000.0001) // =======================================================
(PID.TID 0000.0001) // End MONITOR dynamic field statistics
(PID.TID 0000.0001) // =======================================================
(PID.TID 0000.0001) // =======================================================
(PID.TID 0000.0001) // Begin MONITOR SEAICE statistics
(PID.TID 0000.0001) // =======================================================
(PID.TID 0000.0001) %MON seaice_tsnumber              =                174651
(PID.TID 0000.0001) %MON seaice_time_sec              =   7.8592950000000E+07
(PID.TID 0000.0001) %MON seaice_uice_max              =   1.8680705665104E+00
(PID.TID 0000.0001) %MON seaice_uice_min              =  -1.5625171411441E+00
(PID.TID 0000.0001) %MON seaice_uice_mean             =  -1.3324418039015E-03
(PID.TID 0000.0001) %MON seaice_uice_sd               =   1.6882225826059E-01
(PID.TID 0000.0001) %MON seaice_uice_del2             =   3.6912164517925E-04
(PID.TID 0000.0001) %MON seaice_vice_max              =   1.9597276791176E+00
(PID.TID 0000.0001) %MON seaice_vice_min              =  -1.5121596911809E+00
(PID.TID 0000.0001) %MON seaice_vice_mean             =  -2.8534764416628E-02
(PID.TID 0000.0001) %MON seaice_vice_sd               =   1.7477846193219E-01
(PID.TID 0000.0001) %MON seaice_vice_del2             =   3.6751785070540E-04
(PID.TID 0000.0001) %MON seaice_area_max              =   1.0036616470346E+00
(PID.TID 0000.0001) %MON seaice_area_min              =   0.0000000000000E+00
(PID.TID 0000.0001) %MON seaice_area_mean             =   5.7235666350404E-02
(PID.TID 0000.0001) %MON seaice_area_sd               =   2.2193627118460E-01
(PID.TID 0000.0001) %MON seaice_area_del2             =   3.4171504474263E-04
(PID.TID 0000.0001) %MON seaice_heff_max              =   9.9499051776262E+00
(PID.TID 0000.0001) %MON seaice_heff_min              =   0.0000000000000E+00
(PID.TID 0000.0001) %MON seaice_heff_mean             =   1.5018288876007E-01
(PID.TID 0000.0001) %MON seaice_heff_sd               =   7.2194946754810E-01
(PID.TID 0000.0001) %MON seaice_heff_del2             =   1.5620130153765E-03
(PID.TID 0000.0001) %MON seaice_hsnow_max             =   3.2864706577754E+00
(PID.TID 0000.0001) %MON seaice_hsnow_min             =   0.0000000000000E+00
(PID.TID 0000.0001) %MON seaice_hsnow_mean            =   1.2761321620668E-02
(PID.TID 0000.0001) %MON seaice_hsnow_sd              =   6.9666625585869E-02
(PID.TID 0000.0001) %MON seaice_hsnow_del2            =   4.3971265718312E-04
(PID.TID 0000.0001) // =======================================================
(PID.TID 0000.0001) // End MONITOR SEAICE statistics
(PID.TID 0000.0001) // =======================================================
(PID.TID 0000.0001) // =======================================================
(PID.TID 0000.0001) // Begin MONITOR dynamic field statistics
(PID.TID 0000.0001) // =======================================================
(PID.TID 0000.0001) %MON time_tsnumber                =                174652
(PID.TID 0000.0001) %MON time_secondsf                =   7.8593400000000E+07
(PID.TID 0000.0001) %MON dynstat_eta_max              =   3.9491176728263E+00
(PID.TID 0000.0001) %MON dynstat_eta_min              =  -1.2218595142078E+01
(PID.TID 0000.0001) %MON dynstat_eta_mean             =   6.2492591807285E-02
(PID.TID 0000.0001) %MON dynstat_eta_sd               =   8.2007457984648E-01
(PID.TID 0000.0001) %MON dynstat_eta_del2             =   2.0625477684910E-03
(PID.TID 0000.0001) %MON dynstat_uvel_max             =   1.9427488405708E+00
(PID.TID 0000.0001) %MON dynstat_uvel_min             =  -1.5306077215703E+00
(PID.TID 0000.0001) %MON dynstat_uvel_mean            =   8.5861059067572E-04
(PID.TID 0000.0001) %MON dynstat_uvel_sd              =   3.0576554684541E-02
(PID.TID 0000.0001) %MON dynstat_uvel_del2            =   2.4493515853056E-05
(PID.TID 0000.0001) %MON dynstat_vvel_max             =   1.8264939691763E+00
(PID.TID 0000.0001) %MON dynstat_vvel_min             =  -1.9034740200702E+00
(PID.TID 0000.0001) %MON dynstat_vvel_mean            =  -5.5726693093614E-04
(PID.TID 0000.0001) %MON dynstat_vvel_sd              =   2.9952128319148E-02
(PID.TID 0000.0001) %MON dynstat_vvel_del2            =   2.4194598310034E-05
(PID.TID 0000.0001) %MON dynstat_wvel_max             =   5.9556972465560E-03
(PID.TID 0000.0001) %MON dynstat_wvel_min             =  -7.2484218594383E-03
(PID.TID 0000.0001) %MON dynstat_wvel_mean            =  -1.4621353654944E-07
(PID.TID 0000.0001) %MON dynstat_wvel_sd              =   7.5304074790580E-05
(PID.TID 0000.0001) %MON dynstat_wvel_del2            =   1.4247868002064E-07
(PID.TID 0000.0001) %MON dynstat_theta_max            =   3.2402482722143E+01
(PID.TID 0000.0001) %MON dynstat_theta_min            =  -2.0136345042876E+00
(PID.TID 0000.0001) %MON dynstat_theta_mean           =   3.5922726961288E+00
(PID.TID 0000.0001) %MON dynstat_theta_sd             =   4.4423657424324E+00
(PID.TID 0000.0001) %MON dynstat_theta_del2           =   1.1801979200930E-04
(PID.TID 0000.0001) %MON dynstat_salt_max             =   4.0655995865014E+01
(PID.TID 0000.0001) %MON dynstat_salt_min             =   1.6268347066353E+01
(PID.TID 0000.0001) %MON dynstat_salt_mean            =   3.4724862901798E+01
(PID.TID 0000.0001) %MON dynstat_salt_sd              =   3.7952244071292E-01
(PID.TID 0000.0001) %MON dynstat_salt_del2            =   7.9353880947150E-05
(PID.TID 0000.0001) %MON dynstat_sst_max              =   3.2402482722143E+01
(PID.TID 0000.0001) %MON dynstat_sst_min              =  -2.0136345042876E+00
(PID.TID 0000.0001) %MON dynstat_sst_mean             =   1.8179074841912E+01
(PID.TID 0000.0001) %MON dynstat_sst_sd               =   1.0143154534438E+01
(PID.TID 0000.0001) %MON dynstat_sst_del2             =   1.1581128811528E-03
(PID.TID 0000.0001) %MON dynstat_sss_max              =   3.9483317194162E+01
(PID.TID 0000.0001) %MON dynstat_sss_min              =   1.6268347066353E+01
(PID.TID 0000.0001) %MON dynstat_sss_mean             =   3.4654272615963E+01
(PID.TID 0000.0001) %MON dynstat_sss_sd               =   1.2801286953280E+00
(PID.TID 0000.0001) %MON dynstat_sss_del2             =   1.4911985173645E-03
(PID.TID 0000.0001) %MON forcing_qnet_max             =   4.0134708403512E+03
(PID.TID 0000.0001) %MON forcing_qnet_min             =  -3.1259780273438E+03
(PID.TID 0000.0001) %MON forcing_qnet_mean            =   1.0801617874241E+01
(PID.TID 0000.0001) %MON forcing_qnet_sd              =   2.5684595503933E+02
(PID.TID 0000.0001) %MON forcing_qnet_del2            =   1.0159609257445E+00
(PID.TID 0000.0001) %MON forcing_qsw_max              =   0.0000000000000E+00
(PID.TID 0000.0001) %MON forcing_qsw_min              =  -1.1207789760136E+02
(PID.TID 0000.0001) %MON forcing_qsw_mean             =  -1.4831170870660E+01
(PID.TID 0000.0001) %MON forcing_qsw_sd               =   2.7930041910762E+01
(PID.TID 0000.0001) %MON forcing_qsw_del2             =   2.0105208248780E-02
(PID.TID 0000.0001) %MON forcing_empmr_max            =   3.2757606357336E-02
(PID.TID 0000.0001) %MON forcing_empmr_min            =  -5.0347980111837E-02
(PID.TID 0000.0001) %MON forcing_empmr_mean           =   1.7728485209179E-05
(PID.TID 0000.0001) %MON forcing_empmr_sd             =   4.9727862564563E-04
(PID.TID 0000.0001) %MON forcing_empmr_del2           =   5.5835695856450E-06
(PID.TID 0000.0001) %MON forcing_fu_max               =   1.2393058350998E+00
(PID.TID 0000.0001) %MON forcing_fu_min               =  -9.8614063622739E-01
(PID.TID 0000.0001) %MON forcing_fu_mean              =   8.4688157474722E-03
(PID.TID 0000.0001) %MON forcing_fu_sd                =   1.1361038128219E-01
(PID.TID 0000.0001) %MON forcing_fu_del2              =   1.5608293750673E-04
(PID.TID 0000.0001) %MON forcing_fv_max               =   9.6751019358635E-01
(PID.TID 0000.0001) %MON forcing_fv_min               =  -1.7640683073208E+00
(PID.TID 0000.0001) %MON forcing_fv_mean              =  -1.5626816608467E-03
(PID.TID 0000.0001) %MON forcing_fv_sd                =   1.1048840947087E-01
(PID.TID 0000.0001) %MON forcing_fv_del2              =   1.6485657231054E-04
(PID.TID 0000.0001) %MON trAdv_CFL_u_max              =   1.8644731801887E-02
(PID.TID 0000.0001) %MON trAdv_CFL_v_max              =   1.7430829726162E-02
(PID.TID 0000.0001) %MON trAdv_CFL_w_max              =   9.4424914625877E-02
(PID.TID 0000.0001) %MON advcfl_uvel_max              =   1.8357812629917E-02
(PID.TID 0000.0001) %MON advcfl_vvel_max              =   1.7406665023475E-02
(PID.TID 0000.0001) %MON advcfl_wvel_max              =   1.3025904329220E-01
(PID.TID 0000.0001) %MON advcfl_W_hf_max              =   9.4424914625877E-02
(PID.TID 0000.0001) %MON pe_b_mean                    =   1.8685581416957E-03
(PID.TID 0000.0001) %MON ke_max                       =   1.9670066982708E+00
(PID.TID 0000.0001) %MON ke_mean                      =   8.8390422530640E-04
(PID.TID 0000.0001) %MON ke_vol                       =   1.3350064351420E+18
(PID.TID 0000.0001) %MON vort_r_min                   =  -7.9465260917397E-05
(PID.TID 0000.0001) %MON vort_r_max                   =   5.9677561817419E-05
(PID.TID 0000.0001) %MON vort_a_mean                  =  -1.9725077388406E-05
(PID.TID 0000.0001) %MON vort_a_sd                    =   7.4538580680203E-05
(PID.TID 0000.0001) %MON vort_p_mean                  =  -2.1669082398639E-05
(PID.TID 0000.0001) %MON vort_p_sd                    =   9.3607868034509E-05
(PID.TID 0000.0001) %MON surfExpan_theta_mean         =   1.8937644291849E-05
(PID.TID 0000.0001) %MON surfExpan_salt_mean          =  -1.2022293478361E-06
(PID.TID 0000.0001) // =======================================================
(PID.TID 0000.0001) // End MONITOR dynamic field statistics
(PID.TID 0000.0001) // =======================================================
(PID.TID 0000.0001) // =======================================================
(PID.TID 0000.0001) // Begin MONITOR SEAICE statistics
(PID.TID 0000.0001) // =======================================================
(PID.TID 0000.0001) %MON seaice_tsnumber              =                174652
(PID.TID 0000.0001) %MON seaice_time_sec              =   7.8593400000000E+07
(PID.TID 0000.0001) %MON seaice_uice_max              =   1.8711343839330E+00
(PID.TID 0000.0001) %MON seaice_uice_min              =  -1.5687617044092E+00
(PID.TID 0000.0001) %MON seaice_uice_mean             =  -1.2565769401419E-03
(PID.TID 0000.0001) %MON seaice_uice_sd               =   1.6880695948440E-01
(PID.TID 0000.0001) %MON seaice_uice_del2             =   3.6921620067227E-04
(PID.TID 0000.0001) %MON seaice_vice_max              =   1.8972500006467E+00
(PID.TID 0000.0001) %MON seaice_vice_min              =  -1.5235206176348E+00
(PID.TID 0000.0001) %MON seaice_vice_mean             =  -2.8508279677598E-02
(PID.TID 0000.0001) %MON seaice_vice_sd               =   1.7469706752342E-01
(PID.TID 0000.0001) %MON seaice_vice_del2             =   3.6791299163804E-04
(PID.TID 0000.0001) %MON seaice_area_max              =   1.0035564700151E+00
(PID.TID 0000.0001) %MON seaice_area_min              =   0.0000000000000E+00
(PID.TID 0000.0001) %MON seaice_area_mean             =   5.7236315344832E-02
(PID.TID 0000.0001) %MON seaice_area_sd               =   2.2192901783039E-01
(PID.TID 0000.0001) %MON seaice_area_del2             =   3.4101615414656E-04
(PID.TID 0000.0001) %MON seaice_heff_max              =   9.9498751568248E+00
(PID.TID 0000.0001) %MON seaice_heff_min              =   0.0000000000000E+00
(PID.TID 0000.0001) %MON seaice_heff_mean             =   1.5018078999433E-01
(PID.TID 0000.0001) %MON seaice_heff_sd               =   7.2194249410238E-01
(PID.TID 0000.0001) %MON seaice_heff_del2             =   1.5590952877163E-03
(PID.TID 0000.0001) %MON seaice_hsnow_max             =   3.2864606842916E+00
(PID.TID 0000.0001) %MON seaice_hsnow_min             =   0.0000000000000E+00
(PID.TID 0000.0001) %MON seaice_hsnow_mean            =   1.2760911222174E-02
(PID.TID 0000.0001) %MON seaice_hsnow_sd              =   6.9651450994442E-02
(PID.TID 0000.0001) %MON seaice_hsnow_del2            =   4.3878675120232E-04
(PID.TID 0000.0001) // =======================================================
(PID.TID 0000.0001) // End MONITOR SEAICE statistics
(PID.TID 0000.0001) // =======================================================
(PID.TID 0000.0001) // =======================================================
(PID.TID 0000.0001) // Begin MONITOR dynamic field statistics
(PID.TID 0000.0001) // =======================================================
(PID.TID 0000.0001) %MON time_tsnumber                =                174653
(PID.TID 0000.0001) %MON time_secondsf                =   7.8593850000000E+07
(PID.TID 0000.0001) %MON dynstat_eta_max              =   3.7845418340106E+00
(PID.TID 0000.0001) %MON dynstat_eta_min              =  -1.2391265227480E+01
(PID.TID 0000.0001) %MON dynstat_eta_mean             =   6.2468408016719E-02
(PID.TID 0000.0001) %MON dynstat_eta_sd               =   8.2075097015772E-01
(PID.TID 0000.0001) %MON dynstat_eta_del2             =   2.0592199700074E-03
(PID.TID 0000.0001) %MON dynstat_uvel_max             =   1.9367444395406E+00
(PID.TID 0000.0001) %MON dynstat_uvel_min             =  -1.4910866609904E+00
(PID.TID 0000.0001) %MON dynstat_uvel_mean            =   8.9294555391354E-04
(PID.TID 0000.0001) %MON dynstat_uvel_sd              =   3.0607708084522E-02
(PID.TID 0000.0001) %MON dynstat_uvel_del2            =   2.4593696398145E-05
(PID.TID 0000.0001) %MON dynstat_vvel_max             =   1.7483035466793E+00
(PID.TID 0000.0001) %MON dynstat_vvel_min             =  -1.8977204878243E+00
(PID.TID 0000.0001) %MON dynstat_vvel_mean            =  -4.9645812365680E-04
(PID.TID 0000.0001) %MON dynstat_vvel_sd              =   2.9989759601240E-02
(PID.TID 0000.0001) %MON dynstat_vvel_del2            =   2.4320090750456E-05
(PID.TID 0000.0001) %MON dynstat_wvel_max             =   6.0224789496260E-03
(PID.TID 0000.0001) %MON dynstat_wvel_min             =  -7.3374965703521E-03
(PID.TID 0000.0001) %MON dynstat_wvel_mean            =  -1.2622955716430E-07
(PID.TID 0000.0001) %MON dynstat_wvel_sd              =   7.5663607618292E-05
(PID.TID 0000.0001) %MON dynstat_wvel_del2            =   1.4373313587571E-07
(PID.TID 0000.0001) %MON dynstat_theta_max            =   3.2404947692262E+01
(PID.TID 0000.0001) %MON dynstat_theta_min            =  -2.0139807287372E+00
(PID.TID 0000.0001) %MON dynstat_theta_mean           =   3.5922701574683E+00
(PID.TID 0000.0001) %MON dynstat_theta_sd             =   4.4423597784029E+00
(PID.TID 0000.0001) %MON dynstat_theta_del2           =   1.1802905617094E-04
(PID.TID 0000.0001) %MON dynstat_salt_max             =   4.0655995864993E+01
(PID.TID 0000.0001) %MON dynstat_salt_min             =   1.6264795115205E+01
(PID.TID 0000.0001) %MON dynstat_salt_mean            =   3.4724862377072E+01
(PID.TID 0000.0001) %MON dynstat_salt_sd              =   3.7952448704443E-01
(PID.TID 0000.0001) %MON dynstat_salt_del2            =   7.9193614911443E-05
(PID.TID 0000.0001) %MON dynstat_sst_max              =   3.2404947692262E+01
(PID.TID 0000.0001) %MON dynstat_sst_min              =  -2.0139807287372E+00
(PID.TID 0000.0001) %MON dynstat_sst_mean             =   1.8178874602231E+01
(PID.TID 0000.0001) %MON dynstat_sst_sd               =   1.0143372866346E+01
(PID.TID 0000.0001) %MON dynstat_sst_del2             =   1.1577085544151E-03
(PID.TID 0000.0001) %MON dynstat_sss_max              =   3.9483168512534E+01
(PID.TID 0000.0001) %MON dynstat_sss_min              =   1.6264795115205E+01
(PID.TID 0000.0001) %MON dynstat_sss_mean             =   3.4654159583345E+01
(PID.TID 0000.0001) %MON dynstat_sss_sd               =   1.2802872521597E+00
(PID.TID 0000.0001) %MON dynstat_sss_del2             =   1.4898271197339E-03
(PID.TID 0000.0001) %MON forcing_qnet_max             =   3.9050443215581E+03
(PID.TID 0000.0001) %MON forcing_qnet_min             =  -6.1670395507812E+03
(PID.TID 0000.0001) %MON forcing_qnet_mean            =   1.2081775249345E+01
(PID.TID 0000.0001) %MON forcing_qnet_sd              =   2.5789426395177E+02
(PID.TID 0000.0001) %MON forcing_qnet_del2            =   1.0745220755206E+00
(PID.TID 0000.0001) %MON forcing_qsw_max              =   0.0000000000000E+00
(PID.TID 0000.0001) %MON forcing_qsw_min              =  -1.1239603840389E+02
(PID.TID 0000.0001) %MON forcing_qsw_mean             =  -1.4722687335697E+01
(PID.TID 0000.0001) %MON forcing_qsw_sd               =   2.7496066796663E+01
(PID.TID 0000.0001) %MON forcing_qsw_del2             =   1.9708104914238E-02
(PID.TID 0000.0001) %MON forcing_empmr_max            =   3.2773699611425E-02
(PID.TID 0000.0001) %MON forcing_empmr_min            =  -4.9385409802198E-02
(PID.TID 0000.0001) %MON forcing_empmr_mean           =   1.7304846510112E-05
(PID.TID 0000.0001) %MON forcing_empmr_sd             =   4.9413324459101E-04
(PID.TID 0000.0001) %MON forcing_empmr_del2           =   5.5467890903351E-06
(PID.TID 0000.0001) %MON forcing_fu_max               =   1.1841673497547E+00
(PID.TID 0000.0001) %MON forcing_fu_min               =  -9.5171373365530E-01
(PID.TID 0000.0001) %MON forcing_fu_mean              =   8.4549857047307E-03
(PID.TID 0000.0001) %MON forcing_fu_sd                =   1.1368129734670E-01
(PID.TID 0000.0001) %MON forcing_fu_del2              =   1.5537719427309E-04
(PID.TID 0000.0001) %MON forcing_fv_max               =   1.0524722391886E+00
(PID.TID 0000.0001) %MON forcing_fv_min               =  -1.7306392977334E+00
(PID.TID 0000.0001) %MON forcing_fv_mean              =  -1.5374310707930E-03
(PID.TID 0000.0001) %MON forcing_fv_sd                =   1.1046862950995E-01
(PID.TID 0000.0001) %MON forcing_fv_del2              =   1.6530097906777E-04
(PID.TID 0000.0001) %MON trAdv_CFL_u_max              =   1.7680616531450E-02
(PID.TID 0000.0001) %MON trAdv_CFL_v_max              =   1.6846169481889E-02
(PID.TID 0000.0001) %MON trAdv_CFL_w_max              =   9.5826909524259E-02
(PID.TID 0000.0001) %MON advcfl_uvel_max              =   1.7408533891215E-02
(PID.TID 0000.0001) %MON advcfl_vvel_max              =   1.6843014453843E-02
(PID.TID 0000.0001) %MON advcfl_wvel_max              =   1.1948731359707E-01
(PID.TID 0000.0001) %MON advcfl_W_hf_max              =   9.5826909524259E-02
(PID.TID 0000.0001) %MON pe_b_mean                    =   1.8659825350392E-03
(PID.TID 0000.0001) %MON ke_max                       =   1.9596871025703E+00
(PID.TID 0000.0001) %MON ke_mean                      =   8.8590908248356E-04
(PID.TID 0000.0001) %MON ke_vol                       =   1.3350064351420E+18
(PID.TID 0000.0001) %MON vort_r_min                   =  -7.5595851043897E-05
(PID.TID 0000.0001) %MON vort_r_max                   =   5.9787794588589E-05
(PID.TID 0000.0001) %MON vort_a_mean                  =  -1.9725076287429E-05
(PID.TID 0000.0001) %MON vort_a_sd                    =   7.4538591856354E-05
(PID.TID 0000.0001) %MON vort_p_mean                  =  -2.1669081189155E-05
(PID.TID 0000.0001) %MON vort_p_sd                    =   9.3607835939251E-05
(PID.TID 0000.0001) %MON surfExpan_theta_mean         =   1.9625765715207E-05
(PID.TID 0000.0001) %MON surfExpan_salt_mean          =  -4.4674168994783E-07
(PID.TID 0000.0001) // =======================================================
(PID.TID 0000.0001) // End MONITOR dynamic field statistics
(PID.TID 0000.0001) // =======================================================
(PID.TID 0000.0001) // =======================================================
(PID.TID 0000.0001) // Begin MONITOR SEAICE statistics
(PID.TID 0000.0001) // =======================================================
(PID.TID 0000.0001) %MON seaice_tsnumber              =                174653
(PID.TID 0000.0001) %MON seaice_time_sec              =   7.8593850000000E+07
(PID.TID 0000.0001) %MON seaice_uice_max              =   1.8734507597947E+00
(PID.TID 0000.0001) %MON seaice_uice_min              =  -1.5306077215703E+00
(PID.TID 0000.0001) %MON seaice_uice_mean             =  -1.1694553846698E-03
(PID.TID 0000.0001) %MON seaice_uice_sd               =   1.6878783791277E-01
(PID.TID 0000.0001) %MON seaice_uice_del2             =   3.6912497638346E-04
(PID.TID 0000.0001) %MON seaice_vice_max              =   1.8264939691763E+00
(PID.TID 0000.0001) %MON seaice_vice_min              =  -1.5330849936113E+00
(PID.TID 0000.0001) %MON seaice_vice_mean             =  -2.8470102119197E-02
(PID.TID 0000.0001) %MON seaice_vice_sd               =   1.7460991090019E-01
(PID.TID 0000.0001) %MON seaice_vice_del2             =   3.6841706350339E-04
(PID.TID 0000.0001) %MON seaice_area_max              =   1.0038077209966E+00
(PID.TID 0000.0001) %MON seaice_area_min              =   0.0000000000000E+00
(PID.TID 0000.0001) %MON seaice_area_mean             =   5.7236925579764E-02
(PID.TID 0000.0001) %MON seaice_area_sd               =   2.2192172956165E-01
(PID.TID 0000.0001) %MON seaice_area_del2             =   3.4033181537663E-04
(PID.TID 0000.0001) %MON seaice_heff_max              =   9.9498776034715E+00
(PID.TID 0000.0001) %MON seaice_heff_min              =   0.0000000000000E+00
(PID.TID 0000.0001) %MON seaice_heff_mean             =   1.5017861217494E-01
(PID.TID 0000.0001) %MON seaice_heff_sd               =   7.2193548661638E-01
(PID.TID 0000.0001) %MON seaice_heff_del2             =   1.5562952529292E-03
(PID.TID 0000.0001) %MON seaice_hsnow_max             =   3.2864619325660E+00
(PID.TID 0000.0001) %MON seaice_hsnow_min             =   0.0000000000000E+00
(PID.TID 0000.0001) %MON seaice_hsnow_mean            =   1.2760490460208E-02
(PID.TID 0000.0001) %MON seaice_hsnow_sd              =   6.9636771693728E-02
(PID.TID 0000.0001) %MON seaice_hsnow_del2            =   4.3790504277045E-04
(PID.TID 0000.0001) // =======================================================
(PID.TID 0000.0001) // End MONITOR SEAICE statistics
(PID.TID 0000.0001) // =======================================================
(PID.TID 0000.0001) // =======================================================
(PID.TID 0000.0001) // Begin MONITOR dynamic field statistics
(PID.TID 0000.0001) // =======================================================
(PID.TID 0000.0001) %MON time_tsnumber                =                174654
(PID.TID 0000.0001) %MON time_secondsf                =   7.8594300000000E+07
(PID.TID 0000.0001) %MON dynstat_eta_max              =   3.5844059312106E+00
(PID.TID 0000.0001) %MON dynstat_eta_min              =  -1.2512939550923E+01
(PID.TID 0000.0001) %MON dynstat_eta_mean             =   6.2454951809015E-02
(PID.TID 0000.0001) %MON dynstat_eta_sd               =   8.2150176381986E-01
(PID.TID 0000.0001) %MON dynstat_eta_del2             =   2.0562257115940E-03
(PID.TID 0000.0001) %MON dynstat_uvel_max             =   1.9328662966564E+00
(PID.TID 0000.0001) %MON dynstat_uvel_min             =  -1.4990070236749E+00
(PID.TID 0000.0001) %MON dynstat_uvel_mean            =   9.3286150807352E-04
(PID.TID 0000.0001) %MON dynstat_uvel_sd              =   3.0638213610056E-02
(PID.TID 0000.0001) %MON dynstat_uvel_del2            =   2.4683374417072E-05
(PID.TID 0000.0001) %MON dynstat_vvel_max             =   1.6637249856681E+00
(PID.TID 0000.0001) %MON dynstat_vvel_min             =  -1.8901287011422E+00
(PID.TID 0000.0001) %MON dynstat_vvel_mean            =  -4.3274309711177E-04
(PID.TID 0000.0001) %MON dynstat_vvel_sd              =   3.0023805900921E-02
(PID.TID 0000.0001) %MON dynstat_vvel_del2            =   2.4434176765649E-05
(PID.TID 0000.0001) %MON dynstat_wvel_max             =   6.0922997924212E-03
(PID.TID 0000.0001) %MON dynstat_wvel_min             =  -7.4243751084573E-03
(PID.TID 0000.0001) %MON dynstat_wvel_mean            =  -1.0597577192957E-07
(PID.TID 0000.0001) %MON dynstat_wvel_sd              =   7.6008766550048E-05
(PID.TID 0000.0001) %MON dynstat_wvel_del2            =   1.4498013710343E-07
(PID.TID 0000.0001) %MON dynstat_theta_max            =   3.2407029205921E+01
(PID.TID 0000.0001) %MON dynstat_theta_min            =  -2.0143314857481E+00
(PID.TID 0000.0001) %MON dynstat_theta_mean           =   3.5922675227581E+00
(PID.TID 0000.0001) %MON dynstat_theta_sd             =   4.4423536230633E+00
(PID.TID 0000.0001) %MON dynstat_theta_del2           =   1.1803771940077E-04
(PID.TID 0000.0001) %MON dynstat_salt_max             =   4.0655995864970E+01
(PID.TID 0000.0001) %MON dynstat_salt_min             =   1.6261263308225E+01
(PID.TID 0000.0001) %MON dynstat_salt_mean            =   3.4724861856180E+01
(PID.TID 0000.0001) %MON dynstat_salt_sd              =   3.7952658821105E-01
(PID.TID 0000.0001) %MON dynstat_salt_del2            =   7.9033754324955E-05
(PID.TID 0000.0001) %MON dynstat_sst_max              =   3.2407029205921E+01
(PID.TID 0000.0001) %MON dynstat_sst_min              =  -2.0143314857481E+00
(PID.TID 0000.0001) %MON dynstat_sst_mean             =   1.8178689686241E+01
(PID.TID 0000.0001) %MON dynstat_sst_sd               =   1.0143602318321E+01
(PID.TID 0000.0001) %MON dynstat_sst_del2             =   1.1571498398201E-03
(PID.TID 0000.0001) %MON dynstat_sss_max              =   3.9482963998873E+01
(PID.TID 0000.0001) %MON dynstat_sss_min              =   1.6261263308225E+01
(PID.TID 0000.0001) %MON dynstat_sss_mean             =   3.4654047959749E+01
(PID.TID 0000.0001) %MON dynstat_sss_sd               =   1.2804468139038E+00
(PID.TID 0000.0001) %MON dynstat_sss_del2             =   1.4884564567234E-03
(PID.TID 0000.0001) %MON forcing_qnet_max             =   4.0435458348054E+03
(PID.TID 0000.0001) %MON forcing_qnet_min             =  -3.6043679199219E+03
(PID.TID 0000.0001) %MON forcing_qnet_mean            =   1.2883128230031E+01
(PID.TID 0000.0001) %MON forcing_qnet_sd              =   2.5350831943865E+02
(PID.TID 0000.0001) %MON forcing_qnet_del2            =   9.8214027684702E-01
(PID.TID 0000.0001) %MON forcing_qsw_max              =   0.0000000000000E+00
(PID.TID 0000.0001) %MON forcing_qsw_min              =  -1.1249706385953E+02
(PID.TID 0000.0001) %MON forcing_qsw_mean             =  -1.4730404201761E+01
(PID.TID 0000.0001) %MON forcing_qsw_sd               =   2.7369782776205E+01
(PID.TID 0000.0001) %MON forcing_qsw_del2             =   1.9702115341211E-02
(PID.TID 0000.0001) %MON forcing_empmr_max            =   3.2777186483145E-02
(PID.TID 0000.0001) %MON forcing_empmr_min            =  -4.8161573708057E-02
(PID.TID 0000.0001) %MON forcing_empmr_mean           =   1.7107792004067E-05
(PID.TID 0000.0001) %MON forcing_empmr_sd             =   4.9086532401644E-04
(PID.TID 0000.0001) %MON forcing_empmr_del2           =   5.5197189209674E-06
(PID.TID 0000.0001) %MON forcing_fu_max               =   1.1288464520462E+00
(PID.TID 0000.0001) %MON forcing_fu_min               =  -9.2378973850518E-01
(PID.TID 0000.0001) %MON forcing_fu_mean              =   8.4422533026226E-03
(PID.TID 0000.0001) %MON forcing_fu_sd                =   1.1376758329652E-01
(PID.TID 0000.0001) %MON forcing_fu_del2              =   1.5473517409747E-04
(PID.TID 0000.0001) %MON forcing_fv_max               =   1.2232656939701E+00
(PID.TID 0000.0001) %MON forcing_fv_min               =  -1.7008949610720E+00
(PID.TID 0000.0001) %MON forcing_fv_mean              =  -1.5205637967352E-03
(PID.TID 0000.0001) %MON forcing_fv_sd                =   1.1040836360921E-01
(PID.TID 0000.0001) %MON forcing_fv_del2              =   1.6533874129489E-04
(PID.TID 0000.0001) %MON trAdv_CFL_u_max              =   1.6272020961607E-02
(PID.TID 0000.0001) %MON trAdv_CFL_v_max              =   1.6778776772617E-02
(PID.TID 0000.0001) %MON trAdv_CFL_w_max              =   9.6878310502577E-02
(PID.TID 0000.0001) %MON advcfl_uvel_max              =   1.6021614850637E-02
(PID.TID 0000.0001) %MON advcfl_vvel_max              =   1.6775634366187E-02
(PID.TID 0000.0001) %MON advcfl_wvel_max              =   1.0589729234460E-01
(PID.TID 0000.0001) %MON advcfl_W_hf_max              =   9.6878310502577E-02
(PID.TID 0000.0001) %MON pe_b_mean                    =   1.8638325453827E-03
(PID.TID 0000.0001) %MON ke_max                       =   1.9521846548757E+00
(PID.TID 0000.0001) %MON ke_mean                      =   8.8780177281566E-04
(PID.TID 0000.0001) %MON ke_vol                       =   1.3350064351420E+18
(PID.TID 0000.0001) %MON vort_r_min                   =  -6.9972632772851E-05
(PID.TID 0000.0001) %MON vort_r_max                   =   5.9757493718807E-05
(PID.TID 0000.0001) %MON vort_a_mean                  =  -1.9725075146782E-05
(PID.TID 0000.0001) %MON vort_a_sd                    =   7.4538603159680E-05
(PID.TID 0000.0001) %MON vort_p_mean                  =  -2.1669079936091E-05
(PID.TID 0000.0001) %MON vort_p_sd                    =   9.3607813531824E-05
(PID.TID 0000.0001) %MON surfExpan_theta_mean         =   2.0278799564514E-05
(PID.TID 0000.0001) %MON surfExpan_salt_mean          =   3.3799669596792E-07
(PID.TID 0000.0001) // =======================================================
(PID.TID 0000.0001) // End MONITOR dynamic field statistics
(PID.TID 0000.0001) // =======================================================
(PID.TID 0000.0001) // =======================================================
(PID.TID 0000.0001) // Begin MONITOR SEAICE statistics
(PID.TID 0000.0001) // =======================================================
(PID.TID 0000.0001) %MON seaice_tsnumber              =                174654
(PID.TID 0000.0001) %MON seaice_time_sec              =   7.8594300000000E+07
(PID.TID 0000.0001) %MON seaice_uice_max              =   1.8750871217702E+00
(PID.TID 0000.0001) %MON seaice_uice_min              =  -1.4910866609904E+00
(PID.TID 0000.0001) %MON seaice_uice_mean             =  -1.0718857844482E-03
(PID.TID 0000.0001) %MON seaice_uice_sd               =   1.6875086517649E-01
(PID.TID 0000.0001) %MON seaice_uice_del2             =   3.6885247968750E-04
(PID.TID 0000.0001) %MON seaice_vice_max              =   1.7483035466793E+00
(PID.TID 0000.0001) %MON seaice_vice_min              =  -1.5416482466238E+00
(PID.TID 0000.0001) %MON seaice_vice_mean             =  -2.8415155708211E-02
(PID.TID 0000.0001) %MON seaice_vice_sd               =   1.7448735254429E-01
(PID.TID 0000.0001) %MON seaice_vice_del2             =   3.6886632019903E-04
(PID.TID 0000.0001) %MON seaice_area_max              =   1.0052600175041E+00
(PID.TID 0000.0001) %MON seaice_area_min              =   0.0000000000000E+00
(PID.TID 0000.0001) %MON seaice_area_mean             =   5.7237434928962E-02
(PID.TID 0000.0001) %MON seaice_area_sd               =   2.2191413317683E-01
(PID.TID 0000.0001) %MON seaice_area_del2             =   3.3966143688610E-04
(PID.TID 0000.0001) %MON seaice_heff_max              =   9.9498521346902E+00
(PID.TID 0000.0001) %MON seaice_heff_min              =   0.0000000000000E+00
(PID.TID 0000.0001) %MON seaice_heff_mean             =   1.5017637405896E-01
(PID.TID 0000.0001) %MON seaice_heff_sd               =   7.2192850217769E-01
(PID.TID 0000.0001) %MON seaice_heff_del2             =   1.5536069287513E-03
(PID.TID 0000.0001) %MON seaice_hsnow_max             =   3.2864543108530E+00
(PID.TID 0000.0001) %MON seaice_hsnow_min             =   0.0000000000000E+00
(PID.TID 0000.0001) %MON seaice_hsnow_mean            =   1.2760086513991E-02
(PID.TID 0000.0001) %MON seaice_hsnow_sd              =   6.9622723167778E-02
(PID.TID 0000.0001) %MON seaice_hsnow_del2            =   4.3706485783071E-04
(PID.TID 0000.0001) // =======================================================
(PID.TID 0000.0001) // End MONITOR SEAICE statistics
(PID.TID 0000.0001) // =======================================================
(PID.TID 0000.0001) // =======================================================
(PID.TID 0000.0001) // Begin MONITOR dynamic field statistics
(PID.TID 0000.0001) // =======================================================
(PID.TID 0000.0001) %MON time_tsnumber                =                174655
(PID.TID 0000.0001) %MON time_secondsf                =   7.8594750000000E+07
(PID.TID 0000.0001) %MON dynstat_eta_max              =   3.4196799751707E+00
(PID.TID 0000.0001) %MON dynstat_eta_min              =  -1.2586761636240E+01
(PID.TID 0000.0001) %MON dynstat_eta_mean             =   6.2451819687365E-02
(PID.TID 0000.0001) %MON dynstat_eta_sd               =   8.2231817246415E-01
(PID.TID 0000.0001) %MON dynstat_eta_del2             =   2.0536410239662E-03
(PID.TID 0000.0001) %MON dynstat_uvel_max             =   1.9324164887342E+00
(PID.TID 0000.0001) %MON dynstat_uvel_min             =  -1.4957121429034E+00
(PID.TID 0000.0001) %MON dynstat_uvel_mean            =   9.7776654863857E-04
(PID.TID 0000.0001) %MON dynstat_uvel_sd              =   3.0667810849998E-02
(PID.TID 0000.0001) %MON dynstat_uvel_del2            =   2.4763031899048E-05
(PID.TID 0000.0001) %MON dynstat_vvel_max             =   1.5739665795864E+00
(PID.TID 0000.0001) %MON dynstat_vvel_min             =  -1.8810746252453E+00
(PID.TID 0000.0001) %MON dynstat_vvel_mean            =  -3.6650497528339E-04
(PID.TID 0000.0001) %MON dynstat_vvel_sd              =   3.0053957268006E-02
(PID.TID 0000.0001) %MON dynstat_vvel_del2            =   2.4534076002662E-05
(PID.TID 0000.0001) %MON dynstat_wvel_max             =   6.1651419350300E-03
(PID.TID 0000.0001) %MON dynstat_wvel_min             =  -7.5097402613122E-03
(PID.TID 0000.0001) %MON dynstat_wvel_mean            =  -8.6249116698343E-08
(PID.TID 0000.0001) %MON dynstat_wvel_sd              =   7.6339599827218E-05
(PID.TID 0000.0001) %MON dynstat_wvel_del2            =   1.4622164235497E-07
(PID.TID 0000.0001) %MON dynstat_theta_max            =   3.2408700524518E+01
(PID.TID 0000.0001) %MON dynstat_theta_min            =  -2.0146796561780E+00
(PID.TID 0000.0001) %MON dynstat_theta_mean           =   3.5922647930911E+00
(PID.TID 0000.0001) %MON dynstat_theta_sd             =   4.4423472608511E+00
(PID.TID 0000.0001) %MON dynstat_theta_del2           =   1.1803912646506E-04
(PID.TID 0000.0001) %MON dynstat_salt_max             =   4.0655995864946E+01
(PID.TID 0000.0001) %MON dynstat_salt_min             =   1.6257855228181E+01
(PID.TID 0000.0001) %MON dynstat_salt_mean            =   3.4724861340475E+01
(PID.TID 0000.0001) %MON dynstat_salt_sd              =   3.7952873437070E-01
(PID.TID 0000.0001) %MON dynstat_salt_del2            =   7.8873747494195E-05
(PID.TID 0000.0001) %MON dynstat_sst_max              =   3.2408700524518E+01
(PID.TID 0000.0001) %MON dynstat_sst_min              =  -2.0146796561780E+00
(PID.TID 0000.0001) %MON dynstat_sst_mean             =   1.8178492520663E+01
(PID.TID 0000.0001) %MON dynstat_sst_sd               =   1.0143820964282E+01
(PID.TID 0000.0001) %MON dynstat_sst_del2             =   1.1567939362544E-03
(PID.TID 0000.0001) %MON dynstat_sss_max              =   3.9482706600468E+01
(PID.TID 0000.0001) %MON dynstat_sss_min              =   1.6257855228181E+01
(PID.TID 0000.0001) %MON dynstat_sss_mean             =   3.4653934776863E+01
(PID.TID 0000.0001) %MON dynstat_sss_sd               =   1.2806050254081E+00
(PID.TID 0000.0001) %MON dynstat_sss_del2             =   1.4870844009950E-03
(PID.TID 0000.0001) %MON forcing_qnet_max             =   4.1488309660322E+03
(PID.TID 0000.0001) %MON forcing_qnet_min             =  -2.3883818359375E+03
(PID.TID 0000.0001) %MON forcing_qnet_mean            =   1.3793983423049E+01
(PID.TID 0000.0001) %MON forcing_qnet_sd              =   2.5183828068220E+02
(PID.TID 0000.0001) %MON forcing_qnet_del2            =   9.4708110457073E-01
(PID.TID 0000.0001) %MON forcing_qsw_max              =   0.0000000000000E+00
(PID.TID 0000.0001) %MON forcing_qsw_min              =  -1.1248032772555E+02
(PID.TID 0000.0001) %MON forcing_qsw_mean             =  -1.4732229798258E+01
(PID.TID 0000.0001) %MON forcing_qsw_sd               =   2.7231563583993E+01
(PID.TID 0000.0001) %MON forcing_qsw_del2             =   1.9694763716154E-02
(PID.TID 0000.0001) %MON forcing_empmr_max            =   3.2779064029455E-02
(PID.TID 0000.0001) %MON forcing_empmr_min            =  -5.0030268728733E-02
(PID.TID 0000.0001) %MON forcing_empmr_mean           =   1.6803336124547E-05
(PID.TID 0000.0001) %MON forcing_empmr_sd             =   4.9223184787075E-04
(PID.TID 0000.0001) %MON forcing_empmr_del2           =   5.5278571976308E-06
(PID.TID 0000.0001) %MON forcing_fu_max               =   1.0738351053418E+00
(PID.TID 0000.0001) %MON forcing_fu_min               =  -9.0058725532122E-01
(PID.TID 0000.0001) %MON forcing_fu_mean              =   8.4245850344037E-03
(PID.TID 0000.0001) %MON forcing_fu_sd                =   1.1383878031730E-01
(PID.TID 0000.0001) %MON forcing_fu_del2              =   1.5421245066249E-04
(PID.TID 0000.0001) %MON forcing_fv_max               =   1.3436048500553E+00
(PID.TID 0000.0001) %MON forcing_fv_min               =  -1.6735533000003E+00
(PID.TID 0000.0001) %MON forcing_fv_mean              =  -1.5004252976038E-03
(PID.TID 0000.0001) %MON forcing_fv_sd                =   1.1037362807232E-01
(PID.TID 0000.0001) %MON forcing_fv_del2              =   1.6506739366952E-04
(PID.TID 0000.0001) %MON trAdv_CFL_u_max              =   1.6105047832172E-02
(PID.TID 0000.0001) %MON trAdv_CFL_v_max              =   1.7055533783500E-02
(PID.TID 0000.0001) %MON trAdv_CFL_w_max              =   9.7594237262278E-02
(PID.TID 0000.0001) %MON advcfl_uvel_max              =   1.5928380830936E-02
(PID.TID 0000.0001) %MON advcfl_vvel_max              =   1.7038652094632E-02
(PID.TID 0000.0001) %MON advcfl_wvel_max              =   9.6591065954149E-02
(PID.TID 0000.0001) %MON advcfl_W_hf_max              =   9.7594237262278E-02
(PID.TID 0000.0001) %MON pe_b_mean                    =   1.8620889307031E-03
(PID.TID 0000.0001) %MON ke_max                       =   1.9452870348770E+00
(PID.TID 0000.0001) %MON ke_mean                      =   8.8956595634706E-04
(PID.TID 0000.0001) %MON ke_vol                       =   1.3350064351420E+18
(PID.TID 0000.0001) %MON vort_r_min                   =  -6.2857687614986E-05
(PID.TID 0000.0001) %MON vort_r_max                   =   5.9578566355620E-05
(PID.TID 0000.0001) %MON vort_a_mean                  =  -1.9725073985165E-05
(PID.TID 0000.0001) %MON vort_a_sd                    =   7.4538614700532E-05
(PID.TID 0000.0001) %MON vort_p_mean                  =  -2.1669078659991E-05
(PID.TID 0000.0001) %MON vort_p_sd                    =   9.3607799951322E-05
(PID.TID 0000.0001) %MON surfExpan_theta_mean         =   2.0884308485346E-05
(PID.TID 0000.0001) %MON surfExpan_salt_mean          =   1.0981679499109E-06
(PID.TID 0000.0001) // =======================================================
(PID.TID 0000.0001) // End MONITOR dynamic field statistics
(PID.TID 0000.0001) // =======================================================
(PID.TID 0000.0001) // =======================================================
(PID.TID 0000.0001) // Begin MONITOR SEAICE statistics
(PID.TID 0000.0001) // =======================================================
(PID.TID 0000.0001) %MON seaice_tsnumber              =                174655
(PID.TID 0000.0001) %MON seaice_time_sec              =   7.8594750000000E+07
(PID.TID 0000.0001) %MON seaice_uice_max              =   1.8761481403119E+00
(PID.TID 0000.0001) %MON seaice_uice_min              =  -1.4990070236749E+00
(PID.TID 0000.0001) %MON seaice_uice_mean             =  -9.6657981736951E-04
(PID.TID 0000.0001) %MON seaice_uice_sd               =   1.6870391597875E-01
(PID.TID 0000.0001) %MON seaice_uice_del2             =   3.6832065152727E-04
(PID.TID 0000.0001) %MON seaice_vice_max              =   1.6637249856681E+00
(PID.TID 0000.0001) %MON seaice_vice_min              =  -1.5494701244486E+00
(PID.TID 0000.0001) %MON seaice_vice_mean             =  -2.8351435001760E-02
(PID.TID 0000.0001) %MON seaice_vice_sd               =   1.7436981997938E-01
(PID.TID 0000.0001) %MON seaice_vice_del2             =   3.6925751929787E-04
(PID.TID 0000.0001) %MON seaice_area_max              =   1.0055093131750E+00
(PID.TID 0000.0001) %MON seaice_area_min              =   0.0000000000000E+00
(PID.TID 0000.0001) %MON seaice_area_mean             =   5.7237909929983E-02
(PID.TID 0000.0001) %MON seaice_area_sd               =   2.2190650322086E-01
(PID.TID 0000.0001) %MON seaice_area_del2             =   3.3900345393151E-04
(PID.TID 0000.0001) %MON seaice_heff_max              =   9.9498246613939E+00
(PID.TID 0000.0001) %MON seaice_heff_min              =   0.0000000000000E+00
(PID.TID 0000.0001) %MON seaice_heff_mean             =   1.5017407988566E-01
(PID.TID 0000.0001) %MON seaice_heff_sd               =   7.2192158459276E-01
(PID.TID 0000.0001) %MON seaice_heff_del2             =   1.5510344523852E-03
(PID.TID 0000.0001) %MON seaice_hsnow_max             =   3.2864454134894E+00
(PID.TID 0000.0001) %MON seaice_hsnow_min             =   0.0000000000000E+00
(PID.TID 0000.0001) %MON seaice_hsnow_mean            =   1.2759673062226E-02
(PID.TID 0000.0001) %MON seaice_hsnow_sd              =   6.9609151639974E-02
(PID.TID 0000.0001) %MON seaice_hsnow_del2            =   4.3626620585637E-04
(PID.TID 0000.0001) // =======================================================
(PID.TID 0000.0001) // End MONITOR SEAICE statistics
(PID.TID 0000.0001) // =======================================================
(PID.TID 0000.0001) // =======================================================
(PID.TID 0000.0001) // Begin MONITOR dynamic field statistics
(PID.TID 0000.0001) // =======================================================
(PID.TID 0000.0001) %MON time_tsnumber                =                174656
(PID.TID 0000.0001) %MON time_secondsf                =   7.8595200000000E+07
(PID.TID 0000.0001) %MON dynstat_eta_max              =   3.2619697672202E+00
(PID.TID 0000.0001) %MON dynstat_eta_min              =  -1.2615743235919E+01
(PID.TID 0000.0001) %MON dynstat_eta_mean             =   6.2458488973496E-02
(PID.TID 0000.0001) %MON dynstat_eta_sd               =   8.2318829621036E-01
(PID.TID 0000.0001) %MON dynstat_eta_del2             =   2.0515121761756E-03
(PID.TID 0000.0001) %MON dynstat_uvel_max             =   1.9292801397166E+00
(PID.TID 0000.0001) %MON dynstat_uvel_min             =  -1.4816956373357E+00
(PID.TID 0000.0001) %MON dynstat_uvel_mean            =   1.0270215928437E-03
(PID.TID 0000.0001) %MON dynstat_uvel_sd              =   3.0696502571477E-02
(PID.TID 0000.0001) %MON dynstat_uvel_del2            =   2.4833336516339E-05
(PID.TID 0000.0001) %MON dynstat_vvel_max             =   1.4799869419024E+00
(PID.TID 0000.0001) %MON dynstat_vvel_min             =  -1.8709280677466E+00
(PID.TID 0000.0001) %MON dynstat_vvel_mean            =  -2.9815629519193E-04
(PID.TID 0000.0001) %MON dynstat_vvel_sd              =   3.0081329659812E-02
(PID.TID 0000.0001) %MON dynstat_vvel_del2            =   2.4619969270815E-05
(PID.TID 0000.0001) %MON dynstat_wvel_max             =   6.2409548371769E-03
(PID.TID 0000.0001) %MON dynstat_wvel_min             =  -7.5943417201787E-03
(PID.TID 0000.0001) %MON dynstat_wvel_mean            =  -6.7186326659692E-08
(PID.TID 0000.0001) %MON dynstat_wvel_sd              =   7.6656665168836E-05
(PID.TID 0000.0001) %MON dynstat_wvel_del2            =   1.4745814123063E-07
(PID.TID 0000.0001) %MON dynstat_theta_max            =   3.2409998515419E+01
(PID.TID 0000.0001) %MON dynstat_theta_min            =  -2.0150224907038E+00
(PID.TID 0000.0001) %MON dynstat_theta_mean           =   3.5922619798764E+00
(PID.TID 0000.0001) %MON dynstat_theta_sd             =   4.4423407715211E+00
(PID.TID 0000.0001) %MON dynstat_theta_del2           =   1.1805193431837E-04
(PID.TID 0000.0001) %MON dynstat_salt_max             =   4.0655995864922E+01
(PID.TID 0000.0001) %MON dynstat_salt_min             =   1.6254612816883E+01
(PID.TID 0000.0001) %MON dynstat_salt_mean            =   3.4724860829068E+01
(PID.TID 0000.0001) %MON dynstat_salt_sd              =   3.7953092456574E-01
(PID.TID 0000.0001) %MON dynstat_salt_del2            =   7.8714519677217E-05
(PID.TID 0000.0001) %MON dynstat_sst_max              =   3.2409998515419E+01
(PID.TID 0000.0001) %MON dynstat_sst_min              =  -2.0150224907038E+00
(PID.TID 0000.0001) %MON dynstat_sst_mean             =   1.8178306517621E+01
(PID.TID 0000.0001) %MON dynstat_sst_sd               =   1.0144046503082E+01
(PID.TID 0000.0001) %MON dynstat_sst_del2             =   1.1561987815434E-03
(PID.TID 0000.0001) %MON dynstat_sss_max              =   3.9482398730652E+01
(PID.TID 0000.0001) %MON dynstat_sss_min              =   1.6254612816883E+01
(PID.TID 0000.0001) %MON dynstat_sss_mean             =   3.4653824341641E+01
(PID.TID 0000.0001) %MON dynstat_sss_sd               =   1.2807632915870E+00
(PID.TID 0000.0001) %MON dynstat_sss_del2             =   1.4857052503008E-03
(PID.TID 0000.0001) %MON forcing_qnet_max             =   4.1834930074964E+03
(PID.TID 0000.0001) %MON forcing_qnet_min             =  -2.2969013671875E+03
(PID.TID 0000.0001) %MON forcing_qnet_mean            =   1.4463804044978E+01
(PID.TID 0000.0001) %MON forcing_qnet_sd              =   2.5051454544819E+02
(PID.TID 0000.0001) %MON forcing_qnet_del2            =   9.3457725975275E-01
(PID.TID 0000.0001) %MON forcing_qsw_max              =   0.0000000000000E+00
(PID.TID 0000.0001) %MON forcing_qsw_min              =  -1.1238271867523E+02
(PID.TID 0000.0001) %MON forcing_qsw_mean             =  -1.4728031985595E+01
(PID.TID 0000.0001) %MON forcing_qsw_sd               =   2.7082148664341E+01
(PID.TID 0000.0001) %MON forcing_qsw_del2             =   1.9686153332310E-02
(PID.TID 0000.0001) %MON forcing_empmr_max            =   3.2775845378637E-02
(PID.TID 0000.0001) %MON forcing_empmr_min            =  -4.9661774188280E-02
(PID.TID 0000.0001) %MON forcing_empmr_mean           =   1.6432455365326E-05
(PID.TID 0000.0001) %MON forcing_empmr_sd             =   4.8907363582671E-04
(PID.TID 0000.0001) %MON forcing_empmr_del2           =   5.4971660508172E-06
(PID.TID 0000.0001) %MON forcing_fu_max               =   1.0487680235090E+00
(PID.TID 0000.0001) %MON forcing_fu_min               =  -8.8050074146842E-01
(PID.TID 0000.0001) %MON forcing_fu_mean              =   8.4195186762146E-03
(PID.TID 0000.0001) %MON forcing_fu_sd                =   1.1393032337695E-01
(PID.TID 0000.0001) %MON forcing_fu_del2              =   1.5361972117421E-04
(PID.TID 0000.0001) %MON forcing_fv_max               =   1.4238768171713E+00
(PID.TID 0000.0001) %MON forcing_fv_min               =  -1.6475533627359E+00
(PID.TID 0000.0001) %MON forcing_fv_mean              =  -1.4840645776231E-03
(PID.TID 0000.0001) %MON forcing_fv_sd                =   1.1029830242267E-01
(PID.TID 0000.0001) %MON forcing_fv_del2              =   1.6461224450655E-04
(PID.TID 0000.0001) %MON trAdv_CFL_u_max              =   1.6062310068854E-02
(PID.TID 0000.0001) %MON trAdv_CFL_v_max              =   1.8358304373913E-02
(PID.TID 0000.0001) %MON trAdv_CFL_w_max              =   9.7994104457401E-02
(PID.TID 0000.0001) %MON advcfl_uvel_max              =   1.5886111886621E-02
(PID.TID 0000.0001) %MON advcfl_vvel_max              =   1.8340133193432E-02
(PID.TID 0000.0001) %MON advcfl_wvel_max              =   9.6986822913786E-02
(PID.TID 0000.0001) %MON advcfl_W_hf_max              =   9.7994104457401E-02
(PID.TID 0000.0001) %MON pe_b_mean                    =   1.8607239444555E-03
(PID.TID 0000.0001) %MON ke_max                       =   1.9394542130435E+00
(PID.TID 0000.0001) %MON ke_mean                      =   8.9123429161764E-04
(PID.TID 0000.0001) %MON ke_vol                       =   1.3350064351420E+18
(PID.TID 0000.0001) %MON vort_r_min                   =  -6.0953419532308E-05
(PID.TID 0000.0001) %MON vort_r_max                   =   5.9267875433585E-05
(PID.TID 0000.0001) %MON vort_a_mean                  =  -1.9725072820587E-05
(PID.TID 0000.0001) %MON vort_a_sd                    =   7.4538626599723E-05
(PID.TID 0000.0001) %MON vort_p_mean                  =  -2.1669077380638E-05
(PID.TID 0000.0001) %MON vort_p_sd                    =   9.3607794809741E-05
(PID.TID 0000.0001) %MON surfExpan_theta_mean         =   2.1442484719502E-05
(PID.TID 0000.0001) %MON surfExpan_salt_mean          =   1.8248044498369E-06
(PID.TID 0000.0001) // =======================================================
(PID.TID 0000.0001) // End MONITOR dynamic field statistics
(PID.TID 0000.0001) // =======================================================
(PID.TID 0000.0001) // =======================================================
(PID.TID 0000.0001) // Begin MONITOR SEAICE statistics
(PID.TID 0000.0001) // =======================================================
(PID.TID 0000.0001) %MON seaice_tsnumber              =                174656
(PID.TID 0000.0001) %MON seaice_time_sec              =   7.8595200000000E+07
(PID.TID 0000.0001) %MON seaice_uice_max              =   1.8768685734556E+00
(PID.TID 0000.0001) %MON seaice_uice_min              =  -1.4957121429034E+00
(PID.TID 0000.0001) %MON seaice_uice_mean             =  -8.5616941736050E-04
(PID.TID 0000.0001) %MON seaice_uice_sd               =   1.6864220907651E-01
(PID.TID 0000.0001) %MON seaice_uice_del2             =   3.6753426774325E-04
(PID.TID 0000.0001) %MON seaice_vice_max              =   1.5739665795864E+00
(PID.TID 0000.0001) %MON seaice_vice_min              =  -1.5565278190820E+00
(PID.TID 0000.0001) %MON seaice_vice_mean             =  -2.8270288889100E-02
(PID.TID 0000.0001) %MON seaice_vice_sd               =   1.7421542260082E-01
(PID.TID 0000.0001) %MON seaice_vice_del2             =   3.6940097408997E-04
(PID.TID 0000.0001) %MON seaice_area_max              =   1.0057407858616E+00
(PID.TID 0000.0001) %MON seaice_area_min              =   0.0000000000000E+00
(PID.TID 0000.0001) %MON seaice_area_mean             =   5.7238328643562E-02
(PID.TID 0000.0001) %MON seaice_area_sd               =   2.2189873977400E-01
(PID.TID 0000.0001) %MON seaice_area_del2             =   3.3835892931278E-04
(PID.TID 0000.0001) %MON seaice_heff_max              =   9.9498008555416E+00
(PID.TID 0000.0001) %MON seaice_heff_min              =   0.0000000000000E+00
(PID.TID 0000.0001) %MON seaice_heff_mean             =   1.5017172170868E-01
(PID.TID 0000.0001) %MON seaice_heff_sd               =   7.2191471355632E-01
(PID.TID 0000.0001) %MON seaice_heff_del2             =   1.5485737756161E-03
(PID.TID 0000.0001) %MON seaice_hsnow_max             =   3.2864379624722E+00
(PID.TID 0000.0001) %MON seaice_hsnow_min             =   0.0000000000000E+00
(PID.TID 0000.0001) %MON seaice_hsnow_mean            =   1.2759264842943E-02
(PID.TID 0000.0001) %MON seaice_hsnow_sd              =   6.9596104066634E-02
(PID.TID 0000.0001) %MON seaice_hsnow_del2            =   4.3550598084823E-04
(PID.TID 0000.0001) // =======================================================
(PID.TID 0000.0001) // End MONITOR SEAICE statistics
(PID.TID 0000.0001) // =======================================================
(PID.TID 0000.0001) // =======================================================
(PID.TID 0000.0001) // Begin MONITOR dynamic field statistics
(PID.TID 0000.0001) // =======================================================
(PID.TID 0000.0001) %MON time_tsnumber                =                174657
(PID.TID 0000.0001) %MON time_secondsf                =   7.8595650000000E+07
(PID.TID 0000.0001) %MON dynstat_eta_max              =   3.1392769425360E+00
(PID.TID 0000.0001) %MON dynstat_eta_min              =  -1.2602747035352E+01
(PID.TID 0000.0001) %MON dynstat_eta_mean             =   6.2474817303035E-02
(PID.TID 0000.0001) %MON dynstat_eta_sd               =   8.2409760351503E-01
(PID.TID 0000.0001) %MON dynstat_eta_del2             =   2.0498532547712E-03
(PID.TID 0000.0001) %MON dynstat_uvel_max             =   1.9236236840556E+00
(PID.TID 0000.0001) %MON dynstat_uvel_min             =  -1.4575215667235E+00
(PID.TID 0000.0001) %MON dynstat_uvel_mean            =   1.0799558258873E-03
(PID.TID 0000.0001) %MON dynstat_uvel_sd              =   3.0724236887319E-02
(PID.TID 0000.0001) %MON dynstat_uvel_del2            =   2.4896327322920E-05
(PID.TID 0000.0001) %MON dynstat_vvel_max             =   1.4896404027731E+00
(PID.TID 0000.0001) %MON dynstat_vvel_min             =  -1.8600436159799E+00
(PID.TID 0000.0001) %MON dynstat_vvel_mean            =  -2.2812702229867E-04
(PID.TID 0000.0001) %MON dynstat_vvel_sd              =   3.0105989339176E-02
(PID.TID 0000.0001) %MON dynstat_vvel_del2            =   2.4691566402230E-05
(PID.TID 0000.0001) %MON dynstat_wvel_max             =   6.3196653698319E-03
(PID.TID 0000.0001) %MON dynstat_wvel_min             =  -7.6789949949201E-03
(PID.TID 0000.0001) %MON dynstat_wvel_mean            =  -4.8241571754314E-08
(PID.TID 0000.0001) %MON dynstat_wvel_sd              =   7.6962012756478E-05
(PID.TID 0000.0001) %MON dynstat_wvel_del2            =   1.4868918447843E-07
(PID.TID 0000.0001) %MON dynstat_theta_max            =   3.2410981747783E+01
(PID.TID 0000.0001) %MON dynstat_theta_min            =  -2.0153553427118E+00
(PID.TID 0000.0001) %MON dynstat_theta_mean           =   3.5922590835650E+00
(PID.TID 0000.0001) %MON dynstat_theta_sd             =   4.4423341261759E+00
(PID.TID 0000.0001) %MON dynstat_theta_del2           =   1.1806626440235E-04
(PID.TID 0000.0001) %MON dynstat_salt_max             =   4.0655995864896E+01
(PID.TID 0000.0001) %MON dynstat_salt_min             =   1.6251597809621E+01
(PID.TID 0000.0001) %MON dynstat_salt_mean            =   3.4724860320607E+01
(PID.TID 0000.0001) %MON dynstat_salt_sd              =   3.7953315549854E-01
(PID.TID 0000.0001) %MON dynstat_salt_del2            =   7.8555409292533E-05
(PID.TID 0000.0001) %MON dynstat_sst_max              =   3.2410981747783E+01
(PID.TID 0000.0001) %MON dynstat_sst_min              =  -2.0153553427118E+00
(PID.TID 0000.0001) %MON dynstat_sst_mean             =   1.8178111513722E+01
(PID.TID 0000.0001) %MON dynstat_sst_sd               =   1.0144262762617E+01
(PID.TID 0000.0001) %MON dynstat_sst_del2             =   1.1557105901535E-03
(PID.TID 0000.0001) %MON dynstat_sss_max              =   3.9482045183118E+01
(PID.TID 0000.0001) %MON dynstat_sss_min              =   1.6251597809621E+01
(PID.TID 0000.0001) %MON dynstat_sss_mean             =   3.4653712932519E+01
(PID.TID 0000.0001) %MON dynstat_sss_sd               =   1.2809192857587E+00
(PID.TID 0000.0001) %MON dynstat_sss_del2             =   1.4843236670367E-03
(PID.TID 0000.0001) %MON forcing_qnet_max             =   4.0841620911824E+03
(PID.TID 0000.0001) %MON forcing_qnet_min             =  -2.0775241699219E+03
(PID.TID 0000.0001) %MON forcing_qnet_mean            =   1.5250367513259E+01
(PID.TID 0000.0001) %MON forcing_qnet_sd              =   2.4952344194417E+02
(PID.TID 0000.0001) %MON forcing_qnet_del2            =   9.3436128580733E-01
(PID.TID 0000.0001) %MON forcing_qsw_max              =   0.0000000000000E+00
(PID.TID 0000.0001) %MON forcing_qsw_min              =  -1.1219391041522E+02
(PID.TID 0000.0001) %MON forcing_qsw_mean             =  -1.4717396787175E+01
(PID.TID 0000.0001) %MON forcing_qsw_sd               =   2.6922424001781E+01
(PID.TID 0000.0001) %MON forcing_qsw_del2             =   1.9676379132550E-02
(PID.TID 0000.0001) %MON forcing_empmr_max            =   3.2782282680273E-02
(PID.TID 0000.0001) %MON forcing_empmr_min            =  -4.9448311328888E-02
(PID.TID 0000.0001) %MON forcing_empmr_mean           =   1.6083839790160E-05
(PID.TID 0000.0001) %MON forcing_empmr_sd             =   4.8629300256933E-04
(PID.TID 0000.0001) %MON forcing_empmr_del2           =   5.4695959145877E-06
(PID.TID 0000.0001) %MON forcing_fu_max               =   1.0545450588457E+00
(PID.TID 0000.0001) %MON forcing_fu_min               =  -8.6226328574262E-01
(PID.TID 0000.0001) %MON forcing_fu_mean              =   8.4117698807102E-03
(PID.TID 0000.0001) %MON forcing_fu_sd                =   1.1403219886723E-01
(PID.TID 0000.0001) %MON forcing_fu_del2              =   1.5304884869299E-04
(PID.TID 0000.0001) %MON forcing_fv_max               =   1.4754288423944E+00
(PID.TID 0000.0001) %MON forcing_fv_min               =  -1.6220174758616E+00
(PID.TID 0000.0001) %MON forcing_fv_mean              =  -1.4661143219959E-03
(PID.TID 0000.0001) %MON forcing_fv_sd                =   1.1024110565983E-01
(PID.TID 0000.0001) %MON forcing_fv_del2              =   1.6396628004319E-04
(PID.TID 0000.0001) %MON trAdv_CFL_u_max              =   1.6022365216419E-02
(PID.TID 0000.0001) %MON trAdv_CFL_v_max              =   1.9374390843200E-02
(PID.TID 0000.0001) %MON trAdv_CFL_w_max              =   9.8099167231692E-02
(PID.TID 0000.0001) %MON advcfl_uvel_max              =   1.5846605215890E-02
(PID.TID 0000.0001) %MON advcfl_vvel_max              =   1.9355213933092E-02
(PID.TID 0000.0001) %MON advcfl_wvel_max              =   9.7090805747666E-02
(PID.TID 0000.0001) %MON advcfl_W_hf_max              =   9.8099167231692E-02
(PID.TID 0000.0001) %MON pe_b_mean                    =   1.8597137481652E-03
(PID.TID 0000.0001) %MON ke_max                       =   1.9351002552905E+00
(PID.TID 0000.0001) %MON ke_mean                      =   8.9280730241787E-04
(PID.TID 0000.0001) %MON ke_vol                       =   1.3350064351420E+18
(PID.TID 0000.0001) %MON vort_r_min                   =  -6.0760297071222E-05
(PID.TID 0000.0001) %MON vort_r_max                   =   5.8841584639789E-05
(PID.TID 0000.0001) %MON vort_a_mean                  =  -1.9725071669822E-05
(PID.TID 0000.0001) %MON vort_a_sd                    =   7.4538638956344E-05
(PID.TID 0000.0001) %MON vort_p_mean                  =  -2.1669076116459E-05
(PID.TID 0000.0001) %MON vort_p_sd                    =   9.3607797322325E-05
(PID.TID 0000.0001) %MON surfExpan_theta_mean         =   2.1961479312695E-05
(PID.TID 0000.0001) %MON surfExpan_salt_mean          =   2.5472279829581E-06
(PID.TID 0000.0001) // =======================================================
(PID.TID 0000.0001) // End MONITOR dynamic field statistics
(PID.TID 0000.0001) // =======================================================
(PID.TID 0000.0001) // =======================================================
(PID.TID 0000.0001) // Begin MONITOR SEAICE statistics
(PID.TID 0000.0001) // =======================================================
(PID.TID 0000.0001) %MON seaice_tsnumber              =                174657
(PID.TID 0000.0001) %MON seaice_time_sec              =   7.8595650000000E+07
(PID.TID 0000.0001) %MON seaice_uice_max              =   1.8776256953048E+00
(PID.TID 0000.0001) %MON seaice_uice_min              =  -1.4816956373357E+00
(PID.TID 0000.0001) %MON seaice_uice_mean             =  -7.4068361780821E-04
(PID.TID 0000.0001) %MON seaice_uice_sd               =   1.6856081127795E-01
(PID.TID 0000.0001) %MON seaice_uice_del2             =   3.6649211684024E-04
(PID.TID 0000.0001) %MON seaice_vice_max              =   1.5235512365911E+00
(PID.TID 0000.0001) %MON seaice_vice_min              =  -1.5629209830607E+00
(PID.TID 0000.0001) %MON seaice_vice_mean             =  -2.8183900562782E-02
(PID.TID 0000.0001) %MON seaice_vice_sd               =   1.7405777446728E-01
(PID.TID 0000.0001) %MON seaice_vice_del2             =   3.6926086103406E-04
(PID.TID 0000.0001) %MON seaice_area_max              =   1.0059512690054E+00
(PID.TID 0000.0001) %MON seaice_area_min              =   0.0000000000000E+00
(PID.TID 0000.0001) %MON seaice_area_mean             =   5.7238749434401E-02
(PID.TID 0000.0001) %MON seaice_area_sd               =   2.2189101246582E-01
(PID.TID 0000.0001) %MON seaice_area_del2             =   3.3772325232518E-04
(PID.TID 0000.0001) %MON seaice_heff_max              =   9.9497769146123E+00
(PID.TID 0000.0001) %MON seaice_heff_min              =   0.0000000000000E+00
(PID.TID 0000.0001) %MON seaice_heff_mean             =   1.5016929288367E-01
(PID.TID 0000.0001) %MON seaice_heff_sd               =   7.2190786384827E-01
(PID.TID 0000.0001) %MON seaice_heff_del2             =   1.5462238006682E-03
(PID.TID 0000.0001) %MON seaice_hsnow_max             =   3.2864300108302E+00
(PID.TID 0000.0001) %MON seaice_hsnow_min             =   0.0000000000000E+00
(PID.TID 0000.0001) %MON seaice_hsnow_mean            =   1.2758844492509E-02
(PID.TID 0000.0001) %MON seaice_hsnow_sd              =   6.9583449367761E-02
(PID.TID 0000.0001) %MON seaice_hsnow_del2            =   4.3478239137568E-04
(PID.TID 0000.0001) // =======================================================
(PID.TID 0000.0001) // End MONITOR SEAICE statistics
(PID.TID 0000.0001) // =======================================================
(PID.TID 0000.0001) // =======================================================
(PID.TID 0000.0001) // Begin MONITOR dynamic field statistics
(PID.TID 0000.0001) // =======================================================
(PID.TID 0000.0001) %MON time_tsnumber                =                174658
(PID.TID 0000.0001) %MON time_secondsf                =   7.8596100000000E+07
(PID.TID 0000.0001) %MON dynstat_eta_max              =   3.1348645560815E+00
(PID.TID 0000.0001) %MON dynstat_eta_min              =  -1.2550512341838E+01
(PID.TID 0000.0001) %MON dynstat_eta_mean             =   6.2500323083657E-02
(PID.TID 0000.0001) %MON dynstat_eta_sd               =   8.2503020521838E-01
(PID.TID 0000.0001) %MON dynstat_eta_del2             =   2.0486503577722E-03
(PID.TID 0000.0001) %MON dynstat_uvel_max             =   1.9157198475741E+00
(PID.TID 0000.0001) %MON dynstat_uvel_min             =  -1.4572991523805E+00
(PID.TID 0000.0001) %MON dynstat_uvel_mean            =   1.1358829931133E-03
(PID.TID 0000.0001) %MON dynstat_uvel_sd              =   3.0751102544430E-02
(PID.TID 0000.0001) %MON dynstat_uvel_del2            =   2.4954007784694E-05
(PID.TID 0000.0001) %MON dynstat_vvel_max             =   1.5205053835442E+00
(PID.TID 0000.0001) %MON dynstat_vvel_min             =  -1.8487609229903E+00
(PID.TID 0000.0001) %MON dynstat_vvel_mean            =  -1.5686246543567E-04
(PID.TID 0000.0001) %MON dynstat_vvel_sd              =   3.0129034958007E-02
(PID.TID 0000.0001) %MON dynstat_vvel_del2            =   2.4750008153696E-05
(PID.TID 0000.0001) %MON dynstat_wvel_max             =   6.4011880776881E-03
(PID.TID 0000.0001) %MON dynstat_wvel_min             =  -7.7645748393146E-03
(PID.TID 0000.0001) %MON dynstat_wvel_mean            =  -2.9744133993906E-08
(PID.TID 0000.0001) %MON dynstat_wvel_sd              =   7.7258750970079E-05
(PID.TID 0000.0001) %MON dynstat_wvel_del2            =   1.4991424359424E-07
(PID.TID 0000.0001) %MON dynstat_theta_max            =   3.2411411189268E+01
(PID.TID 0000.0001) %MON dynstat_theta_min            =  -2.0156713965325E+00
(PID.TID 0000.0001) %MON dynstat_theta_mean           =   3.5922561208381E+00
(PID.TID 0000.0001) %MON dynstat_theta_sd             =   4.4423273963147E+00
(PID.TID 0000.0001) %MON dynstat_theta_del2           =   1.1807335116495E-04
(PID.TID 0000.0001) %MON dynstat_salt_max             =   4.0655995864869E+01
(PID.TID 0000.0001) %MON dynstat_salt_min             =   1.6248883006233E+01
(PID.TID 0000.0001) %MON dynstat_salt_mean            =   3.4724859817547E+01
(PID.TID 0000.0001) %MON dynstat_salt_sd              =   3.7953542952641E-01
(PID.TID 0000.0001) %MON dynstat_salt_del2            =   7.8395722310391E-05
(PID.TID 0000.0001) %MON dynstat_sst_max              =   3.2411411189268E+01
(PID.TID 0000.0001) %MON dynstat_sst_min              =  -2.0156713965325E+00
(PID.TID 0000.0001) %MON dynstat_sst_mean             =   1.8177926657212E+01
(PID.TID 0000.0001) %MON dynstat_sst_sd               =   1.0144487638145E+01
(PID.TID 0000.0001) %MON dynstat_sst_del2             =   1.1551987958707E-03
(PID.TID 0000.0001) %MON dynstat_sss_max              =   3.9481652115579E+01
(PID.TID 0000.0001) %MON dynstat_sss_min              =   1.6248883006233E+01
(PID.TID 0000.0001) %MON dynstat_sss_mean             =   3.4653604296824E+01
(PID.TID 0000.0001) %MON dynstat_sss_sd               =   1.2810766684677E+00
(PID.TID 0000.0001) %MON dynstat_sss_del2             =   1.4829282371481E-03
(PID.TID 0000.0001) %MON forcing_qnet_max             =   3.7761768471824E+03
(PID.TID 0000.0001) %MON forcing_qnet_min             =  -2.5007824707031E+03
(PID.TID 0000.0001) %MON forcing_qnet_mean            =   1.5663346300023E+01
(PID.TID 0000.0001) %MON forcing_qnet_sd              =   2.4897225566722E+02
(PID.TID 0000.0001) %MON forcing_qnet_del2            =   9.3599048403639E-01
(PID.TID 0000.0001) %MON forcing_qsw_max              =   0.0000000000000E+00
(PID.TID 0000.0001) %MON forcing_qsw_min              =  -1.1207862876412E+02
(PID.TID 0000.0001) %MON forcing_qsw_mean             =  -1.4699675095720E+01
(PID.TID 0000.0001) %MON forcing_qsw_sd               =   2.6753334642177E+01
(PID.TID 0000.0001) %MON forcing_qsw_del2             =   1.9665465778494E-02
(PID.TID 0000.0001) %MON forcing_empmr_max            =   3.2793279737234E-02
(PID.TID 0000.0001) %MON forcing_empmr_min            =  -5.0039261579514E-02
(PID.TID 0000.0001) %MON forcing_empmr_mean           =   1.6055106423330E-05
(PID.TID 0000.0001) %MON forcing_empmr_sd             =   4.8317368081442E-04
(PID.TID 0000.0001) %MON forcing_empmr_del2           =   5.4412202195313E-06
(PID.TID 0000.0001) %MON forcing_fu_max               =   1.0507202534785E+00
(PID.TID 0000.0001) %MON forcing_fu_min               =  -8.4492955628791E-01
(PID.TID 0000.0001) %MON forcing_fu_mean              =   8.4086604869195E-03
(PID.TID 0000.0001) %MON forcing_fu_sd                =   1.1413411276570E-01
(PID.TID 0000.0001) %MON forcing_fu_del2              =   1.5239993761042E-04
(PID.TID 0000.0001) %MON forcing_fv_max               =   1.5053929994182E+00
(PID.TID 0000.0001) %MON forcing_fv_min               =  -1.5961965542691E+00
(PID.TID 0000.0001) %MON forcing_fv_mean              =  -1.4534317444244E-03
(PID.TID 0000.0001) %MON forcing_fv_sd                =   1.1015131015870E-01
(PID.TID 0000.0001) %MON forcing_fv_del2              =   1.6313703734445E-04
(PID.TID 0000.0001) %MON trAdv_CFL_u_max              =   1.5985448869017E-02
(PID.TID 0000.0001) %MON trAdv_CFL_v_max              =   2.0063347391468E-02
(PID.TID 0000.0001) %MON trAdv_CFL_w_max              =   9.7933335129507E-02
(PID.TID 0000.0001) %MON advcfl_uvel_max              =   1.5810093828502E-02
(PID.TID 0000.0001) %MON advcfl_vvel_max              =   2.0043488547259E-02
(PID.TID 0000.0001) %MON advcfl_wvel_max              =   9.6926678233903E-02
(PID.TID 0000.0001) %MON advcfl_W_hf_max              =   9.7933335129507E-02
(PID.TID 0000.0001) %MON pe_b_mean                    =   1.8590216347084E-03
(PID.TID 0000.0001) %MON ke_max                       =   1.9326880149519E+00
(PID.TID 0000.0001) %MON ke_mean                      =   8.9431949530451E-04
(PID.TID 0000.0001) %MON ke_vol                       =   1.3350064351420E+18
(PID.TID 0000.0001) %MON vort_r_min                   =  -6.1512847213698E-05
(PID.TID 0000.0001) %MON vort_r_max                   =   5.8314837877083E-05
(PID.TID 0000.0001) %MON vort_a_mean                  =  -1.9725070548539E-05
(PID.TID 0000.0001) %MON vort_a_sd                    =   7.4538651871254E-05
(PID.TID 0000.0001) %MON vort_p_mean                  =  -2.1669074884668E-05
(PID.TID 0000.0001) %MON vort_p_sd                    =   9.3607807005493E-05
(PID.TID 0000.0001) %MON surfExpan_theta_mean         =   2.2431322263607E-05
(PID.TID 0000.0001) %MON surfExpan_salt_mean          =   3.2477255502243E-06
(PID.TID 0000.0001) // =======================================================
(PID.TID 0000.0001) // End MONITOR dynamic field statistics
(PID.TID 0000.0001) // =======================================================
(PID.TID 0000.0001) // =======================================================
(PID.TID 0000.0001) // Begin MONITOR SEAICE statistics
(PID.TID 0000.0001) // =======================================================
(PID.TID 0000.0001) %MON seaice_tsnumber              =                174658
(PID.TID 0000.0001) %MON seaice_time_sec              =   7.8596100000000E+07
(PID.TID 0000.0001) %MON seaice_uice_max              =   1.8787297481997E+00
(PID.TID 0000.0001) %MON seaice_uice_min              =  -1.4575215667235E+00
(PID.TID 0000.0001) %MON seaice_uice_mean             =  -6.2401907047059E-04
(PID.TID 0000.0001) %MON seaice_uice_sd               =   1.6845862134698E-01
(PID.TID 0000.0001) %MON seaice_uice_del2             =   3.6521318436367E-04
(PID.TID 0000.0001) %MON seaice_vice_max              =   1.5039802573165E+00
(PID.TID 0000.0001) %MON seaice_vice_min              =  -1.5687924243416E+00
(PID.TID 0000.0001) %MON seaice_vice_mean             =  -2.8082721262059E-02
(PID.TID 0000.0001) %MON seaice_vice_sd               =   1.7386806594644E-01
(PID.TID 0000.0001) %MON seaice_vice_del2             =   3.6866662151104E-04
(PID.TID 0000.0001) %MON seaice_area_max              =   1.0061513063438E+00
(PID.TID 0000.0001) %MON seaice_area_min              =   0.0000000000000E+00
(PID.TID 0000.0001) %MON seaice_area_mean             =   5.7239201160269E-02
(PID.TID 0000.0001) %MON seaice_area_sd               =   2.2188345708615E-01
(PID.TID 0000.0001) %MON seaice_area_del2             =   3.3710183078044E-04
(PID.TID 0000.0001) %MON seaice_heff_max              =   9.9497520009689E+00
(PID.TID 0000.0001) %MON seaice_heff_min              =   0.0000000000000E+00
(PID.TID 0000.0001) %MON seaice_heff_mean             =   1.5016679922055E-01
(PID.TID 0000.0001) %MON seaice_heff_sd               =   7.2190109046975E-01
(PID.TID 0000.0001) %MON seaice_heff_del2             =   1.5439901949709E-03
(PID.TID 0000.0001) %MON seaice_hsnow_max             =   3.2864224989101E+00
(PID.TID 0000.0001) %MON seaice_hsnow_min             =   0.0000000000000E+00
(PID.TID 0000.0001) %MON seaice_hsnow_mean            =   1.2758419683837E-02
(PID.TID 0000.0001) %MON seaice_hsnow_sd              =   6.9571221678904E-02
(PID.TID 0000.0001) %MON seaice_hsnow_del2            =   4.3409571990910E-04
(PID.TID 0000.0001) // =======================================================
(PID.TID 0000.0001) // End MONITOR SEAICE statistics
(PID.TID 0000.0001) // =======================================================
(PID.TID 0000.0001) // =======================================================
(PID.TID 0000.0001) // Begin MONITOR dynamic field statistics
(PID.TID 0000.0001) // =======================================================
(PID.TID 0000.0001) %MON time_tsnumber                =                174659
(PID.TID 0000.0001) %MON time_secondsf                =   7.8596550000000E+07
(PID.TID 0000.0001) %MON dynstat_eta_max              =   3.1291254534646E+00
(PID.TID 0000.0001) %MON dynstat_eta_min              =  -1.2461642155545E+01
(PID.TID 0000.0001) %MON dynstat_eta_mean             =   6.2534883722207E-02
(PID.TID 0000.0001) %MON dynstat_eta_sd               =   8.2597042893728E-01
(PID.TID 0000.0001) %MON dynstat_eta_del2             =   2.0478645535009E-03
(PID.TID 0000.0001) %MON dynstat_uvel_max             =   1.9070709337161E+00
(PID.TID 0000.0001) %MON dynstat_uvel_min             =  -1.4833474984376E+00
(PID.TID 0000.0001) %MON dynstat_uvel_mean            =   1.1941173267224E-03
(PID.TID 0000.0001) %MON dynstat_uvel_sd              =   3.0777082690871E-02
(PID.TID 0000.0001) %MON dynstat_uvel_del2            =   2.5008436411310E-05
(PID.TID 0000.0001) %MON dynstat_vvel_max             =   1.5419286520243E+00
(PID.TID 0000.0001) %MON dynstat_vvel_min             =  -1.8374014702170E+00
(PID.TID 0000.0001) %MON dynstat_vvel_mean            =  -8.4810874167867E-05
(PID.TID 0000.0001) %MON dynstat_vvel_sd              =   3.0150589653056E-02
(PID.TID 0000.0001) %MON dynstat_vvel_del2            =   2.4795921044456E-05
(PID.TID 0000.0001) %MON dynstat_wvel_max             =   6.4853968768797E-03
(PID.TID 0000.0001) %MON dynstat_wvel_min             =  -7.8519386302016E-03
(PID.TID 0000.0001) %MON dynstat_wvel_mean            =  -1.1452153520856E-08
(PID.TID 0000.0001) %MON dynstat_wvel_sd              =   7.7550047865798E-05
(PID.TID 0000.0001) %MON dynstat_wvel_del2            =   1.5113219998377E-07
(PID.TID 0000.0001) %MON dynstat_theta_max            =   3.2411598157273E+01
(PID.TID 0000.0001) %MON dynstat_theta_min            =  -2.0159354107192E+00
(PID.TID 0000.0001) %MON dynstat_theta_mean           =   3.5922530887595E+00
(PID.TID 0000.0001) %MON dynstat_theta_sd             =   4.4423205544810E+00
(PID.TID 0000.0001) %MON dynstat_theta_del2           =   1.1809020441220E-04
(PID.TID 0000.0001) %MON dynstat_salt_max             =   4.0655995864841E+01
(PID.TID 0000.0001) %MON dynstat_salt_min             =   1.6246479999636E+01
(PID.TID 0000.0001) %MON dynstat_salt_mean            =   3.4724859317236E+01
(PID.TID 0000.0001) %MON dynstat_salt_sd              =   3.7953773846981E-01
(PID.TID 0000.0001) %MON dynstat_salt_del2            =   7.8236726698983E-05
(PID.TID 0000.0001) %MON dynstat_sst_max              =   3.2411598157273E+01
(PID.TID 0000.0001) %MON dynstat_sst_min              =  -2.0159354107192E+00
(PID.TID 0000.0001) %MON dynstat_sst_mean             =   1.8177733905642E+01
(PID.TID 0000.0001) %MON dynstat_sst_sd               =   1.0144704183815E+01
(PID.TID 0000.0001) %MON dynstat_sst_del2             =   1.1546694705464E-03
(PID.TID 0000.0001) %MON dynstat_sss_max              =   3.9481224670214E+01
(PID.TID 0000.0001) %MON dynstat_sss_min              =   1.6246479999636E+01
(PID.TID 0000.0001) %MON dynstat_sss_mean             =   3.4653495604833E+01
(PID.TID 0000.0001) %MON dynstat_sss_sd               =   1.2812327220880E+00
(PID.TID 0000.0001) %MON dynstat_sss_del2             =   1.4815398055536E-03
(PID.TID 0000.0001) %MON forcing_qnet_max             =   3.3607209077552E+03
(PID.TID 0000.0001) %MON forcing_qnet_min             =  -3.3256503906250E+03
(PID.TID 0000.0001) %MON forcing_qnet_mean            =   1.6318005178694E+01
(PID.TID 0000.0001) %MON forcing_qnet_sd              =   2.4861979596904E+02
(PID.TID 0000.0001) %MON forcing_qnet_del2            =   9.4980071238709E-01
(PID.TID 0000.0001) %MON forcing_qsw_max              =   0.0000000000000E+00
(PID.TID 0000.0001) %MON forcing_qsw_min              =  -1.1190679785249E+02
(PID.TID 0000.0001) %MON forcing_qsw_mean             =  -1.4674080823456E+01
(PID.TID 0000.0001) %MON forcing_qsw_sd               =   2.6575873865292E+01
(PID.TID 0000.0001) %MON forcing_qsw_del2             =   1.9653531608079E-02
(PID.TID 0000.0001) %MON forcing_empmr_max            =   3.2799180597067E-02
(PID.TID 0000.0001) %MON forcing_empmr_min            =  -4.8864200711250E-02
(PID.TID 0000.0001) %MON forcing_empmr_mean           =   1.5921204894933E-05
(PID.TID 0000.0001) %MON forcing_empmr_sd             =   4.7755807688043E-04
(PID.TID 0000.0001) %MON forcing_empmr_del2           =   5.4195774253680E-06
(PID.TID 0000.0001) %MON forcing_fu_max               =   1.0314534467181E+00
(PID.TID 0000.0001) %MON forcing_fu_min               =  -8.2785280328058E-01
(PID.TID 0000.0001) %MON forcing_fu_mean              =   8.4099343106933E-03
(PID.TID 0000.0001) %MON forcing_fu_sd                =   1.1425051886316E-01
(PID.TID 0000.0001) %MON forcing_fu_del2              =   1.5161126113755E-04
(PID.TID 0000.0001) %MON forcing_fv_max               =   1.5153026415753E+00
(PID.TID 0000.0001) %MON forcing_fv_min               =  -1.5694288463616E+00
(PID.TID 0000.0001) %MON forcing_fv_mean              =  -1.4411602367347E-03
(PID.TID 0000.0001) %MON forcing_fv_sd                =   1.1006179623551E-01
(PID.TID 0000.0001) %MON forcing_fv_del2              =   1.6211745336080E-04
(PID.TID 0000.0001) %MON trAdv_CFL_u_max              =   1.5951142396679E-02
(PID.TID 0000.0001) %MON trAdv_CFL_v_max              =   2.0398196077148E-02
(PID.TID 0000.0001) %MON trAdv_CFL_w_max              =   9.7522404223606E-02
(PID.TID 0000.0001) %MON advcfl_uvel_max              =   1.5776163686719E-02
(PID.TID 0000.0001) %MON advcfl_vvel_max              =   2.0378005797324E-02
(PID.TID 0000.0001) %MON advcfl_wvel_max              =   9.6519971287387E-02
(PID.TID 0000.0001) %MON advcfl_W_hf_max              =   9.7522404223606E-02
(PID.TID 0000.0001) %MON pe_b_mean                    =   1.8586207521035E-03
(PID.TID 0000.0001) %MON ke_max                       =   1.9325836736197E+00
(PID.TID 0000.0001) %MON ke_mean                      =   8.9577376137080E-04
(PID.TID 0000.0001) %MON ke_vol                       =   1.3350064351420E+18
(PID.TID 0000.0001) %MON vort_r_min                   =  -6.2367823539634E-05
(PID.TID 0000.0001) %MON vort_r_max                   =   5.8593137209610E-05
(PID.TID 0000.0001) %MON vort_a_mean                  =  -1.9725069470811E-05
(PID.TID 0000.0001) %MON vort_a_sd                    =   7.4538665433355E-05
(PID.TID 0000.0001) %MON vort_p_mean                  =  -2.1669073700725E-05
(PID.TID 0000.0001) %MON vort_p_sd                    =   9.3607822948235E-05
(PID.TID 0000.0001) %MON surfExpan_theta_mean         =   2.2854500454664E-05
(PID.TID 0000.0001) %MON surfExpan_salt_mean          =   3.9390787959536E-06
(PID.TID 0000.0001) // =======================================================
(PID.TID 0000.0001) // End MONITOR dynamic field statistics
(PID.TID 0000.0001) // =======================================================
(PID.TID 0000.0001) // =======================================================
(PID.TID 0000.0001) // Begin MONITOR SEAICE statistics
(PID.TID 0000.0001) // =======================================================
(PID.TID 0000.0001) %MON seaice_tsnumber              =                174659
(PID.TID 0000.0001) %MON seaice_time_sec              =   7.8596550000000E+07
(PID.TID 0000.0001) %MON seaice_uice_max              =   1.8802451757535E+00
(PID.TID 0000.0001) %MON seaice_uice_min              =  -1.4238102784830E+00
(PID.TID 0000.0001) %MON seaice_uice_mean             =  -5.0343797295525E-04
(PID.TID 0000.0001) %MON seaice_uice_sd               =   1.6833243419584E-01
(PID.TID 0000.0001) %MON seaice_uice_del2             =   3.6367315632036E-04
(PID.TID 0000.0001) %MON seaice_vice_max              =   1.5205053835442E+00
(PID.TID 0000.0001) %MON seaice_vice_min              =  -1.5743434651129E+00
(PID.TID 0000.0001) %MON seaice_vice_mean             =  -2.7981738830730E-02
(PID.TID 0000.0001) %MON seaice_vice_sd               =   1.7367345525801E-01
(PID.TID 0000.0001) %MON seaice_vice_del2             =   3.6766916267178E-04
(PID.TID 0000.0001) %MON seaice_area_max              =   1.0063293326288E+00
(PID.TID 0000.0001) %MON seaice_area_min              =   0.0000000000000E+00
(PID.TID 0000.0001) %MON seaice_area_mean             =   5.7239693645202E-02
(PID.TID 0000.0001) %MON seaice_area_sd               =   2.2187610587721E-01
(PID.TID 0000.0001) %MON seaice_area_del2             =   3.3649661021167E-04
(PID.TID 0000.0001) %MON seaice_heff_max              =   9.9497121269407E+00
(PID.TID 0000.0001) %MON seaice_heff_min              =   0.0000000000000E+00
(PID.TID 0000.0001) %MON seaice_heff_mean             =   1.5016424042236E-01
(PID.TID 0000.0001) %MON seaice_heff_sd               =   7.2189436130899E-01
(PID.TID 0000.0001) %MON seaice_heff_del2             =   1.5418664805850E-03
(PID.TID 0000.0001) %MON seaice_hsnow_max             =   3.2864093841914E+00
(PID.TID 0000.0001) %MON seaice_hsnow_min             =   0.0000000000000E+00
(PID.TID 0000.0001) %MON seaice_hsnow_mean            =   1.2757981357198E-02
(PID.TID 0000.0001) %MON seaice_hsnow_sd              =   6.9559292749105E-02
(PID.TID 0000.0001) %MON seaice_hsnow_del2            =   4.3344158314876E-04
(PID.TID 0000.0001) // =======================================================
(PID.TID 0000.0001) // End MONITOR SEAICE statistics
(PID.TID 0000.0001) // =======================================================
(PID.TID 0000.0001) // =======================================================
(PID.TID 0000.0001) // Begin MONITOR dynamic field statistics
(PID.TID 0000.0001) // =======================================================
(PID.TID 0000.0001) %MON time_tsnumber                =                174660
(PID.TID 0000.0001) %MON time_secondsf                =   7.8597000000000E+07
(PID.TID 0000.0001) %MON dynstat_eta_max              =   3.0893981553700E+00
(PID.TID 0000.0001) %MON dynstat_eta_min              =  -1.2338605317147E+01
(PID.TID 0000.0001) %MON dynstat_eta_mean             =   6.2578087882795E-02
(PID.TID 0000.0001) %MON dynstat_eta_sd               =   8.2690417125625E-01
(PID.TID 0000.0001) %MON dynstat_eta_del2             =   2.0474383784506E-03
(PID.TID 0000.0001) %MON dynstat_uvel_max             =   1.9032072169475E+00
(PID.TID 0000.0001) %MON dynstat_uvel_min             =  -1.5094420796525E+00
(PID.TID 0000.0001) %MON dynstat_uvel_mean            =   1.2539543759451E-03
(PID.TID 0000.0001) %MON dynstat_uvel_sd              =   3.0802262639695E-02
(PID.TID 0000.0001) %MON dynstat_uvel_del2            =   2.5062995660911E-05
(PID.TID 0000.0001) %MON dynstat_vvel_max             =   1.5540857200317E+00
(PID.TID 0000.0001) %MON dynstat_vvel_min             =  -1.8262709422556E+00
(PID.TID 0000.0001) %MON dynstat_vvel_mean            =  -1.2424139432294E-05
(PID.TID 0000.0001) %MON dynstat_vvel_sd              =   3.0171590725454E-02
(PID.TID 0000.0001) %MON dynstat_vvel_del2            =   2.4833094404108E-05
(PID.TID 0000.0001) %MON dynstat_wvel_max             =   6.5721430943539E-03
(PID.TID 0000.0001) %MON dynstat_wvel_min             =  -7.9418697989388E-03
(PID.TID 0000.0001) %MON dynstat_wvel_mean            =   6.4624664248868E-09
(PID.TID 0000.0001) %MON dynstat_wvel_sd              =   7.7839532535071E-05
(PID.TID 0000.0001) %MON dynstat_wvel_del2            =   1.5234319249265E-07
(PID.TID 0000.0001) %MON dynstat_theta_max            =   3.2411576487318E+01
(PID.TID 0000.0001) %MON dynstat_theta_min            =  -2.0161296855079E+00
(PID.TID 0000.0001) %MON dynstat_theta_mean           =   3.5922499952989E+00
(PID.TID 0000.0001) %MON dynstat_theta_sd             =   4.4423136341928E+00
(PID.TID 0000.0001) %MON dynstat_theta_del2           =   1.1810547047098E-04
(PID.TID 0000.0001) %MON dynstat_salt_max             =   4.0655995864811E+01
(PID.TID 0000.0001) %MON dynstat_salt_min             =   1.6244373045310E+01
(PID.TID 0000.0001) %MON dynstat_salt_mean            =   3.4724858819801E+01
(PID.TID 0000.0001) %MON dynstat_salt_sd              =   3.7954007585255E-01
(PID.TID 0000.0001) %MON dynstat_salt_del2            =   7.8077642601511E-05
(PID.TID 0000.0001) %MON dynstat_sst_max              =   3.2411576487318E+01
(PID.TID 0000.0001) %MON dynstat_sst_min              =  -2.0161296855079E+00
(PID.TID 0000.0001) %MON dynstat_sst_mean             =   1.8177546401029E+01
(PID.TID 0000.0001) %MON dynstat_sst_sd               =   1.0144926002809E+01
(PID.TID 0000.0001) %MON dynstat_sst_del2             =   1.1540332526194E-03
(PID.TID 0000.0001) %MON dynstat_sss_max              =   3.9480769536693E+01
(PID.TID 0000.0001) %MON dynstat_sss_min              =   1.6244373045310E+01
(PID.TID 0000.0001) %MON dynstat_sss_mean             =   3.4653388673580E+01
(PID.TID 0000.0001) %MON dynstat_sss_sd               =   1.2813904904882E+00
(PID.TID 0000.0001) %MON dynstat_sss_del2             =   1.4801469560472E-03
(PID.TID 0000.0001) %MON forcing_qnet_max             =   3.4839167845481E+03
(PID.TID 0000.0001) %MON forcing_qnet_min             =  -1.8670751953125E+03
(PID.TID 0000.0001) %MON forcing_qnet_mean            =   1.6897083032916E+01
(PID.TID 0000.0001) %MON forcing_qnet_sd              =   2.4606006831460E+02
(PID.TID 0000.0001) %MON forcing_qnet_del2            =   8.9199723583132E-01
(PID.TID 0000.0001) %MON forcing_qsw_max              =   0.0000000000000E+00
(PID.TID 0000.0001) %MON forcing_qsw_min              =  -1.1183540476378E+02
(PID.TID 0000.0001) %MON forcing_qsw_mean             =  -1.4639960228855E+01
(PID.TID 0000.0001) %MON forcing_qsw_sd               =   2.6390976185808E+01
(PID.TID 0000.0001) %MON forcing_qsw_del2             =   1.9640719462813E-02
(PID.TID 0000.0001) %MON forcing_empmr_max            =   3.2825198024511E-02
(PID.TID 0000.0001) %MON forcing_empmr_min            =  -4.7676868736744E-02
(PID.TID 0000.0001) %MON forcing_empmr_mean           =   1.5985571049393E-05
(PID.TID 0000.0001) %MON forcing_empmr_sd             =   4.6992442954322E-04
(PID.TID 0000.0001) %MON forcing_empmr_del2           =   5.3240916655722E-06
(PID.TID 0000.0001) %MON forcing_fu_max               =   9.8515154700697E-01
(PID.TID 0000.0001) %MON forcing_fu_min               =  -8.1054751008237E-01
(PID.TID 0000.0001) %MON forcing_fu_mean              =   8.4054431512073E-03
(PID.TID 0000.0001) %MON forcing_fu_sd                =   1.1434593570841E-01
(PID.TID 0000.0001) %MON forcing_fu_del2              =   1.5045840534383E-04
(PID.TID 0000.0001) %MON forcing_fv_max               =   1.5005156635837E+00
(PID.TID 0000.0001) %MON forcing_fv_min               =  -1.5411483644548E+00
(PID.TID 0000.0001) %MON forcing_fv_mean              =  -1.4318825247726E-03
(PID.TID 0000.0001) %MON forcing_fv_sd                =   1.0999175345755E-01
(PID.TID 0000.0001) %MON forcing_fv_del2              =   1.6084313298600E-04
(PID.TID 0000.0001) %MON trAdv_CFL_u_max              =   1.5918825456985E-02
(PID.TID 0000.0001) %MON trAdv_CFL_v_max              =   2.0388457221073E-02
(PID.TID 0000.0001) %MON trAdv_CFL_w_max              =   9.6893747720015E-02
(PID.TID 0000.0001) %MON advcfl_uvel_max              =   1.5777642381821E-02
(PID.TID 0000.0001) %MON advcfl_vvel_max              =   2.0368276580838E-02
(PID.TID 0000.0001) %MON advcfl_wvel_max              =   9.5897776744919E-02
(PID.TID 0000.0001) %MON advcfl_W_hf_max              =   9.6893747720015E-02
(PID.TID 0000.0001) %MON pe_b_mean                    =   1.8584791237033E-03
(PID.TID 0000.0001) %MON ke_max                       =   1.9343421841177E+00
(PID.TID 0000.0001) %MON ke_mean                      =   8.9719945744451E-04
(PID.TID 0000.0001) %MON ke_vol                       =   1.3350064351420E+18
(PID.TID 0000.0001) %MON vort_r_min                   =  -6.3214458255742E-05
(PID.TID 0000.0001) %MON vort_r_max                   =   5.9463368627007E-05
(PID.TID 0000.0001) %MON vort_a_mean                  =  -1.9725068449249E-05
(PID.TID 0000.0001) %MON vort_a_sd                    =   7.4538679708726E-05
(PID.TID 0000.0001) %MON vort_p_mean                  =  -2.1669072578483E-05
(PID.TID 0000.0001) %MON vort_p_sd                    =   9.3607844204718E-05
(PID.TID 0000.0001) %MON surfExpan_theta_mean         =   2.3230547516554E-05
(PID.TID 0000.0001) %MON surfExpan_salt_mean          =   4.6081267087993E-06
(PID.TID 0000.0001) // =======================================================
(PID.TID 0000.0001) // End MONITOR dynamic field statistics
(PID.TID 0000.0001) // =======================================================
(PID.TID 0000.0001) // =======================================================
(PID.TID 0000.0001) // Begin MONITOR SEAICE statistics
(PID.TID 0000.0001) // =======================================================
(PID.TID 0000.0001) %MON seaice_tsnumber              =                174660
(PID.TID 0000.0001) %MON seaice_time_sec              =   7.8597000000000E+07
(PID.TID 0000.0001) %MON seaice_uice_max              =   1.8819435878646E+00
(PID.TID 0000.0001) %MON seaice_uice_min              =  -1.3913642027453E+00
(PID.TID 0000.0001) %MON seaice_uice_mean             =  -3.8191428019230E-04
(PID.TID 0000.0001) %MON seaice_uice_sd               =   1.6818140720113E-01
(PID.TID 0000.0001) %MON seaice_uice_del2             =   3.6189134499131E-04
(PID.TID 0000.0001) %MON seaice_vice_max              =   1.5419286520243E+00
(PID.TID 0000.0001) %MON seaice_vice_min              =  -1.5798128215151E+00
(PID.TID 0000.0001) %MON seaice_vice_mean             =  -2.7871045202467E-02
(PID.TID 0000.0001) %MON seaice_vice_sd               =   1.7345080738806E-01
(PID.TID 0000.0001) %MON seaice_vice_del2             =   3.6616957461230E-04
(PID.TID 0000.0001) %MON seaice_area_max              =   1.0064702127466E+00
(PID.TID 0000.0001) %MON seaice_area_min              =   0.0000000000000E+00
(PID.TID 0000.0001) %MON seaice_area_mean             =   5.7240183732811E-02
(PID.TID 0000.0001) %MON seaice_area_sd               =   2.2186879206050E-01
(PID.TID 0000.0001) %MON seaice_area_del2             =   3.3590479048265E-04
(PID.TID 0000.0001) %MON seaice_heff_max              =   9.9496872952532E+00
(PID.TID 0000.0001) %MON seaice_heff_min              =   0.0000000000000E+00
(PID.TID 0000.0001) %MON seaice_heff_mean             =   1.5016162948906E-01
(PID.TID 0000.0001) %MON seaice_heff_sd               =   7.2188763532017E-01
(PID.TID 0000.0001) %MON seaice_heff_del2             =   1.5398123142338E-03
(PID.TID 0000.0001) %MON seaice_hsnow_max             =   3.2864012988789E+00
(PID.TID 0000.0001) %MON seaice_hsnow_min             =   0.0000000000000E+00
(PID.TID 0000.0001) %MON seaice_hsnow_mean            =   1.2757534530186E-02
(PID.TID 0000.0001) %MON seaice_hsnow_sd              =   6.9547603200420E-02
(PID.TID 0000.0001) %MON seaice_hsnow_del2            =   4.3280453082957E-04
(PID.TID 0000.0001) // =======================================================
(PID.TID 0000.0001) // End MONITOR SEAICE statistics
(PID.TID 0000.0001) // =======================================================
(PID.TID 0000.0001) // =======================================================
(PID.TID 0000.0001) // Begin MONITOR dynamic field statistics
(PID.TID 0000.0001) // =======================================================
(PID.TID 0000.0001) %MON time_tsnumber                =                174661
(PID.TID 0000.0001) %MON time_secondsf                =   7.8597450000000E+07
(PID.TID 0000.0001) %MON dynstat_eta_max              =   3.0153350993748E+00
(PID.TID 0000.0001) %MON dynstat_eta_min              =  -1.2183810238220E+01
(PID.TID 0000.0001) %MON dynstat_eta_mean             =   6.2628716084589E-02
(PID.TID 0000.0001) %MON dynstat_eta_sd               =   8.2782013002512E-01
(PID.TID 0000.0001) %MON dynstat_eta_del2             =   2.0473075149821E-03
(PID.TID 0000.0001) %MON dynstat_uvel_max             =   1.8995855377634E+00
(PID.TID 0000.0001) %MON dynstat_uvel_min             =  -1.5355665102360E+00
(PID.TID 0000.0001) %MON dynstat_uvel_mean            =   1.3146850908471E-03
(PID.TID 0000.0001) %MON dynstat_uvel_sd              =   3.0826515033456E-02
(PID.TID 0000.0001) %MON dynstat_uvel_del2            =   2.5119636449514E-05
(PID.TID 0000.0001) %MON dynstat_vvel_max             =   1.5572301467438E+00
(PID.TID 0000.0001) %MON dynstat_vvel_min             =  -1.8155960749852E+00
(PID.TID 0000.0001) %MON dynstat_vvel_mean            =   5.9857493802780E-05
(PID.TID 0000.0001) %MON dynstat_vvel_sd              =   3.0192056763519E-02
(PID.TID 0000.0001) %MON dynstat_vvel_del2            =   2.4863905498436E-05
(PID.TID 0000.0001) %MON dynstat_wvel_max             =   6.6612725014282E-03
(PID.TID 0000.0001) %MON dynstat_wvel_min             =  -8.0351253229346E-03
(PID.TID 0000.0001) %MON dynstat_wvel_mean            =   2.2626557022201E-08
(PID.TID 0000.0001) %MON dynstat_wvel_sd              =   7.8129445059563E-05
(PID.TID 0000.0001) %MON dynstat_wvel_del2            =   1.5354632017972E-07
(PID.TID 0000.0001) %MON dynstat_theta_max            =   3.2411382114370E+01
(PID.TID 0000.0001) %MON dynstat_theta_min            =  -2.0162600640573E+00
(PID.TID 0000.0001) %MON dynstat_theta_mean           =   3.5922468909313E+00
(PID.TID 0000.0001) %MON dynstat_theta_sd             =   4.4423067494601E+00
(PID.TID 0000.0001) %MON dynstat_theta_del2           =   1.1811440775478E-04
(PID.TID 0000.0001) %MON dynstat_salt_max             =   4.0655995864779E+01
(PID.TID 0000.0001) %MON dynstat_salt_min             =   1.6242559506354E+01
(PID.TID 0000.0001) %MON dynstat_salt_mean            =   3.4724858325064E+01
(PID.TID 0000.0001) %MON dynstat_salt_sd              =   3.7954242986792E-01
(PID.TID 0000.0001) %MON dynstat_salt_del2            =   7.7918188342768E-05
(PID.TID 0000.0001) %MON dynstat_sst_max              =   3.2411382114370E+01
(PID.TID 0000.0001) %MON dynstat_sst_min              =  -2.0162600640573E+00
(PID.TID 0000.0001) %MON dynstat_sst_mean             =   1.8177352328684E+01
(PID.TID 0000.0001) %MON dynstat_sst_sd               =   1.0145133825757E+01
(PID.TID 0000.0001) %MON dynstat_sst_del2             =   1.1534387804060E-03
(PID.TID 0000.0001) %MON dynstat_sss_max              =   3.9480294489390E+01
(PID.TID 0000.0001) %MON dynstat_sss_min              =   1.6242559506354E+01
(PID.TID 0000.0001) %MON dynstat_sss_mean             =   3.4653282043441E+01
(PID.TID 0000.0001) %MON dynstat_sss_sd               =   1.2815475130609E+00
(PID.TID 0000.0001) %MON dynstat_sss_del2             =   1.4787447871915E-03
(PID.TID 0000.0001) %MON forcing_qnet_max             =   3.5747135523455E+03
(PID.TID 0000.0001) %MON forcing_qnet_min             =  -1.9261877441406E+03
(PID.TID 0000.0001) %MON forcing_qnet_mean            =   1.5997703437489E+01
(PID.TID 0000.0001) %MON forcing_qnet_sd              =   2.4473317817237E+02
(PID.TID 0000.0001) %MON forcing_qnet_del2            =   8.9825700239225E-01
(PID.TID 0000.0001) %MON forcing_qsw_max              =   0.0000000000000E+00
(PID.TID 0000.0001) %MON forcing_qsw_min              =  -1.1254733834908E+02
(PID.TID 0000.0001) %MON forcing_qsw_mean             =  -1.4720032255846E+01
(PID.TID 0000.0001) %MON forcing_qsw_sd               =   2.6008271292399E+01
(PID.TID 0000.0001) %MON forcing_qsw_del2             =   2.0006642168238E-02
(PID.TID 0000.0001) %MON forcing_empmr_max            =   3.2843708992004E-02
(PID.TID 0000.0001) %MON forcing_empmr_min            =  -4.6824861317873E-02
(PID.TID 0000.0001) %MON forcing_empmr_mean           =   1.6062922658355E-05
(PID.TID 0000.0001) %MON forcing_empmr_sd             =   4.6274787930853E-04
(PID.TID 0000.0001) %MON forcing_empmr_del2           =   5.2450720309628E-06
(PID.TID 0000.0001) %MON forcing_fu_max               =   8.9232185021326E-01
(PID.TID 0000.0001) %MON forcing_fu_min               =  -7.9256285875132E-01
(PID.TID 0000.0001) %MON forcing_fu_mean              =   8.3977088424403E-03
(PID.TID 0000.0001) %MON forcing_fu_sd                =   1.1441616107105E-01
(PID.TID 0000.0001) %MON forcing_fu_del2              =   1.4917327499115E-04
(PID.TID 0000.0001) %MON forcing_fv_max               =   1.4483205560541E+00
(PID.TID 0000.0001) %MON forcing_fv_min               =  -1.5107630747213E+00
(PID.TID 0000.0001) %MON forcing_fv_mean              =  -1.4260292329264E-03
(PID.TID 0000.0001) %MON forcing_fv_sd                =   1.0989103635437E-01
(PID.TID 0000.0001) %MON forcing_fv_del2              =   1.5924951635736E-04
(PID.TID 0000.0001) %MON trAdv_CFL_u_max              =   1.5888532970555E-02
(PID.TID 0000.0001) %MON trAdv_CFL_v_max              =   2.0031467444351E-02
(PID.TID 0000.0001) %MON trAdv_CFL_w_max              =   9.6075508301611E-02
(PID.TID 0000.0001) %MON advcfl_uvel_max              =   1.6050711437423E-02
(PID.TID 0000.0001) %MON advcfl_vvel_max              =   2.0011640155141E-02
(PID.TID 0000.0001) %MON advcfl_wvel_max              =   9.5087948010698E-02
(PID.TID 0000.0001) %MON advcfl_W_hf_max              =   9.6075508301611E-02
(PID.TID 0000.0001) %MON pe_b_mean                    =   1.8585492546952E-03
(PID.TID 0000.0001) %MON ke_max                       =   1.9388094697157E+00
(PID.TID 0000.0001) %MON ke_mean                      =   8.9859267054267E-04
(PID.TID 0000.0001) %MON ke_vol                       =   1.3350064351420E+18
(PID.TID 0000.0001) %MON vort_r_min                   =  -6.4054292485519E-05
(PID.TID 0000.0001) %MON vort_r_max                   =   6.0327504499925E-05
(PID.TID 0000.0001) %MON vort_a_mean                  =  -1.9725067494897E-05
(PID.TID 0000.0001) %MON vort_a_sd                    =   7.4538694741085E-05
(PID.TID 0000.0001) %MON vort_p_mean                  =  -2.1669071530074E-05
(PID.TID 0000.0001) %MON vort_p_sd                    =   9.3607869924711E-05
(PID.TID 0000.0001) %MON surfExpan_theta_mean         =   2.3534837437711E-05
(PID.TID 0000.0001) %MON surfExpan_salt_mean          =   5.1850327169665E-06
(PID.TID 0000.0001) // =======================================================
(PID.TID 0000.0001) // End MONITOR dynamic field statistics
(PID.TID 0000.0001) // =======================================================
(PID.TID 0000.0001) // =======================================================
(PID.TID 0000.0001) // Begin MONITOR SEAICE statistics
(PID.TID 0000.0001) // =======================================================
(PID.TID 0000.0001) %MON seaice_tsnumber              =                174661
(PID.TID 0000.0001) %MON seaice_time_sec              =   7.8597450000000E+07
(PID.TID 0000.0001) %MON seaice_uice_max              =   1.8834307675485E+00
(PID.TID 0000.0001) %MON seaice_uice_min              =  -1.3602364922241E+00
(PID.TID 0000.0001) %MON seaice_uice_mean             =  -2.5867112101807E-04
(PID.TID 0000.0001) %MON seaice_uice_sd               =   1.6800372212661E-01
(PID.TID 0000.0001) %MON seaice_uice_del2             =   3.5993713466382E-04
(PID.TID 0000.0001) %MON seaice_vice_max              =   1.5540857200317E+00
(PID.TID 0000.0001) %MON seaice_vice_min              =  -1.5854728000270E+00
(PID.TID 0000.0001) %MON seaice_vice_mean             =  -2.7756107240877E-02
(PID.TID 0000.0001) %MON seaice_vice_sd               =   1.7322615900816E-01
(PID.TID 0000.0001) %MON seaice_vice_del2             =   3.6415055760340E-04
(PID.TID 0000.0001) %MON seaice_area_max              =   1.0066013942720E+00
(PID.TID 0000.0001) %MON seaice_area_min              =   0.0000000000000E+00
(PID.TID 0000.0001) %MON seaice_area_mean             =   5.7240682241793E-02
(PID.TID 0000.0001) %MON seaice_area_sd               =   2.2186146228932E-01
(PID.TID 0000.0001) %MON seaice_area_del2             =   3.3532633287614E-04
(PID.TID 0000.0001) %MON seaice_heff_max              =   9.9496586502688E+00
(PID.TID 0000.0001) %MON seaice_heff_min              =   0.0000000000000E+00
(PID.TID 0000.0001) %MON seaice_heff_mean             =   1.5015896102771E-01
(PID.TID 0000.0001) %MON seaice_heff_sd               =   7.2188085525779E-01
(PID.TID 0000.0001) %MON seaice_heff_del2             =   1.5378155495310E-03
(PID.TID 0000.0001) %MON seaice_hsnow_max             =   3.2863924587857E+00
(PID.TID 0000.0001) %MON seaice_hsnow_min             =   0.0000000000000E+00
(PID.TID 0000.0001) %MON seaice_hsnow_mean            =   1.2757057594769E-02
(PID.TID 0000.0001) %MON seaice_hsnow_sd              =   6.9536015443665E-02
(PID.TID 0000.0001) %MON seaice_hsnow_del2            =   4.3218021567294E-04
(PID.TID 0000.0001) // =======================================================
(PID.TID 0000.0001) // End MONITOR SEAICE statistics
(PID.TID 0000.0001) // =======================================================
(PID.TID 0000.0001) // =======================================================
(PID.TID 0000.0001) // Begin MONITOR dynamic field statistics
(PID.TID 0000.0001) // =======================================================
(PID.TID 0000.0001) %MON time_tsnumber                =                174662
(PID.TID 0000.0001) %MON time_secondsf                =   7.8597900000000E+07
(PID.TID 0000.0001) %MON dynstat_eta_max              =   2.9071667280528E+00
(PID.TID 0000.0001) %MON dynstat_eta_min              =  -1.1999713124339E+01
(PID.TID 0000.0001) %MON dynstat_eta_mean             =   6.2686666206165E-02
(PID.TID 0000.0001) %MON dynstat_eta_sd               =   8.2870976119160E-01
(PID.TID 0000.0001) %MON dynstat_eta_del2             =   2.0474032969976E-03
(PID.TID 0000.0001) %MON dynstat_uvel_max             =   1.8961354062441E+00
(PID.TID 0000.0001) %MON dynstat_uvel_min             =  -1.5617005168187E+00
(PID.TID 0000.0001) %MON dynstat_uvel_mean            =   1.3756258650074E-03
(PID.TID 0000.0001) %MON dynstat_uvel_sd              =   3.0850044395143E-02
(PID.TID 0000.0001) %MON dynstat_uvel_del2            =   2.5180870344058E-05
(PID.TID 0000.0001) %MON dynstat_vvel_max             =   1.5517651856135E+00
(PID.TID 0000.0001) %MON dynstat_vvel_min             =  -1.8079997772009E+00
(PID.TID 0000.0001) %MON dynstat_vvel_mean            =   1.3161405976270E-04
(PID.TID 0000.0001) %MON dynstat_vvel_sd              =   3.0212530167237E-02
(PID.TID 0000.0001) %MON dynstat_vvel_del2            =   2.4889896269892E-05
(PID.TID 0000.0001) %MON dynstat_wvel_max             =   6.7526126456809E-03
(PID.TID 0000.0001) %MON dynstat_wvel_min             =  -8.1323336693535E-03
(PID.TID 0000.0001) %MON dynstat_wvel_mean            =   3.8375596757869E-08
(PID.TID 0000.0001) %MON dynstat_wvel_sd              =   7.8421728560453E-05
(PID.TID 0000.0001) %MON dynstat_wvel_del2            =   1.5474151755112E-07
(PID.TID 0000.0001) %MON dynstat_theta_max            =   3.2411076827206E+01
(PID.TID 0000.0001) %MON dynstat_theta_min            =  -2.0163133785969E+00
(PID.TID 0000.0001) %MON dynstat_theta_mean           =   3.5922437615484E+00
(PID.TID 0000.0001) %MON dynstat_theta_sd             =   4.4422998877262E+00
(PID.TID 0000.0001) %MON dynstat_theta_del2           =   1.1813027136805E-04
(PID.TID 0000.0001) %MON dynstat_salt_max             =   4.0655995864746E+01
(PID.TID 0000.0001) %MON dynstat_salt_min             =   1.6241059123544E+01
(PID.TID 0000.0001) %MON dynstat_salt_mean            =   3.4724857833582E+01
(PID.TID 0000.0001) %MON dynstat_salt_sd              =   3.7954480930848E-01
(PID.TID 0000.0001) %MON dynstat_salt_del2            =   7.7759436697533E-05
(PID.TID 0000.0001) %MON dynstat_sst_max              =   3.2411076827206E+01
(PID.TID 0000.0001) %MON dynstat_sst_min              =  -2.0163133785969E+00
(PID.TID 0000.0001) %MON dynstat_sst_mean             =   1.8177175583112E+01
(PID.TID 0000.0001) %MON dynstat_sst_sd               =   1.0145351527820E+01
(PID.TID 0000.0001) %MON dynstat_sst_del2             =   1.1527369465807E-03
(PID.TID 0000.0001) %MON dynstat_sss_max              =   3.9479806346110E+01
(PID.TID 0000.0001) %MON dynstat_sss_min              =   1.6241059123544E+01
(PID.TID 0000.0001) %MON dynstat_sss_mean             =   3.4653177363751E+01
(PID.TID 0000.0001) %MON dynstat_sss_sd               =   1.2817084695894E+00
(PID.TID 0000.0001) %MON dynstat_sss_del2             =   1.4773609929422E-03
(PID.TID 0000.0001) %MON forcing_qnet_max             =   3.7194054462793E+03
(PID.TID 0000.0001) %MON forcing_qnet_min             =  -5.8866748046875E+03
(PID.TID 0000.0001) %MON forcing_qnet_mean            =   1.5698095302377E+01
(PID.TID 0000.0001) %MON forcing_qnet_sd              =   2.4409343201548E+02
(PID.TID 0000.0001) %MON forcing_qnet_del2            =   9.5632217883547E-01
(PID.TID 0000.0001) %MON forcing_qsw_max              =   0.0000000000000E+00
(PID.TID 0000.0001) %MON forcing_qsw_min              =  -1.1281574032242E+02
(PID.TID 0000.0001) %MON forcing_qsw_mean             =  -1.4766129370062E+01
(PID.TID 0000.0001) %MON forcing_qsw_sd               =   2.5916756592649E+01
(PID.TID 0000.0001) %MON forcing_qsw_del2             =   2.0086345149716E-02
(PID.TID 0000.0001) %MON forcing_empmr_max            =   3.2952338457108E-02
(PID.TID 0000.0001) %MON forcing_empmr_min            =  -4.8641838133335E-02
(PID.TID 0000.0001) %MON forcing_empmr_mean           =   1.5835636396260E-05
(PID.TID 0000.0001) %MON forcing_empmr_sd             =   4.6101631969256E-04
(PID.TID 0000.0001) %MON forcing_empmr_del2           =   5.1995757234822E-06
(PID.TID 0000.0001) %MON forcing_fu_max               =   7.7670260787745E-01
(PID.TID 0000.0001) %MON forcing_fu_min               =  -7.7351561239006E-01
(PID.TID 0000.0001) %MON forcing_fu_mean              =   8.3984722905160E-03
(PID.TID 0000.0001) %MON forcing_fu_sd                =   1.1449726867209E-01
(PID.TID 0000.0001) %MON forcing_fu_del2              =   1.4778028123629E-04
(PID.TID 0000.0001) %MON forcing_fv_max               =   1.3374302785764E+00
(PID.TID 0000.0001) %MON forcing_fv_min               =  -1.4778322700790E+00
(PID.TID 0000.0001) %MON forcing_fv_mean              =  -1.4216302108889E-03
(PID.TID 0000.0001) %MON forcing_fv_sd                =   1.0979420382013E-01
(PID.TID 0000.0001) %MON forcing_fv_del2              =   1.5752370017708E-04
(PID.TID 0000.0001) %MON trAdv_CFL_u_max              =   1.6108408188792E-02
(PID.TID 0000.0001) %MON trAdv_CFL_v_max              =   1.9315169241183E-02
(PID.TID 0000.0001) %MON trAdv_CFL_w_max              =   9.5096688824456E-02
(PID.TID 0000.0001) %MON advcfl_uvel_max              =   1.6323880587418E-02
(PID.TID 0000.0001) %MON advcfl_vvel_max              =   1.9296050949039E-02
(PID.TID 0000.0001) %MON advcfl_wvel_max              =   9.4119189820387E-02
(PID.TID 0000.0001) %MON advcfl_W_hf_max              =   9.5096688824456E-02
(PID.TID 0000.0001) %MON pe_b_mean                    =   1.8588164622919E-03
(PID.TID 0000.0001) %MON ke_max                       =   1.9461221595125E+00
(PID.TID 0000.0001) %MON ke_mean                      =   8.9997436891251E-04
(PID.TID 0000.0001) %MON ke_vol                       =   1.3350064351420E+18
(PID.TID 0000.0001) %MON vort_r_min                   =  -6.4888800290824E-05
(PID.TID 0000.0001) %MON vort_r_max                   =   6.1187034471162E-05
(PID.TID 0000.0001) %MON vort_a_mean                  =  -1.9725066617312E-05
(PID.TID 0000.0001) %MON vort_a_sd                    =   7.4538710542028E-05
(PID.TID 0000.0001) %MON vort_p_mean                  =  -2.1669070566000E-05
(PID.TID 0000.0001) %MON vort_p_sd                    =   9.3607899556096E-05
(PID.TID 0000.0001) %MON surfExpan_theta_mean         =   2.3798665199448E-05
(PID.TID 0000.0001) %MON surfExpan_salt_mean          =   5.7437531099206E-06
(PID.TID 0000.0001) // =======================================================
(PID.TID 0000.0001) // End MONITOR dynamic field statistics
(PID.TID 0000.0001) // =======================================================
(PID.TID 0000.0001) // =======================================================
(PID.TID 0000.0001) // Begin MONITOR SEAICE statistics
(PID.TID 0000.0001) // =======================================================
(PID.TID 0000.0001) %MON seaice_tsnumber              =                174662
(PID.TID 0000.0001) %MON seaice_time_sec              =   7.8597900000000E+07
(PID.TID 0000.0001) %MON seaice_uice_max              =   1.8843256383114E+00
(PID.TID 0000.0001) %MON seaice_uice_min              =  -1.3980365261908E+00
(PID.TID 0000.0001) %MON seaice_uice_mean             =  -1.3176459935257E-04
(PID.TID 0000.0001) %MON seaice_uice_sd               =   1.6779421921847E-01
(PID.TID 0000.0001) %MON seaice_uice_del2             =   3.5781817856536E-04
(PID.TID 0000.0001) %MON seaice_vice_max              =   1.5572301467438E+00
(PID.TID 0000.0001) %MON seaice_vice_min              =  -1.5907060541153E+00
(PID.TID 0000.0001) %MON seaice_vice_mean             =  -2.7638186544559E-02
(PID.TID 0000.0001) %MON seaice_vice_sd               =   1.7298372878808E-01
(PID.TID 0000.0001) %MON seaice_vice_del2             =   3.6164118488705E-04
(PID.TID 0000.0001) %MON seaice_area_max              =   1.0067332019563E+00
(PID.TID 0000.0001) %MON seaice_area_min              =   0.0000000000000E+00
(PID.TID 0000.0001) %MON seaice_area_mean             =   5.7241197715797E-02
(PID.TID 0000.0001) %MON seaice_area_sd               =   2.2185423729213E-01
(PID.TID 0000.0001) %MON seaice_area_del2             =   3.3476752982383E-04
(PID.TID 0000.0001) %MON seaice_heff_max              =   9.9496319136672E+00
(PID.TID 0000.0001) %MON seaice_heff_min              =   0.0000000000000E+00
(PID.TID 0000.0001) %MON seaice_heff_mean             =   1.5015622891057E-01
(PID.TID 0000.0001) %MON seaice_heff_sd               =   7.2187400399164E-01
(PID.TID 0000.0001) %MON seaice_heff_del2             =   1.5358855468922E-03
(PID.TID 0000.0001) %MON seaice_hsnow_max             =   3.2863836260075E+00
(PID.TID 0000.0001) %MON seaice_hsnow_min             =   0.0000000000000E+00
(PID.TID 0000.0001) %MON seaice_hsnow_mean            =   1.2756585726958E-02
(PID.TID 0000.0001) %MON seaice_hsnow_sd              =   6.9524599232796E-02
(PID.TID 0000.0001) %MON seaice_hsnow_del2            =   4.3157297917042E-04
(PID.TID 0000.0001) // =======================================================
(PID.TID 0000.0001) // End MONITOR SEAICE statistics
(PID.TID 0000.0001) // =======================================================
(PID.TID 0000.0001) // =======================================================
(PID.TID 0000.0001) // Begin MONITOR dynamic field statistics
(PID.TID 0000.0001) // =======================================================
(PID.TID 0000.0001) %MON time_tsnumber                =                174663
(PID.TID 0000.0001) %MON time_secondsf                =   7.8598350000000E+07
(PID.TID 0000.0001) %MON dynstat_eta_max              =   2.9302866053941E+00
(PID.TID 0000.0001) %MON dynstat_eta_min              =  -1.1788953396006E+01
(PID.TID 0000.0001) %MON dynstat_eta_mean             =   6.2751722630357E-02
(PID.TID 0000.0001) %MON dynstat_eta_sd               =   8.2956749915183E-01
(PID.TID 0000.0001) %MON dynstat_eta_del2             =   2.0476514780345E-03
(PID.TID 0000.0001) %MON dynstat_uvel_max             =   1.8927843362237E+00
(PID.TID 0000.0001) %MON dynstat_uvel_min             =  -1.5878290316370E+00
(PID.TID 0000.0001) %MON dynstat_uvel_mean            =   1.4361077200170E-03
(PID.TID 0000.0001) %MON dynstat_uvel_sd              =   3.0872633606076E-02
(PID.TID 0000.0001) %MON dynstat_uvel_del2            =   2.5247583331883E-05
(PID.TID 0000.0001) %MON dynstat_vvel_max             =   1.5382343094455E+00
(PID.TID 0000.0001) %MON dynstat_vvel_min             =  -1.8494234565764E+00
(PID.TID 0000.0001) %MON dynstat_vvel_mean            =   2.0244497692187E-04
(PID.TID 0000.0001) %MON dynstat_vvel_sd              =   3.0232651319194E-02
(PID.TID 0000.0001) %MON dynstat_vvel_del2            =   2.4914895593737E-05
(PID.TID 0000.0001) %MON dynstat_wvel_max             =   6.8459738436107E-03
(PID.TID 0000.0001) %MON dynstat_wvel_min             =  -8.2340378410899E-03
(PID.TID 0000.0001) %MON dynstat_wvel_mean            =   5.3777419881538E-08
(PID.TID 0000.0001) %MON dynstat_wvel_sd              =   7.8717714668770E-05
(PID.TID 0000.0001) %MON dynstat_wvel_del2            =   1.5592909200347E-07
(PID.TID 0000.0001) %MON dynstat_theta_max            =   3.2410701554138E+01
(PID.TID 0000.0001) %MON dynstat_theta_min            =  -2.0162800621975E+00
(PID.TID 0000.0001) %MON dynstat_theta_mean           =   3.5922406048868E+00
(PID.TID 0000.0001) %MON dynstat_theta_sd             =   4.4422930090122E+00
(PID.TID 0000.0001) %MON dynstat_theta_del2           =   1.1814185783493E-04
(PID.TID 0000.0001) %MON dynstat_salt_max             =   4.0655995864711E+01
(PID.TID 0000.0001) %MON dynstat_salt_min             =   1.6239890631231E+01
(PID.TID 0000.0001) %MON dynstat_salt_mean            =   3.4724857347679E+01
(PID.TID 0000.0001) %MON dynstat_salt_sd              =   3.7954717090001E-01
(PID.TID 0000.0001) %MON dynstat_salt_del2            =   7.7600306927202E-05
(PID.TID 0000.0001) %MON dynstat_sst_max              =   3.2410701554138E+01
(PID.TID 0000.0001) %MON dynstat_sst_min              =  -2.0162800621975E+00
(PID.TID 0000.0001) %MON dynstat_sst_mean             =   1.8176989729124E+01
(PID.TID 0000.0001) %MON dynstat_sst_sd               =   1.0145562117952E+01
(PID.TID 0000.0001) %MON dynstat_sst_del2             =   1.1522256544469E-03
(PID.TID 0000.0001) %MON dynstat_sss_max              =   3.9479312646534E+01
(PID.TID 0000.0001) %MON dynstat_sss_min              =   1.6239890631231E+01
(PID.TID 0000.0001) %MON dynstat_sss_mean             =   3.4653073963585E+01
(PID.TID 0000.0001) %MON dynstat_sss_sd               =   1.2818679429912E+00
(PID.TID 0000.0001) %MON dynstat_sss_del2             =   1.4759882748467E-03
(PID.TID 0000.0001) %MON forcing_qnet_max             =   4.1934525852325E+03
(PID.TID 0000.0001) %MON forcing_qnet_min             =  -9.4310722656250E+03
(PID.TID 0000.0001) %MON forcing_qnet_mean            =   1.5656242456668E+01
(PID.TID 0000.0001) %MON forcing_qnet_sd              =   2.4934587556138E+02
(PID.TID 0000.0001) %MON forcing_qnet_del2            =   9.4447203851856E-01
(PID.TID 0000.0001) %MON forcing_qsw_max              =   0.0000000000000E+00
(PID.TID 0000.0001) %MON forcing_qsw_min              =  -1.1297698371813E+02
(PID.TID 0000.0001) %MON forcing_qsw_mean             =  -1.4803946946518E+01
(PID.TID 0000.0001) %MON forcing_qsw_sd               =   2.5822678600940E+01
(PID.TID 0000.0001) %MON forcing_qsw_del2             =   2.0162749806385E-02
(PID.TID 0000.0001) %MON forcing_empmr_max            =   3.3107101917267E-02
(PID.TID 0000.0001) %MON forcing_empmr_min            =  -4.7946020960808E-02
(PID.TID 0000.0001) %MON forcing_empmr_mean           =   1.5505209931396E-05
(PID.TID 0000.0001) %MON forcing_empmr_sd             =   4.5826146659099E-04
(PID.TID 0000.0001) %MON forcing_empmr_del2           =   5.1690511303140E-06
(PID.TID 0000.0001) %MON forcing_fu_max               =   7.6129297817295E-01
(PID.TID 0000.0001) %MON forcing_fu_min               =  -7.5301519623683E-01
(PID.TID 0000.0001) %MON forcing_fu_mean              =   8.3941652531363E-03
(PID.TID 0000.0001) %MON forcing_fu_sd                =   1.1457954543077E-01
(PID.TID 0000.0001) %MON forcing_fu_del2              =   1.4659878482616E-04
(PID.TID 0000.0001) %MON forcing_fv_max               =   1.2416252282712E+00
(PID.TID 0000.0001) %MON forcing_fv_min               =  -1.4419777428516E+00
(PID.TID 0000.0001) %MON forcing_fv_mean              =  -1.4211507673441E-03
(PID.TID 0000.0001) %MON forcing_fv_sd                =   1.0970213883724E-01
(PID.TID 0000.0001) %MON forcing_fv_del2              =   1.5589768497108E-04
(PID.TID 0000.0001) %MON trAdv_CFL_u_max              =   1.6377914907607E-02
(PID.TID 0000.0001) %MON trAdv_CFL_v_max              =   1.8707242515504E-02
(PID.TID 0000.0001) %MON trAdv_CFL_w_max              =   9.3985266733618E-02
(PID.TID 0000.0001) %MON advcfl_uvel_max              =   1.6596992334022E-02
(PID.TID 0000.0001) %MON advcfl_vvel_max              =   1.8774029848001E-02
(PID.TID 0000.0001) %MON advcfl_wvel_max              =   9.3019192038852E-02
(PID.TID 0000.0001) %MON advcfl_W_hf_max              =   9.3985266733618E-02
(PID.TID 0000.0001) %MON pe_b_mean                    =   1.8592690193151E-03
(PID.TID 0000.0001) %MON ke_max                       =   1.9563295571787E+00
(PID.TID 0000.0001) %MON ke_mean                      =   9.0132647742604E-04
(PID.TID 0000.0001) %MON ke_vol                       =   1.3350064351420E+18
(PID.TID 0000.0001) %MON vort_r_min                   =  -6.5719632602628E-05
(PID.TID 0000.0001) %MON vort_r_max                   =   6.2043518582831E-05
(PID.TID 0000.0001) %MON vort_a_mean                  =  -1.9725065824503E-05
(PID.TID 0000.0001) %MON vort_a_sd                    =   7.4538727111776E-05
(PID.TID 0000.0001) %MON vort_p_mean                  =  -2.1669069695055E-05
(PID.TID 0000.0001) %MON vort_p_sd                    =   9.3607931980718E-05
(PID.TID 0000.0001) %MON surfExpan_theta_mean         =   2.4004594843494E-05
(PID.TID 0000.0001) %MON surfExpan_salt_mean          =   6.2779708767593E-06
(PID.TID 0000.0001) // =======================================================
(PID.TID 0000.0001) // End MONITOR dynamic field statistics
(PID.TID 0000.0001) // =======================================================
(PID.TID 0000.0001) // =======================================================
(PID.TID 0000.0001) // Begin MONITOR SEAICE statistics
(PID.TID 0000.0001) // =======================================================
(PID.TID 0000.0001) %MON seaice_tsnumber              =                174663
(PID.TID 0000.0001) %MON seaice_time_sec              =   7.8598350000000E+07
(PID.TID 0000.0001) %MON seaice_uice_max              =   1.8843674586937E+00
(PID.TID 0000.0001) %MON seaice_uice_min              =  -1.4327701896402E+00
(PID.TID 0000.0001) %MON seaice_uice_mean             =  -6.6195453725269E-06
(PID.TID 0000.0001) %MON seaice_uice_sd               =   1.6756423808865E-01
(PID.TID 0000.0001) %MON seaice_uice_del2             =   3.5577106288163E-04
(PID.TID 0000.0001) %MON seaice_vice_max              =   1.5517651856135E+00
(PID.TID 0000.0001) %MON seaice_vice_min              =  -1.5966923869330E+00
(PID.TID 0000.0001) %MON seaice_vice_mean             =  -2.7517641272141E-02
(PID.TID 0000.0001) %MON seaice_vice_sd               =   1.7274757485476E-01
(PID.TID 0000.0001) %MON seaice_vice_del2             =   3.5863805106760E-04
(PID.TID 0000.0001) %MON seaice_area_max              =   1.0068620768786E+00
(PID.TID 0000.0001) %MON seaice_area_min              =   0.0000000000000E+00
(PID.TID 0000.0001) %MON seaice_area_mean             =   5.7241714888819E-02
(PID.TID 0000.0001) %MON seaice_area_sd               =   2.2184703602966E-01
(PID.TID 0000.0001) %MON seaice_area_del2             =   3.3422726224718E-04
(PID.TID 0000.0001) %MON seaice_heff_max              =   9.9496051769117E+00
(PID.TID 0000.0001) %MON seaice_heff_min              =   0.0000000000000E+00
(PID.TID 0000.0001) %MON seaice_heff_mean             =   1.5015344476324E-01
(PID.TID 0000.0001) %MON seaice_heff_sd               =   7.2186705796930E-01
(PID.TID 0000.0001) %MON seaice_heff_del2             =   1.5340158933743E-03
(PID.TID 0000.0001) %MON seaice_hsnow_max             =   3.2863745401768E+00
(PID.TID 0000.0001) %MON seaice_hsnow_min             =   0.0000000000000E+00
(PID.TID 0000.0001) %MON seaice_hsnow_mean            =   1.2756091409420E-02
(PID.TID 0000.0001) %MON seaice_hsnow_sd              =   6.9513291905405E-02
(PID.TID 0000.0001) %MON seaice_hsnow_del2            =   4.3098118438600E-04
(PID.TID 0000.0001) // =======================================================
(PID.TID 0000.0001) // End MONITOR SEAICE statistics
(PID.TID 0000.0001) // =======================================================
(PID.TID 0000.0001) // =======================================================
(PID.TID 0000.0001) // Begin MONITOR dynamic field statistics
(PID.TID 0000.0001) // =======================================================
(PID.TID 0000.0001) %MON time_tsnumber                =                174664
(PID.TID 0000.0001) %MON time_secondsf                =   7.8598800000000E+07
(PID.TID 0000.0001) %MON dynstat_eta_max              =   2.9506249462137E+00
(PID.TID 0000.0001) %MON dynstat_eta_min              =  -1.1554503070062E+01
(PID.TID 0000.0001) %MON dynstat_eta_mean             =   6.2823090273317E-02
(PID.TID 0000.0001) %MON dynstat_eta_sd               =   8.3039086749378E-01
(PID.TID 0000.0001) %MON dynstat_eta_del2             =   2.0479776980795E-03
(PID.TID 0000.0001) %MON dynstat_uvel_max             =   1.8894667754927E+00
(PID.TID 0000.0001) %MON dynstat_uvel_min             =  -1.6139360895377E+00
(PID.TID 0000.0001) %MON dynstat_uvel_mean            =   1.4954753476743E-03
(PID.TID 0000.0001) %MON dynstat_uvel_sd              =   3.0894338228720E-02
(PID.TID 0000.0001) %MON dynstat_uvel_del2            =   2.5321466398467E-05
(PID.TID 0000.0001) %MON dynstat_vvel_max             =   1.5174640515214E+00
(PID.TID 0000.0001) %MON dynstat_vvel_min             =  -1.8920816910068E+00
(PID.TID 0000.0001) %MON dynstat_vvel_mean            =   2.7197373959289E-04
(PID.TID 0000.0001) %MON dynstat_vvel_sd              =   3.0252959694829E-02
(PID.TID 0000.0001) %MON dynstat_vvel_del2            =   2.4939736355852E-05
(PID.TID 0000.0001) %MON dynstat_wvel_max             =   6.9411098848007E-03
(PID.TID 0000.0001) %MON dynstat_wvel_min             =  -8.3405994833404E-03
(PID.TID 0000.0001) %MON dynstat_wvel_mean            =   6.8134776442668E-08
(PID.TID 0000.0001) %MON dynstat_wvel_sd              =   7.9017210556179E-05
(PID.TID 0000.0001) %MON dynstat_wvel_del2            =   1.5710917737519E-07
(PID.TID 0000.0001) %MON dynstat_theta_max            =   3.2410300802571E+01
(PID.TID 0000.0001) %MON dynstat_theta_min            =  -2.0161456445954E+00
(PID.TID 0000.0001) %MON dynstat_theta_mean           =   3.5922374251106E+00
(PID.TID 0000.0001) %MON dynstat_theta_sd             =   4.4422861129120E+00
(PID.TID 0000.0001) %MON dynstat_theta_del2           =   1.1815972637212E-04
(PID.TID 0000.0001) %MON dynstat_salt_max             =   4.0655995864674E+01
(PID.TID 0000.0001) %MON dynstat_salt_min             =   1.6239041834756E+01
(PID.TID 0000.0001) %MON dynstat_salt_mean            =   3.4724856861936E+01
(PID.TID 0000.0001) %MON dynstat_salt_sd              =   3.7954952620521E-01
(PID.TID 0000.0001) %MON dynstat_salt_del2            =   7.7441331523669E-05
(PID.TID 0000.0001) %MON dynstat_sst_max              =   3.2410300802571E+01
(PID.TID 0000.0001) %MON dynstat_sst_min              =  -2.0161456445954E+00
(PID.TID 0000.0001) %MON dynstat_sst_mean             =   1.8176820184718E+01
(PID.TID 0000.0001) %MON dynstat_sst_sd               =   1.0145783587717E+01
(PID.TID 0000.0001) %MON dynstat_sst_del2             =   1.1515026235671E-03
(PID.TID 0000.0001) %MON dynstat_sss_max              =   3.9478821733851E+01
(PID.TID 0000.0001) %MON dynstat_sss_min              =   1.6239041834756E+01
(PID.TID 0000.0001) %MON dynstat_sss_mean             =   3.4652971602952E+01
(PID.TID 0000.0001) %MON dynstat_sss_sd               =   1.2820297529629E+00
(PID.TID 0000.0001) %MON dynstat_sss_del2             =   1.4746146128028E-03
(PID.TID 0000.0001) %MON forcing_qnet_max             =   4.6770266843312E+03
(PID.TID 0000.0001) %MON forcing_qnet_min             =  -8.5438085937500E+03
(PID.TID 0000.0001) %MON forcing_qnet_mean            =   1.5764675100466E+01
(PID.TID 0000.0001) %MON forcing_qnet_sd              =   2.4649718149309E+02
(PID.TID 0000.0001) %MON forcing_qnet_del2            =   1.0254729330884E+00
(PID.TID 0000.0001) %MON forcing_qsw_max              =   0.0000000000000E+00
(PID.TID 0000.0001) %MON forcing_qsw_min              =  -1.1303133457986E+02
(PID.TID 0000.0001) %MON forcing_qsw_mean             =  -1.4833439017700E+01
(PID.TID 0000.0001) %MON forcing_qsw_sd               =   2.5726553521812E+01
(PID.TID 0000.0001) %MON forcing_qsw_del2             =   2.0235636144440E-02
(PID.TID 0000.0001) %MON forcing_empmr_max            =   3.3290296792984E-02
(PID.TID 0000.0001) %MON forcing_empmr_min            =  -4.7469031065702E-02
(PID.TID 0000.0001) %MON forcing_empmr_mean           =   1.5240009567987E-05
(PID.TID 0000.0001) %MON forcing_empmr_sd             =   4.5499680043705E-04
(PID.TID 0000.0001) %MON forcing_empmr_del2           =   5.1358208523135E-06
(PID.TID 0000.0001) %MON forcing_fu_max               =   7.4896928668023E-01
(PID.TID 0000.0001) %MON forcing_fu_min               =  -7.3068316979743E-01
(PID.TID 0000.0001) %MON forcing_fu_mean              =   8.3911750712337E-03
(PID.TID 0000.0001) %MON forcing_fu_sd                =   1.1465732902757E-01
(PID.TID 0000.0001) %MON forcing_fu_del2              =   1.4584739306471E-04
(PID.TID 0000.0001) %MON forcing_fv_max               =   1.2287208002130E+00
(PID.TID 0000.0001) %MON forcing_fv_min               =  -1.4029573528406E+00
(PID.TID 0000.0001) %MON forcing_fv_mean              =  -1.4264727142787E-03
(PID.TID 0000.0001) %MON forcing_fv_sd                =   1.0961950125966E-01
(PID.TID 0000.0001) %MON forcing_fv_del2              =   1.5446594574131E-04
(PID.TID 0000.0001) %MON trAdv_CFL_u_max              =   1.6647200305635E-02
(PID.TID 0000.0001) %MON trAdv_CFL_v_max              =   1.9138738035870E-02
(PID.TID 0000.0001) %MON trAdv_CFL_w_max              =   9.2767388348495E-02
(PID.TID 0000.0001) %MON advcfl_uvel_max              =   1.6869879799365E-02
(PID.TID 0000.0001) %MON advcfl_vvel_max              =   1.9207065864502E-02
(PID.TID 0000.0001) %MON advcfl_wvel_max              =   9.1813832227438E-02
(PID.TID 0000.0001) %MON advcfl_W_hf_max              =   9.2767388348495E-02
(PID.TID 0000.0001) %MON pe_b_mean                    =   1.8598845189104E-03
(PID.TID 0000.0001) %MON ke_max                       =   1.9694562347672E+00
(PID.TID 0000.0001) %MON ke_mean                      =   9.0266499778813E-04
(PID.TID 0000.0001) %MON ke_vol                       =   1.3350064351420E+18
(PID.TID 0000.0001) %MON vort_r_min                   =  -6.6548168775447E-05
(PID.TID 0000.0001) %MON vort_r_max                   =   6.2898393008996E-05
(PID.TID 0000.0001) %MON vort_a_mean                  =  -1.9725065122878E-05
(PID.TID 0000.0001) %MON vort_a_sd                    =   7.4538744422355E-05
(PID.TID 0000.0001) %MON vort_p_mean                  =  -2.1669068924281E-05
(PID.TID 0000.0001) %MON vort_p_sd                    =   9.3607966306114E-05
(PID.TID 0000.0001) %MON surfExpan_theta_mean         =   2.4132843891605E-05
(PID.TID 0000.0001) %MON surfExpan_salt_mean          =   6.7485375898680E-06
(PID.TID 0000.0001) // =======================================================
(PID.TID 0000.0001) // End MONITOR dynamic field statistics
(PID.TID 0000.0001) // =======================================================
(PID.TID 0000.0001) // =======================================================
(PID.TID 0000.0001) // Begin MONITOR SEAICE statistics
(PID.TID 0000.0001) // =======================================================
(PID.TID 0000.0001) %MON seaice_tsnumber              =                174664
(PID.TID 0000.0001) %MON seaice_time_sec              =   7.8598800000000E+07
(PID.TID 0000.0001) %MON seaice_uice_max              =   1.8834134633718E+00
(PID.TID 0000.0001) %MON seaice_uice_min              =  -1.4530448804886E+00
(PID.TID 0000.0001) %MON seaice_uice_mean             =   1.1434795924367E-04
(PID.TID 0000.0001) %MON seaice_uice_sd               =   1.6730897356334E-01
(PID.TID 0000.0001) %MON seaice_uice_del2             =   3.5348148460131E-04
(PID.TID 0000.0001) %MON seaice_vice_max              =   1.5382343094455E+00
(PID.TID 0000.0001) %MON seaice_vice_min              =  -1.6035282113032E+00
(PID.TID 0000.0001) %MON seaice_vice_mean             =  -2.7388599197084E-02
(PID.TID 0000.0001) %MON seaice_vice_sd               =   1.7249141590862E-01
(PID.TID 0000.0001) %MON seaice_vice_del2             =   3.5523419450824E-04
(PID.TID 0000.0001) %MON seaice_area_max              =   1.0069799097640E+00
(PID.TID 0000.0001) %MON seaice_area_min              =   0.0000000000000E+00
(PID.TID 0000.0001) %MON seaice_area_mean             =   5.7242236406602E-02
(PID.TID 0000.0001) %MON seaice_area_sd               =   2.2183981981055E-01
(PID.TID 0000.0001) %MON seaice_area_del2             =   3.3369884673609E-04
(PID.TID 0000.0001) %MON seaice_heff_max              =   9.9495832092651E+00
(PID.TID 0000.0001) %MON seaice_heff_min              =   0.0000000000000E+00
(PID.TID 0000.0001) %MON seaice_heff_mean             =   1.5015061724973E-01
(PID.TID 0000.0001) %MON seaice_heff_sd               =   7.2186000821948E-01
(PID.TID 0000.0001) %MON seaice_heff_del2             =   1.5322009195535E-03
(PID.TID 0000.0001) %MON seaice_hsnow_max             =   3.2863676507003E+00
(PID.TID 0000.0001) %MON seaice_hsnow_min             =   0.0000000000000E+00
(PID.TID 0000.0001) %MON seaice_hsnow_mean            =   1.2755589153072E-02
(PID.TID 0000.0001) %MON seaice_hsnow_sd              =   6.9502088081626E-02
(PID.TID 0000.0001) %MON seaice_hsnow_del2            =   4.3040480388816E-04
(PID.TID 0000.0001) // =======================================================
(PID.TID 0000.0001) // End MONITOR SEAICE statistics
(PID.TID 0000.0001) // =======================================================
(PID.TID 0000.0001) // =======================================================
(PID.TID 0000.0001) // Begin MONITOR dynamic field statistics
(PID.TID 0000.0001) // =======================================================
(PID.TID 0000.0001) %MON time_tsnumber                =                174665
(PID.TID 0000.0001) %MON time_secondsf                =   7.8599250000000E+07
(PID.TID 0000.0001) %MON dynstat_eta_max              =   2.9591074094196E+00
(PID.TID 0000.0001) %MON dynstat_eta_min              =  -1.1299740300627E+01
(PID.TID 0000.0001) %MON dynstat_eta_mean             =   6.2900463208346E-02
(PID.TID 0000.0001) %MON dynstat_eta_sd               =   8.3118024672607E-01
(PID.TID 0000.0001) %MON dynstat_eta_del2             =   2.0483087288879E-03
(PID.TID 0000.0001) %MON dynstat_uvel_max             =   1.8860943358716E+00
(PID.TID 0000.0001) %MON dynstat_uvel_min             =  -1.6400116528580E+00
(PID.TID 0000.0001) %MON dynstat_uvel_mean            =   1.5531051877398E-03
(PID.TID 0000.0001) %MON dynstat_uvel_sd              =   3.0914938053217E-02
(PID.TID 0000.0001) %MON dynstat_uvel_del2            =   2.5403012358242E-05
(PID.TID 0000.0001) %MON dynstat_vvel_max             =   1.4900959312788E+00
(PID.TID 0000.0001) %MON dynstat_vvel_min             =  -1.9357441790420E+00
(PID.TID 0000.0001) %MON dynstat_vvel_mean            =   3.3986754002211E-04
(PID.TID 0000.0001) %MON dynstat_vvel_sd              =   3.0272310063499E-02
(PID.TID 0000.0001) %MON dynstat_vvel_del2            =   2.4966958718036E-05
(PID.TID 0000.0001) %MON dynstat_wvel_max             =   7.0378033588266E-03
(PID.TID 0000.0001) %MON dynstat_wvel_min             =  -8.4522218275666E-03
(PID.TID 0000.0001) %MON dynstat_wvel_mean            =   8.2038011361543E-08
(PID.TID 0000.0001) %MON dynstat_wvel_sd              =   7.9318508595966E-05
(PID.TID 0000.0001) %MON dynstat_wvel_del2            =   1.5828251662801E-07
(PID.TID 0000.0001) %MON dynstat_theta_max            =   3.2409910070191E+01
(PID.TID 0000.0001) %MON dynstat_theta_min            =  -2.0159089899645E+00
(PID.TID 0000.0001) %MON dynstat_theta_mean           =   3.5922342194752E+00
(PID.TID 0000.0001) %MON dynstat_theta_sd             =   4.4422791343643E+00
(PID.TID 0000.0001) %MON dynstat_theta_del2           =   1.1817929354182E-04
(PID.TID 0000.0001) %MON dynstat_salt_max             =   4.0655995864636E+01
(PID.TID 0000.0001) %MON dynstat_salt_min             =   1.6238467001690E+01
(PID.TID 0000.0001) %MON dynstat_salt_mean            =   3.4724856376882E+01
(PID.TID 0000.0001) %MON dynstat_salt_sd              =   3.7955186681961E-01
(PID.TID 0000.0001) %MON dynstat_salt_del2            =   7.7282669779934E-05
(PID.TID 0000.0001) %MON dynstat_sst_max              =   3.2409910070191E+01
(PID.TID 0000.0001) %MON dynstat_sst_min              =  -2.0159089899645E+00
(PID.TID 0000.0001) %MON dynstat_sst_mean             =   1.8176637241287E+01
(PID.TID 0000.0001) %MON dynstat_sst_sd               =   1.0145993878104E+01
(PID.TID 0000.0001) %MON dynstat_sst_del2             =   1.1509359845285E-03
(PID.TID 0000.0001) %MON dynstat_sss_max              =   3.9478339418322E+01
(PID.TID 0000.0001) %MON dynstat_sss_min              =   1.6238467001690E+01
(PID.TID 0000.0001) %MON dynstat_sss_mean             =   3.4652868876870E+01
(PID.TID 0000.0001) %MON dynstat_sss_sd               =   1.2821934802832E+00
(PID.TID 0000.0001) %MON dynstat_sss_del2             =   1.4732382945030E-03
(PID.TID 0000.0001) %MON forcing_qnet_max             =   5.2079868721442E+03
(PID.TID 0000.0001) %MON forcing_qnet_min             =  -3.9992373046875E+03
(PID.TID 0000.0001) %MON forcing_qnet_mean            =   1.6174463423054E+01
(PID.TID 0000.0001) %MON forcing_qnet_sd              =   2.4180453935623E+02
(PID.TID 0000.0001) %MON forcing_qnet_del2            =   9.2663574341906E-01
(PID.TID 0000.0001) %MON forcing_qsw_max              =   0.0000000000000E+00
(PID.TID 0000.0001) %MON forcing_qsw_min              =  -1.1297902840359E+02
(PID.TID 0000.0001) %MON forcing_qsw_mean             =  -1.4854137021224E+01
(PID.TID 0000.0001) %MON forcing_qsw_sd               =   2.5629102782225E+01
(PID.TID 0000.0001) %MON forcing_qsw_del2             =   2.0304727894441E-02
(PID.TID 0000.0001) %MON forcing_empmr_max            =   3.3489320427179E-02
(PID.TID 0000.0001) %MON forcing_empmr_min            =  -4.7539778053761E-02
(PID.TID 0000.0001) %MON forcing_empmr_mean           =   1.5005121902037E-05
(PID.TID 0000.0001) %MON forcing_empmr_sd             =   4.5391708695764E-04
(PID.TID 0000.0001) %MON forcing_empmr_del2           =   5.1269956426533E-06
(PID.TID 0000.0001) %MON forcing_fu_max               =   8.0386174531487E-01
(PID.TID 0000.0001) %MON forcing_fu_min               =  -7.2919810564072E-01
(PID.TID 0000.0001) %MON forcing_fu_mean              =   8.3904410281915E-03
(PID.TID 0000.0001) %MON forcing_fu_sd                =   1.1475336248549E-01
(PID.TID 0000.0001) %MON forcing_fu_del2              =   1.4554892978748E-04
(PID.TID 0000.0001) %MON forcing_fv_max               =   1.2075573594300E+00
(PID.TID 0000.0001) %MON forcing_fv_min               =  -1.3606019919281E+00
(PID.TID 0000.0001) %MON forcing_fv_mean              =  -1.4343221580353E-03
(PID.TID 0000.0001) %MON forcing_fv_sd                =   1.0954619245879E-01
(PID.TID 0000.0001) %MON forcing_fv_del2              =   1.5357157977986E-04
(PID.TID 0000.0001) %MON trAdv_CFL_u_max              =   1.6916160847809E-02
(PID.TID 0000.0001) %MON trAdv_CFL_v_max              =   1.9580391757521E-02
(PID.TID 0000.0001) %MON trAdv_CFL_w_max              =   9.1465667291606E-02
(PID.TID 0000.0001) %MON advcfl_uvel_max              =   1.7142438063454E-02
(PID.TID 0000.0001) %MON advcfl_vvel_max              =   1.9650296348411E-02
(PID.TID 0000.0001) %MON advcfl_wvel_max              =   9.0525491563205E-02
(PID.TID 0000.0001) %MON advcfl_W_hf_max              =   9.1465667291606E-02
(PID.TID 0000.0001) %MON pe_b_mean                    =   1.8606577602361E-03
(PID.TID 0000.0001) %MON ke_max                       =   1.9855689704716E+00
(PID.TID 0000.0001) %MON ke_mean                      =   9.0394838550116E-04
(PID.TID 0000.0001) %MON ke_vol                       =   1.3350064351420E+18
(PID.TID 0000.0001) %MON vort_r_min                   =  -6.7375613288312E-05
(PID.TID 0000.0001) %MON vort_r_max                   =   6.3753184007905E-05
(PID.TID 0000.0001) %MON vort_a_mean                  =  -1.9725064517060E-05
(PID.TID 0000.0001) %MON vort_a_sd                    =   7.4538762429376E-05
(PID.TID 0000.0001) %MON vort_p_mean                  =  -2.1669068258757E-05
(PID.TID 0000.0001) %MON vort_p_sd                    =   9.3608001639519E-05
(PID.TID 0000.0001) %MON surfExpan_theta_mean         =   2.4201128576438E-05
(PID.TID 0000.0001) %MON surfExpan_salt_mean          =   7.1914150901767E-06
(PID.TID 0000.0001) // =======================================================
(PID.TID 0000.0001) // End MONITOR dynamic field statistics
(PID.TID 0000.0001) // =======================================================
(PID.TID 0000.0001) // =======================================================
(PID.TID 0000.0001) // Begin MONITOR SEAICE statistics
(PID.TID 0000.0001) // =======================================================
(PID.TID 0000.0001) %MON seaice_tsnumber              =                174665
(PID.TID 0000.0001) %MON seaice_time_sec              =   7.8599250000000E+07
(PID.TID 0000.0001) %MON seaice_uice_max              =   1.8814156410795E+00
(PID.TID 0000.0001) %MON seaice_uice_min              =  -1.4930801086135E+00
(PID.TID 0000.0001) %MON seaice_uice_mean             =   2.3116078315724E-04
(PID.TID 0000.0001) %MON seaice_uice_sd               =   1.6703653484796E-01
(PID.TID 0000.0001) %MON seaice_uice_del2             =   3.5114732980044E-04
(PID.TID 0000.0001) %MON seaice_vice_max              =   1.5174640515214E+00
(PID.TID 0000.0001) %MON seaice_vice_min              =  -1.6112227214366E+00
(PID.TID 0000.0001) %MON seaice_vice_mean             =  -2.7264500678833E-02
(PID.TID 0000.0001) %MON seaice_vice_sd               =   1.7225779395405E-01
(PID.TID 0000.0001) %MON seaice_vice_del2             =   3.5148594454369E-04
(PID.TID 0000.0001) %MON seaice_area_max              =   1.0070774620966E+00
(PID.TID 0000.0001) %MON seaice_area_min              =   0.0000000000000E+00
(PID.TID 0000.0001) %MON seaice_area_mean             =   5.7242752299742E-02
(PID.TID 0000.0001) %MON seaice_area_sd               =   2.2183254008865E-01
(PID.TID 0000.0001) %MON seaice_area_del2             =   3.3318164916850E-04
(PID.TID 0000.0001) %MON seaice_heff_max              =   9.9495879457351E+00
(PID.TID 0000.0001) %MON seaice_heff_min              =   0.0000000000000E+00
(PID.TID 0000.0001) %MON seaice_heff_mean             =   1.5014774023224E-01
(PID.TID 0000.0001) %MON seaice_heff_sd               =   7.2185284398914E-01
(PID.TID 0000.0001) %MON seaice_heff_del2             =   1.5304392381022E-03
(PID.TID 0000.0001) %MON seaice_hsnow_max             =   3.2863698877070E+00
(PID.TID 0000.0001) %MON seaice_hsnow_min             =   0.0000000000000E+00
(PID.TID 0000.0001) %MON seaice_hsnow_mean            =   1.2755078090299E-02
(PID.TID 0000.0001) %MON seaice_hsnow_sd              =   6.9491009053686E-02
(PID.TID 0000.0001) %MON seaice_hsnow_del2            =   4.2984615346290E-04
(PID.TID 0000.0001) // =======================================================
(PID.TID 0000.0001) // End MONITOR SEAICE statistics
(PID.TID 0000.0001) // =======================================================
(PID.TID 0000.0001) // =======================================================
(PID.TID 0000.0001) // Begin MONITOR dynamic field statistics
(PID.TID 0000.0001) // =======================================================
(PID.TID 0000.0001) %MON time_tsnumber                =                174666
(PID.TID 0000.0001) %MON time_secondsf                =   7.8599700000000E+07
(PID.TID 0000.0001) %MON dynstat_eta_max              =   2.9636332361677E+00
(PID.TID 0000.0001) %MON dynstat_eta_min              =  -1.1028499635171E+01
(PID.TID 0000.0001) %MON dynstat_eta_mean             =   6.2983095866147E-02
(PID.TID 0000.0001) %MON dynstat_eta_sd               =   8.3193757726165E-01
(PID.TID 0000.0001) %MON dynstat_eta_del2             =   2.0485737896991E-03
(PID.TID 0000.0001) %MON dynstat_uvel_max             =   1.8920627606496E+00
(PID.TID 0000.0001) %MON dynstat_uvel_min             =  -1.6660454066611E+00
(PID.TID 0000.0001) %MON dynstat_uvel_mean            =   1.6084185351706E-03
(PID.TID 0000.0001) %MON dynstat_uvel_sd              =   3.0934424047818E-02
(PID.TID 0000.0001) %MON dynstat_uvel_del2            =   2.5492374446271E-05
(PID.TID 0000.0001) %MON dynstat_vvel_max             =   1.4568764376693E+00
(PID.TID 0000.0001) %MON dynstat_vvel_min             =  -1.9800338433004E+00
(PID.TID 0000.0001) %MON dynstat_vvel_mean            =   4.0580772920329E-04
(PID.TID 0000.0001) %MON dynstat_vvel_sd              =   3.0291324647006E-02
(PID.TID 0000.0001) %MON dynstat_vvel_del2            =   2.4998530526644E-05
(PID.TID 0000.0001) %MON dynstat_wvel_max             =   7.1358174547382E-03
(PID.TID 0000.0001) %MON dynstat_wvel_min             =  -8.5688882930319E-03
(PID.TID 0000.0001) %MON dynstat_wvel_mean            =   9.5154557236712E-08
(PID.TID 0000.0001) %MON dynstat_wvel_sd              =   7.9619295971780E-05
(PID.TID 0000.0001) %MON dynstat_wvel_del2            =   1.5944922191827E-07
(PID.TID 0000.0001) %MON dynstat_theta_max            =   3.2409579380327E+01
(PID.TID 0000.0001) %MON dynstat_theta_min            =  -2.0159531615096E+00
(PID.TID 0000.0001) %MON dynstat_theta_mean           =   3.5922310145455E+00
(PID.TID 0000.0001) %MON dynstat_theta_sd             =   4.4422721711935E+00
(PID.TID 0000.0001) %MON dynstat_theta_del2           =   1.1819637726556E-04
(PID.TID 0000.0001) %MON dynstat_salt_max             =   4.0655995864596E+01
(PID.TID 0000.0001) %MON dynstat_salt_min             =   1.6238096179744E+01
(PID.TID 0000.0001) %MON dynstat_salt_mean            =   3.4724855898036E+01
(PID.TID 0000.0001) %MON dynstat_salt_sd              =   3.7955416923841E-01
(PID.TID 0000.0001) %MON dynstat_salt_del2            =   7.7123918349954E-05
(PID.TID 0000.0001) %MON dynstat_sst_max              =   3.2409579380327E+01
(PID.TID 0000.0001) %MON dynstat_sst_min              =  -2.0159531615096E+00
(PID.TID 0000.0001) %MON dynstat_sst_mean             =   1.8176467883797E+01
(PID.TID 0000.0001) %MON dynstat_sst_sd               =   1.0146212947331E+01
(PID.TID 0000.0001) %MON dynstat_sst_del2             =   1.1503794411437E-03
(PID.TID 0000.0001) %MON dynstat_sss_max              =   3.9477873319057E+01
(PID.TID 0000.0001) %MON dynstat_sss_min              =   1.6238096179744E+01
(PID.TID 0000.0001) %MON dynstat_sss_mean             =   3.4652768140228E+01
(PID.TID 0000.0001) %MON dynstat_sss_sd               =   1.2823574336183E+00
(PID.TID 0000.0001) %MON dynstat_sss_del2             =   1.4718556531125E-03
(PID.TID 0000.0001) %MON forcing_qnet_max             =   5.6745645659139E+03
(PID.TID 0000.0001) %MON forcing_qnet_min             =  -2.5172214355469E+03
(PID.TID 0000.0001) %MON forcing_qnet_mean            =   1.5989198344626E+01
(PID.TID 0000.0001) %MON forcing_qnet_sd              =   2.4065953407437E+02
(PID.TID 0000.0001) %MON forcing_qnet_del2            =   9.2114515909320E-01
(PID.TID 0000.0001) %MON forcing_qsw_max              =   0.0000000000000E+00
(PID.TID 0000.0001) %MON forcing_qsw_min              =  -1.1282036231776E+02
(PID.TID 0000.0001) %MON forcing_qsw_mean             =  -1.4865864295412E+01
(PID.TID 0000.0001) %MON forcing_qsw_sd               =   2.5530874252195E+01
(PID.TID 0000.0001) %MON forcing_qsw_del2             =   2.0369725863442E-02
(PID.TID 0000.0001) %MON forcing_empmr_max            =   3.3700682222843E-02
(PID.TID 0000.0001) %MON forcing_empmr_min            =  -4.5845728367567E-02
(PID.TID 0000.0001) %MON forcing_empmr_mean           =   1.5046779059411E-05
(PID.TID 0000.0001) %MON forcing_empmr_sd             =   4.4971876611115E-04
(PID.TID 0000.0001) %MON forcing_empmr_del2           =   5.0819182008905E-06
(PID.TID 0000.0001) %MON forcing_fu_max               =   8.8868300401857E-01
(PID.TID 0000.0001) %MON forcing_fu_min               =  -7.3098463093505E-01
(PID.TID 0000.0001) %MON forcing_fu_mean              =   8.3912181288472E-03
(PID.TID 0000.0001) %MON forcing_fu_sd                =   1.1485122212621E-01
(PID.TID 0000.0001) %MON forcing_fu_del2              =   1.4551194769073E-04
(PID.TID 0000.0001) %MON forcing_fv_max               =   1.1785807742132E+00
(PID.TID 0000.0001) %MON forcing_fv_min               =  -1.3146387967068E+00
(PID.TID 0000.0001) %MON forcing_fv_mean              =  -1.4428146035692E-03
(PID.TID 0000.0001) %MON forcing_fv_sd                =   1.0948474898132E-01
(PID.TID 0000.0001) %MON forcing_fv_del2              =   1.5286503936604E-04
(PID.TID 0000.0001) %MON trAdv_CFL_u_max              =   1.7184690139072E-02
(PID.TID 0000.0001) %MON trAdv_CFL_v_max              =   2.0028389476629E-02
(PID.TID 0000.0001) %MON trAdv_CFL_w_max              =   9.0098617000153E-02
(PID.TID 0000.0001) %MON advcfl_uvel_max              =   1.7414559308051E-02
(PID.TID 0000.0001) %MON advcfl_vvel_max              =   2.0099893478688E-02
(PID.TID 0000.0001) %MON advcfl_wvel_max              =   8.9172493183705E-02
(PID.TID 0000.0001) %MON advcfl_W_hf_max              =   9.0098617000153E-02
(PID.TID 0000.0001) %MON pe_b_mean                    =   1.8615746847117E-03
(PID.TID 0000.0001) %MON ke_max                       =   2.0570722114395E+00
(PID.TID 0000.0001) %MON ke_mean                      =   9.0519279816034E-04
(PID.TID 0000.0001) %MON ke_vol                       =   1.3350064351420E+18
(PID.TID 0000.0001) %MON vort_r_min                   =  -6.8203067990374E-05
(PID.TID 0000.0001) %MON vort_r_max                   =   6.4609167383773E-05
(PID.TID 0000.0001) %MON vort_a_mean                  =  -1.9725064010136E-05
(PID.TID 0000.0001) %MON vort_a_sd                    =   7.4538781077553E-05
(PID.TID 0000.0001) %MON vort_p_mean                  =  -2.1669067701873E-05
(PID.TID 0000.0001) %MON vort_p_sd                    =   9.3608037217588E-05
(PID.TID 0000.0001) %MON surfExpan_theta_mean         =   2.4193943308743E-05
(PID.TID 0000.0001) %MON surfExpan_salt_mean          =   7.5796278941704E-06
(PID.TID 0000.0001) // =======================================================
(PID.TID 0000.0001) // End MONITOR dynamic field statistics
(PID.TID 0000.0001) // =======================================================
(PID.TID 0000.0001) // =======================================================
(PID.TID 0000.0001) // Begin MONITOR SEAICE statistics
(PID.TID 0000.0001) // =======================================================
(PID.TID 0000.0001) %MON seaice_tsnumber              =                174666
(PID.TID 0000.0001) %MON seaice_time_sec              =   7.8599700000000E+07
(PID.TID 0000.0001) %MON seaice_uice_max              =   1.8830468217058E+00
(PID.TID 0000.0001) %MON seaice_uice_min              =  -1.5405798211309E+00
(PID.TID 0000.0001) %MON seaice_uice_mean             =   3.4258126332003E-04
(PID.TID 0000.0001) %MON seaice_uice_sd               =   1.6674376502314E-01
(PID.TID 0000.0001) %MON seaice_uice_del2             =   3.4884427740506E-04
(PID.TID 0000.0001) %MON seaice_vice_max              =   1.4900959312788E+00
(PID.TID 0000.0001) %MON seaice_vice_min              =  -1.6197238938423E+00
(PID.TID 0000.0001) %MON seaice_vice_mean             =  -2.7131870115548E-02
(PID.TID 0000.0001) %MON seaice_vice_sd               =   1.7200338207482E-01
(PID.TID 0000.0001) %MON seaice_vice_del2             =   3.4754741852928E-04
(PID.TID 0000.0001) %MON seaice_area_max              =   1.0071490267572E+00
(PID.TID 0000.0001) %MON seaice_area_min              =   0.0000000000000E+00
(PID.TID 0000.0001) %MON seaice_area_mean             =   5.7243265986911E-02
(PID.TID 0000.0001) %MON seaice_area_sd               =   2.2182519934514E-01
(PID.TID 0000.0001) %MON seaice_area_del2             =   3.3267296431101E-04
(PID.TID 0000.0001) %MON seaice_heff_max              =   9.9495650280805E+00
(PID.TID 0000.0001) %MON seaice_heff_min              =   0.0000000000000E+00
(PID.TID 0000.0001) %MON seaice_heff_mean             =   1.5014482629925E-01
(PID.TID 0000.0001) %MON seaice_heff_sd               =   7.2184556776365E-01
(PID.TID 0000.0001) %MON seaice_heff_del2             =   1.5287290972654E-03
(PID.TID 0000.0001) %MON seaice_hsnow_max             =   3.2863627379145E+00
(PID.TID 0000.0001) %MON seaice_hsnow_min             =   0.0000000000000E+00
(PID.TID 0000.0001) %MON seaice_hsnow_mean            =   1.2754574028338E-02
(PID.TID 0000.0001) %MON seaice_hsnow_sd              =   6.9480097630754E-02
(PID.TID 0000.0001) %MON seaice_hsnow_del2            =   4.2930432154043E-04
(PID.TID 0000.0001) // =======================================================
(PID.TID 0000.0001) // End MONITOR SEAICE statistics
(PID.TID 0000.0001) // =======================================================
(PID.TID 0000.0001) // =======================================================
(PID.TID 0000.0001) // Begin MONITOR dynamic field statistics
(PID.TID 0000.0001) // =======================================================
(PID.TID 0000.0001) %MON time_tsnumber                =                174667
(PID.TID 0000.0001) %MON time_secondsf                =   7.8600150000000E+07
(PID.TID 0000.0001) %MON dynstat_eta_max              =   3.0435574697448E+00
(PID.TID 0000.0001) %MON dynstat_eta_min              =  -1.0745060648876E+01
(PID.TID 0000.0001) %MON dynstat_eta_mean             =   6.3070478723170E-02
(PID.TID 0000.0001) %MON dynstat_eta_sd               =   8.3266601284567E-01
(PID.TID 0000.0001) %MON dynstat_eta_del2             =   2.0487065922822E-03
(PID.TID 0000.0001) %MON dynstat_uvel_max             =   1.8913620258090E+00
(PID.TID 0000.0001) %MON dynstat_uvel_min             =  -1.6920225382362E+00
(PID.TID 0000.0001) %MON dynstat_uvel_mean            =   1.6608900916302E-03
(PID.TID 0000.0001) %MON dynstat_uvel_sd              =   3.0952720731461E-02
(PID.TID 0000.0001) %MON dynstat_uvel_del2            =   2.5590574175157E-05
(PID.TID 0000.0001) %MON dynstat_vvel_max             =   1.4187604090529E+00
(PID.TID 0000.0001) %MON dynstat_vvel_min             =  -2.0244582566743E+00
(PID.TID 0000.0001) %MON dynstat_vvel_mean            =   4.6948384549299E-04
(PID.TID 0000.0001) %MON dynstat_vvel_sd              =   3.0309166937284E-02
(PID.TID 0000.0001) %MON dynstat_vvel_del2            =   2.5036461392364E-05
(PID.TID 0000.0001) %MON dynstat_wvel_max             =   7.2349111060639E-03
(PID.TID 0000.0001) %MON dynstat_wvel_min             =  -8.6904436665937E-03
(PID.TID 0000.0001) %MON dynstat_wvel_mean            =   1.0711566744828E-07
(PID.TID 0000.0001) %MON dynstat_wvel_sd              =   7.9917184905043E-05
(PID.TID 0000.0001) %MON dynstat_wvel_del2            =   1.6060987556635E-07
(PID.TID 0000.0001) %MON dynstat_theta_max            =   3.2409339651007E+01
(PID.TID 0000.0001) %MON dynstat_theta_min            =  -2.0167021557955E+00
(PID.TID 0000.0001) %MON dynstat_theta_mean           =   3.5922278066221E+00
(PID.TID 0000.0001) %MON dynstat_theta_sd             =   4.4422651809237E+00
(PID.TID 0000.0001) %MON dynstat_theta_del2           =   1.1821924815687E-04
(PID.TID 0000.0001) %MON dynstat_salt_max             =   4.0655995864554E+01
(PID.TID 0000.0001) %MON dynstat_salt_min             =   1.6237849641177E+01
(PID.TID 0000.0001) %MON dynstat_salt_mean            =   3.4724855422241E+01
(PID.TID 0000.0001) %MON dynstat_salt_sd              =   3.7955643118715E-01
(PID.TID 0000.0001) %MON dynstat_salt_del2            =   7.6966536171539E-05
(PID.TID 0000.0001) %MON dynstat_sst_max              =   3.2409339651007E+01
(PID.TID 0000.0001) %MON dynstat_sst_min              =  -2.0167021557955E+00
(PID.TID 0000.0001) %MON dynstat_sst_mean             =   1.8176295055566E+01
(PID.TID 0000.0001) %MON dynstat_sst_sd               =   1.0146426666748E+01
(PID.TID 0000.0001) %MON dynstat_sst_del2             =   1.1497972661089E-03
(PID.TID 0000.0001) %MON dynstat_sss_max              =   3.9477429816319E+01
(PID.TID 0000.0001) %MON dynstat_sss_min              =   1.6237849641177E+01
(PID.TID 0000.0001) %MON dynstat_sss_mean             =   3.4652667561813E+01
(PID.TID 0000.0001) %MON dynstat_sss_sd               =   1.2825220152045E+00
(PID.TID 0000.0001) %MON dynstat_sss_del2             =   1.4704658279222E-03
(PID.TID 0000.0001) %MON forcing_qnet_max             =   5.4423852329725E+03
(PID.TID 0000.0001) %MON forcing_qnet_min             =  -2.3093173828125E+03
(PID.TID 0000.0001) %MON forcing_qnet_mean            =   1.6195794638546E+01
(PID.TID 0000.0001) %MON forcing_qnet_sd              =   2.3934771976058E+02
(PID.TID 0000.0001) %MON forcing_qnet_del2            =   9.0135288265835E-01
(PID.TID 0000.0001) %MON forcing_qsw_max              =   0.0000000000000E+00
(PID.TID 0000.0001) %MON forcing_qsw_min              =  -1.1255622920037E+02
(PID.TID 0000.0001) %MON forcing_qsw_mean             =  -1.4868479799405E+01
(PID.TID 0000.0001) %MON forcing_qsw_sd               =   2.5432338830670E+01
(PID.TID 0000.0001) %MON forcing_qsw_del2             =   2.0430233857613E-02
(PID.TID 0000.0001) %MON forcing_empmr_max            =   3.3937521278858E-02
(PID.TID 0000.0001) %MON forcing_empmr_min            =  -4.7925129532814E-02
(PID.TID 0000.0001) %MON forcing_empmr_mean           =   1.4492037716800E-05
(PID.TID 0000.0001) %MON forcing_empmr_sd             =   4.5157608382895E-04
(PID.TID 0000.0001) %MON forcing_empmr_del2           =   5.0892283035480E-06
(PID.TID 0000.0001) %MON forcing_fu_max               =   9.5539981096365E-01
(PID.TID 0000.0001) %MON forcing_fu_min               =  -7.3196420041447E-01
(PID.TID 0000.0001) %MON forcing_fu_mean              =   8.4010513427965E-03
(PID.TID 0000.0001) %MON forcing_fu_sd                =   1.1496277021328E-01
(PID.TID 0000.0001) %MON forcing_fu_del2              =   1.4578314133097E-04
(PID.TID 0000.0001) %MON forcing_fv_max               =   1.1423013267239E+00
(PID.TID 0000.0001) %MON forcing_fv_min               =  -1.2645639323632E+00
(PID.TID 0000.0001) %MON forcing_fv_mean              =  -1.4536445591611E-03
(PID.TID 0000.0001) %MON forcing_fv_sd                =   1.0941908347241E-01
(PID.TID 0000.0001) %MON forcing_fv_del2              =   1.5245953424863E-04
(PID.TID 0000.0001) %MON trAdv_CFL_u_max              =   1.7452635391365E-02
(PID.TID 0000.0001) %MON trAdv_CFL_v_max              =   2.0477750206667E-02
(PID.TID 0000.0001) %MON trAdv_CFL_w_max              =   8.8680566651976E-02
(PID.TID 0000.0001) %MON advcfl_uvel_max              =   1.7686088701342E-02
(PID.TID 0000.0001) %MON advcfl_vvel_max              =   2.0550858486024E-02
(PID.TID 0000.0001) %MON advcfl_wvel_max              =   8.7769018977139E-02
(PID.TID 0000.0001) %MON advcfl_W_hf_max              =   8.8680566651976E-02
(PID.TID 0000.0001) %MON pe_b_mean                    =   1.8626277583948E-03
(PID.TID 0000.0001) %MON ke_max                       =   2.1490089625119E+00
(PID.TID 0000.0001) %MON ke_mean                      =   9.0636972184943E-04
(PID.TID 0000.0001) %MON ke_vol                       =   1.3350064351420E+18
(PID.TID 0000.0001) %MON vort_r_min                   =  -6.9031092913516E-05
(PID.TID 0000.0001) %MON vort_r_max                   =   6.5467124853240E-05
(PID.TID 0000.0001) %MON vort_a_mean                  =  -1.9725063603455E-05
(PID.TID 0000.0001) %MON vort_a_sd                    =   7.4538800301826E-05
(PID.TID 0000.0001) %MON vort_p_mean                  =  -2.1669067255111E-05
(PID.TID 0000.0001) %MON vort_p_sd                    =   9.3608072084786E-05
(PID.TID 0000.0001) %MON surfExpan_theta_mean         =   2.4101948510122E-05
(PID.TID 0000.0001) %MON surfExpan_salt_mean          =   7.9005229052607E-06
(PID.TID 0000.0001) // =======================================================
(PID.TID 0000.0001) // End MONITOR dynamic field statistics
(PID.TID 0000.0001) // =======================================================
(PID.TID 0000.0001) // =======================================================
(PID.TID 0000.0001) // Begin MONITOR SEAICE statistics
(PID.TID 0000.0001) // =======================================================
(PID.TID 0000.0001) %MON seaice_tsnumber              =                174667
(PID.TID 0000.0001) %MON seaice_time_sec              =   7.8600150000000E+07
(PID.TID 0000.0001) %MON seaice_uice_max              =   1.8920627606496E+00
(PID.TID 0000.0001) %MON seaice_uice_min              =  -1.5775649262898E+00
(PID.TID 0000.0001) %MON seaice_uice_mean             =   4.5012959882837E-04
(PID.TID 0000.0001) %MON seaice_uice_sd               =   1.6643628956804E-01
(PID.TID 0000.0001) %MON seaice_uice_del2             =   3.4656687642764E-04
(PID.TID 0000.0001) %MON seaice_vice_max              =   1.4568764376693E+00
(PID.TID 0000.0001) %MON seaice_vice_min              =  -1.6290531186809E+00
(PID.TID 0000.0001) %MON seaice_vice_mean             =  -2.7004429942766E-02
(PID.TID 0000.0001) %MON seaice_vice_sd               =   1.7176985944513E-01
(PID.TID 0000.0001) %MON seaice_vice_del2             =   3.4349964688132E-04
(PID.TID 0000.0001) %MON seaice_area_max              =   1.0071936413000E+00
(PID.TID 0000.0001) %MON seaice_area_min              =   0.0000000000000E+00
(PID.TID 0000.0001) %MON seaice_area_mean             =   5.7243784122794E-02
(PID.TID 0000.0001) %MON seaice_area_sd               =   2.2181781397619E-01
(PID.TID 0000.0001) %MON seaice_area_del2             =   3.3217324221651E-04
(PID.TID 0000.0001) %MON seaice_heff_max              =   9.9495669072787E+00
(PID.TID 0000.0001) %MON seaice_heff_min              =   0.0000000000000E+00
(PID.TID 0000.0001) %MON seaice_heff_mean             =   1.5014187169469E-01
(PID.TID 0000.0001) %MON seaice_heff_sd               =   7.2183813154724E-01
(PID.TID 0000.0001) %MON seaice_heff_del2             =   1.5270686890268E-03
(PID.TID 0000.0001) %MON seaice_hsnow_max             =   3.2863637312404E+00
(PID.TID 0000.0001) %MON seaice_hsnow_min             =   0.0000000000000E+00
(PID.TID 0000.0001) %MON seaice_hsnow_mean            =   1.2754038203011E-02
(PID.TID 0000.0001) %MON seaice_hsnow_sd              =   6.9469202740683E-02
(PID.TID 0000.0001) %MON seaice_hsnow_del2            =   4.2877868653582E-04
(PID.TID 0000.0001) // =======================================================
(PID.TID 0000.0001) // End MONITOR SEAICE statistics
(PID.TID 0000.0001) // =======================================================
(PID.TID 0000.0001) // =======================================================
(PID.TID 0000.0001) // Begin MONITOR dynamic field statistics
(PID.TID 0000.0001) // =======================================================
(PID.TID 0000.0001) %MON time_tsnumber                =                174668
(PID.TID 0000.0001) %MON time_secondsf                =   7.8600600000000E+07
(PID.TID 0000.0001) %MON dynstat_eta_max              =   3.1003215991801E+00
(PID.TID 0000.0001) %MON dynstat_eta_min              =  -1.0472125844117E+01
(PID.TID 0000.0001) %MON dynstat_eta_mean             =   6.3161821778709E-02
(PID.TID 0000.0001) %MON dynstat_eta_sd               =   8.3336833499549E-01
(PID.TID 0000.0001) %MON dynstat_eta_del2             =   2.0486529181536E-03
(PID.TID 0000.0001) %MON dynstat_uvel_max             =   1.8811865101894E+00
(PID.TID 0000.0001) %MON dynstat_uvel_min             =  -1.7179276101948E+00
(PID.TID 0000.0001) %MON dynstat_uvel_mean            =   1.7100520054652E-03
(PID.TID 0000.0001) %MON dynstat_uvel_sd              =   3.0969895176023E-02
(PID.TID 0000.0001) %MON dynstat_uvel_del2            =   2.5697604590183E-05
(PID.TID 0000.0001) %MON dynstat_vvel_max             =   1.3764899673642E+00
(PID.TID 0000.0001) %MON dynstat_vvel_min             =  -2.0684309294196E+00
(PID.TID 0000.0001) %MON dynstat_vvel_mean            =   5.3060481947759E-04
(PID.TID 0000.0001) %MON dynstat_vvel_sd              =   3.0325714361338E-02
(PID.TID 0000.0001) %MON dynstat_vvel_del2            =   2.5083078499779E-05
(PID.TID 0000.0001) %MON dynstat_wvel_max             =   7.3347884506208E-03
(PID.TID 0000.0001) %MON dynstat_wvel_min             =  -8.8165867930951E-03
(PID.TID 0000.0001) %MON dynstat_wvel_mean            =   1.1821445333772E-07
(PID.TID 0000.0001) %MON dynstat_wvel_sd              =   8.0210303178269E-05
(PID.TID 0000.0001) %MON dynstat_wvel_del2            =   1.6176611434061E-07
(PID.TID 0000.0001) %MON dynstat_theta_max            =   3.2409230732966E+01
(PID.TID 0000.0001) %MON dynstat_theta_min            =  -2.0175053903182E+00
(PID.TID 0000.0001) %MON dynstat_theta_mean           =   3.5922246148423E+00
(PID.TID 0000.0001) %MON dynstat_theta_sd             =   4.4422582161446E+00
(PID.TID 0000.0001) %MON dynstat_theta_del2           =   1.1823837118926E-04
(PID.TID 0000.0001) %MON dynstat_salt_max             =   4.0655995864511E+01
(PID.TID 0000.0001) %MON dynstat_salt_min             =   1.6237646100112E+01
(PID.TID 0000.0001) %MON dynstat_salt_mean            =   3.4724854954563E+01
(PID.TID 0000.0001) %MON dynstat_salt_sd              =   3.7955862546348E-01
(PID.TID 0000.0001) %MON dynstat_salt_del2            =   7.6808840528620E-05
(PID.TID 0000.0001) %MON dynstat_sst_max              =   3.2409230732966E+01
(PID.TID 0000.0001) %MON dynstat_sst_min              =  -2.0175053903182E+00
(PID.TID 0000.0001) %MON dynstat_sst_mean             =   1.8176129800589E+01
(PID.TID 0000.0001) %MON dynstat_sst_sd               =   1.0146647217459E+01
(PID.TID 0000.0001) %MON dynstat_sst_del2             =   1.1492658565040E-03
(PID.TID 0000.0001) %MON dynstat_sss_max              =   3.9477013093113E+01
(PID.TID 0000.0001) %MON dynstat_sss_min              =   1.6237646100112E+01
(PID.TID 0000.0001) %MON dynstat_sss_mean             =   3.4652569058673E+01
(PID.TID 0000.0001) %MON dynstat_sss_sd               =   1.2826868329871E+00
(PID.TID 0000.0001) %MON dynstat_sss_del2             =   1.4690474119952E-03
(PID.TID 0000.0001) %MON forcing_qnet_max             =   4.2288503755456E+03
(PID.TID 0000.0001) %MON forcing_qnet_min             =  -3.4592565917969E+03
(PID.TID 0000.0001) %MON forcing_qnet_mean            =   1.6116736767077E+01
(PID.TID 0000.0001) %MON forcing_qnet_sd              =   2.3880921149686E+02
(PID.TID 0000.0001) %MON forcing_qnet_del2            =   8.9538676428583E-01
(PID.TID 0000.0001) %MON forcing_qsw_max              =   0.0000000000000E+00
(PID.TID 0000.0001) %MON forcing_qsw_min              =  -1.1218714829808E+02
(PID.TID 0000.0001) %MON forcing_qsw_mean             =  -1.4861486240785E+01
(PID.TID 0000.0001) %MON forcing_qsw_sd               =   2.5334141286953E+01
(PID.TID 0000.0001) %MON forcing_qsw_del2             =   2.0485799811803E-02
(PID.TID 0000.0001) %MON forcing_empmr_max            =   3.4184824675322E-02
(PID.TID 0000.0001) %MON forcing_empmr_min            =  -4.4991806149483E-02
(PID.TID 0000.0001) %MON forcing_empmr_mean           =   1.4432678677609E-05
(PID.TID 0000.0001) %MON forcing_empmr_sd             =   4.4552174050427E-04
(PID.TID 0000.0001) %MON forcing_empmr_del2           =   5.0292897948258E-06
(PID.TID 0000.0001) %MON forcing_fu_max               =   1.0023912703312E+00
(PID.TID 0000.0001) %MON forcing_fu_min               =  -7.3230051782793E-01
(PID.TID 0000.0001) %MON forcing_fu_mean              =   8.4129325216929E-03
(PID.TID 0000.0001) %MON forcing_fu_sd                =   1.1508356983619E-01
(PID.TID 0000.0001) %MON forcing_fu_del2              =   1.4591303351641E-04
(PID.TID 0000.0001) %MON forcing_fv_max               =   1.0995148518271E+00
(PID.TID 0000.0001) %MON forcing_fv_min               =  -1.2101407106396E+00
(PID.TID 0000.0001) %MON forcing_fv_mean              =  -1.4677869923202E-03
(PID.TID 0000.0001) %MON forcing_fv_sd                =   1.0936014435896E-01
(PID.TID 0000.0001) %MON forcing_fv_del2              =   1.5205899867791E-04
(PID.TID 0000.0001) %MON trAdv_CFL_u_max              =   1.7719837373292E-02
(PID.TID 0000.0001) %MON trAdv_CFL_v_max              =   2.0922541501044E-02
(PID.TID 0000.0001) %MON trAdv_CFL_w_max              =   8.7224967436081E-02
(PID.TID 0000.0001) %MON advcfl_uvel_max              =   1.7956864881991E-02
(PID.TID 0000.0001) %MON advcfl_vvel_max              =   2.0997237744210E-02
(PID.TID 0000.0001) %MON advcfl_wvel_max              =   8.8602367471009E-02
(PID.TID 0000.0001) %MON advcfl_W_hf_max              =   8.7224967436081E-02
(PID.TID 0000.0001) %MON pe_b_mean                    =   1.8637993019880E-03
(PID.TID 0000.0001) %MON ke_max                       =   2.2388989265498E+00
(PID.TID 0000.0001) %MON ke_mean                      =   9.0747568199146E-04
(PID.TID 0000.0001) %MON ke_vol                       =   1.3350064351420E+18
(PID.TID 0000.0001) %MON vort_r_min                   =  -6.9859779079442E-05
(PID.TID 0000.0001) %MON vort_r_max                   =   6.6327493248448E-05
(PID.TID 0000.0001) %MON vort_a_mean                  =  -1.9725063296692E-05
(PID.TID 0000.0001) %MON vort_a_sd                    =   7.4538820041273E-05
(PID.TID 0000.0001) %MON vort_p_mean                  =  -2.1669066918115E-05
(PID.TID 0000.0001) %MON vort_p_sd                    =   9.3608105449880E-05
(PID.TID 0000.0001) %MON surfExpan_theta_mean         =   2.3926602601082E-05
(PID.TID 0000.0001) %MON surfExpan_salt_mean          =   8.1686648111413E-06
(PID.TID 0000.0001) // =======================================================
(PID.TID 0000.0001) // End MONITOR dynamic field statistics
(PID.TID 0000.0001) // =======================================================
(PID.TID 0000.0001) // =======================================================
(PID.TID 0000.0001) // Begin MONITOR SEAICE statistics
(PID.TID 0000.0001) // =======================================================
(PID.TID 0000.0001) %MON seaice_tsnumber              =                174668
(PID.TID 0000.0001) %MON seaice_time_sec              =   7.8600600000000E+07
(PID.TID 0000.0001) %MON seaice_uice_max              =   1.8913620258090E+00
(PID.TID 0000.0001) %MON seaice_uice_min              =  -1.6043630041249E+00
(PID.TID 0000.0001) %MON seaice_uice_mean             =   5.5225683526008E-04
(PID.TID 0000.0001) %MON seaice_uice_sd               =   1.6611455452075E-01
(PID.TID 0000.0001) %MON seaice_uice_del2             =   3.4438617176129E-04
(PID.TID 0000.0001) %MON seaice_vice_max              =   1.4187604090529E+00
(PID.TID 0000.0001) %MON seaice_vice_min              =  -1.6730226712023E+00
(PID.TID 0000.0001) %MON seaice_vice_mean             =  -2.6874623943006E-02
(PID.TID 0000.0001) %MON seaice_vice_sd               =   1.7153349940222E-01
(PID.TID 0000.0001) %MON seaice_vice_del2             =   3.3951266187759E-04
(PID.TID 0000.0001) %MON seaice_area_max              =   1.0072109234129E+00
(PID.TID 0000.0001) %MON seaice_area_min              =   0.0000000000000E+00
(PID.TID 0000.0001) %MON seaice_area_mean             =   5.7244334682444E-02
(PID.TID 0000.0001) %MON seaice_area_sd               =   2.2181044216106E-01
(PID.TID 0000.0001) %MON seaice_area_del2             =   3.3167889880109E-04
(PID.TID 0000.0001) %MON seaice_heff_max              =   9.9495582991286E+00
(PID.TID 0000.0001) %MON seaice_heff_min              =   0.0000000000000E+00
(PID.TID 0000.0001) %MON seaice_heff_mean             =   1.5013888989581E-01
(PID.TID 0000.0001) %MON seaice_heff_sd               =   7.2183058363176E-01
(PID.TID 0000.0001) %MON seaice_heff_del2             =   1.5254558852806E-03
(PID.TID 0000.0001) %MON seaice_hsnow_max             =   3.2863617502904E+00
(PID.TID 0000.0001) %MON seaice_hsnow_min             =   0.0000000000000E+00
(PID.TID 0000.0001) %MON seaice_hsnow_mean            =   1.2753507697450E-02
(PID.TID 0000.0001) %MON seaice_hsnow_sd              =   6.9458456358833E-02
(PID.TID 0000.0001) %MON seaice_hsnow_del2            =   4.2826873239153E-04
(PID.TID 0000.0001) // =======================================================
(PID.TID 0000.0001) // End MONITOR SEAICE statistics
(PID.TID 0000.0001) // =======================================================
(PID.TID 0000.0001) // =======================================================
(PID.TID 0000.0001) // Begin MONITOR dynamic field statistics
(PID.TID 0000.0001) // =======================================================
(PID.TID 0000.0001) %MON time_tsnumber                =                174669
(PID.TID 0000.0001) %MON time_secondsf                =   7.8601050000000E+07
(PID.TID 0000.0001) %MON dynstat_eta_max              =   3.1338652241940E+00
(PID.TID 0000.0001) %MON dynstat_eta_min              =  -1.0469323127954E+01
(PID.TID 0000.0001) %MON dynstat_eta_mean             =   6.3256222826901E-02
(PID.TID 0000.0001) %MON dynstat_eta_sd               =   8.3404669315304E-01
(PID.TID 0000.0001) %MON dynstat_eta_del2             =   2.0483761074466E-03
(PID.TID 0000.0001) %MON dynstat_uvel_max             =   1.8714982891140E+00
(PID.TID 0000.0001) %MON dynstat_uvel_min             =  -1.7437535020076E+00
(PID.TID 0000.0001) %MON dynstat_uvel_mean            =   1.7554912672476E-03
(PID.TID 0000.0001) %MON dynstat_uvel_sd              =   3.0985877626949E-02
(PID.TID 0000.0001) %MON dynstat_uvel_del2            =   2.5813316789305E-05
(PID.TID 0000.0001) %MON dynstat_vvel_max             =   1.3311322636632E+00
(PID.TID 0000.0001) %MON dynstat_vvel_min             =  -2.1112936257928E+00
(PID.TID 0000.0001) %MON dynstat_vvel_mean            =   5.8890088673414E-04
(PID.TID 0000.0001) %MON dynstat_vvel_sd              =   3.0340573548490E-02
(PID.TID 0000.0001) %MON dynstat_vvel_del2            =   2.5139486432159E-05
(PID.TID 0000.0001) %MON dynstat_wvel_max             =   7.4351443952502E-03
(PID.TID 0000.0001) %MON dynstat_wvel_min             =  -8.9467868143078E-03
(PID.TID 0000.0001) %MON dynstat_wvel_mean            =   1.2802514791935E-07
(PID.TID 0000.0001) %MON dynstat_wvel_sd              =   8.0496730115147E-05
(PID.TID 0000.0001) %MON dynstat_wvel_del2            =   1.6291893781619E-07
(PID.TID 0000.0001) %MON dynstat_theta_max            =   3.2409287993466E+01
(PID.TID 0000.0001) %MON dynstat_theta_min            =  -2.0183539733919E+00
(PID.TID 0000.0001) %MON dynstat_theta_mean           =   3.5922215092413E+00
(PID.TID 0000.0001) %MON dynstat_theta_sd             =   4.4422514829492E+00
(PID.TID 0000.0001) %MON dynstat_theta_del2           =   1.1826394583419E-04
(PID.TID 0000.0001) %MON dynstat_salt_max             =   4.0655995864466E+01
(PID.TID 0000.0001) %MON dynstat_salt_min             =   1.6237410604062E+01
(PID.TID 0000.0001) %MON dynstat_salt_mean            =   3.4724854494258E+01
(PID.TID 0000.0001) %MON dynstat_salt_sd              =   3.7956074605910E-01
(PID.TID 0000.0001) %MON dynstat_salt_del2            =   7.6652498580749E-05
(PID.TID 0000.0001) %MON dynstat_sst_max              =   3.2409287993466E+01
(PID.TID 0000.0001) %MON dynstat_sst_min              =  -2.0183539733919E+00
(PID.TID 0000.0001) %MON dynstat_sst_mean             =   1.8175960132847E+01
(PID.TID 0000.0001) %MON dynstat_sst_sd               =   1.0146854149624E+01
(PID.TID 0000.0001) %MON dynstat_sst_del2             =   1.1487077722838E-03
(PID.TID 0000.0001) %MON dynstat_sss_max              =   3.9476628560714E+01
(PID.TID 0000.0001) %MON dynstat_sss_min              =   1.6237410604062E+01
(PID.TID 0000.0001) %MON dynstat_sss_mean             =   3.4652472106674E+01
(PID.TID 0000.0001) %MON dynstat_sss_sd               =   1.2828509947266E+00
(PID.TID 0000.0001) %MON dynstat_sss_del2             =   1.4676233143966E-03
(PID.TID 0000.0001) %MON forcing_qnet_max             =   3.8190501083170E+03
(PID.TID 0000.0001) %MON forcing_qnet_min             =  -3.1496401367188E+03
(PID.TID 0000.0001) %MON forcing_qnet_mean            =   1.3985776103151E+01
(PID.TID 0000.0001) %MON forcing_qnet_sd              =   2.3675137016120E+02
(PID.TID 0000.0001) %MON forcing_qnet_del2            =   8.7617176190599E-01
(PID.TID 0000.0001) %MON forcing_qsw_max              =   0.0000000000000E+00
(PID.TID 0000.0001) %MON forcing_qsw_min              =  -1.0627773586649E+02
(PID.TID 0000.0001) %MON forcing_qsw_mean             =  -1.5064490270371E+01
(PID.TID 0000.0001) %MON forcing_qsw_sd               =   2.5330133445577E+01
(PID.TID 0000.0001) %MON forcing_qsw_del2             =   2.0561540018065E-02
(PID.TID 0000.0001) %MON forcing_empmr_max            =   3.4417107701302E-02
(PID.TID 0000.0001) %MON forcing_empmr_min            =  -4.5302502810955E-02
(PID.TID 0000.0001) %MON forcing_empmr_mean           =   1.4296567440848E-05
(PID.TID 0000.0001) %MON forcing_empmr_sd             =   4.4553372466299E-04
(PID.TID 0000.0001) %MON forcing_empmr_del2           =   5.0268347784943E-06
(PID.TID 0000.0001) %MON forcing_fu_max               =   1.0296229428018E+00
(PID.TID 0000.0001) %MON forcing_fu_min               =  -7.3161840288934E-01
(PID.TID 0000.0001) %MON forcing_fu_mean              =   8.4260854396595E-03
(PID.TID 0000.0001) %MON forcing_fu_sd                =   1.1519450599530E-01
(PID.TID 0000.0001) %MON forcing_fu_del2              =   1.4590004279371E-04
(PID.TID 0000.0001) %MON forcing_fv_max               =   1.0509557842546E+00
(PID.TID 0000.0001) %MON forcing_fv_min               =  -1.1987134440723E+00
(PID.TID 0000.0001) %MON forcing_fv_mean              =  -1.4821631734551E-03
(PID.TID 0000.0001) %MON forcing_fv_sd                =   1.0930615309283E-01
(PID.TID 0000.0001) %MON forcing_fv_del2              =   1.5135170950418E-04
(PID.TID 0000.0001) %MON trAdv_CFL_u_max              =   1.7986222639019E-02
(PID.TID 0000.0001) %MON trAdv_CFL_v_max              =   2.1356105189808E-02
(PID.TID 0000.0001) %MON trAdv_CFL_w_max              =   8.5741662365722E-02
(PID.TID 0000.0001) %MON advcfl_uvel_max              =   1.8226813421724E-02
(PID.TID 0000.0001) %MON advcfl_vvel_max              =   2.1432349312744E-02
(PID.TID 0000.0001) %MON advcfl_wvel_max              =   8.8931982234348E-02
(PID.TID 0000.0001) %MON advcfl_W_hf_max              =   8.8180385342262E-02
(PID.TID 0000.0001) %MON pe_b_mean                    =   1.8650666543298E-03
(PID.TID 0000.0001) %MON ke_max                       =   2.3254154761978E+00
(PID.TID 0000.0001) %MON ke_mean                      =   9.0849518994100E-04
(PID.TID 0000.0001) %MON ke_vol                       =   1.3350064351420E+18
(PID.TID 0000.0001) %MON vort_r_min                   =  -7.0689000148678E-05
(PID.TID 0000.0001) %MON vort_r_max                   =   6.7190577277581E-05
(PID.TID 0000.0001) %MON vort_a_mean                  =  -1.9725063087866E-05
(PID.TID 0000.0001) %MON vort_a_sd                    =   7.4538840218448E-05
(PID.TID 0000.0001) %MON vort_p_mean                  =  -2.1669066688709E-05
(PID.TID 0000.0001) %MON vort_p_sd                    =   9.3608136696593E-05
(PID.TID 0000.0001) %MON surfExpan_theta_mean         =   2.3657705518278E-05
(PID.TID 0000.0001) %MON surfExpan_salt_mean          =   8.3556163461239E-06
(PID.TID 0000.0001) // =======================================================
(PID.TID 0000.0001) // End MONITOR dynamic field statistics
(PID.TID 0000.0001) // =======================================================
(PID.TID 0000.0001) // =======================================================
(PID.TID 0000.0001) // Begin MONITOR SEAICE statistics
(PID.TID 0000.0001) // =======================================================
(PID.TID 0000.0001) %MON seaice_tsnumber              =                174669
(PID.TID 0000.0001) %MON seaice_time_sec              =   7.8601050000000E+07
(PID.TID 0000.0001) %MON seaice_uice_max              =   1.8811865101894E+00
(PID.TID 0000.0001) %MON seaice_uice_min              =  -1.6210557763901E+00
(PID.TID 0000.0001) %MON seaice_uice_mean             =   6.4976867509878E-04
(PID.TID 0000.0001) %MON seaice_uice_sd               =   1.6578284401215E-01
(PID.TID 0000.0001) %MON seaice_uice_del2             =   3.4229490677710E-04
(PID.TID 0000.0001) %MON seaice_vice_max              =   1.3764899673642E+00
(PID.TID 0000.0001) %MON seaice_vice_min              =  -1.7193046728484E+00
(PID.TID 0000.0001) %MON seaice_vice_mean             =  -2.6749339818451E-02
(PID.TID 0000.0001) %MON seaice_vice_sd               =   1.7130448272464E-01
(PID.TID 0000.0001) %MON seaice_vice_del2             =   3.3562461033114E-04
(PID.TID 0000.0001) %MON seaice_area_max              =   1.0072038610918E+00
(PID.TID 0000.0001) %MON seaice_area_min              =   0.0000000000000E+00
(PID.TID 0000.0001) %MON seaice_area_mean             =   5.7244917132638E-02
(PID.TID 0000.0001) %MON seaice_area_sd               =   2.2180308356921E-01
(PID.TID 0000.0001) %MON seaice_area_del2             =   3.3119074172212E-04
(PID.TID 0000.0001) %MON seaice_heff_max              =   9.9495315757054E+00
(PID.TID 0000.0001) %MON seaice_heff_min              =   0.0000000000000E+00
(PID.TID 0000.0001) %MON seaice_heff_mean             =   1.5013588255818E-01
(PID.TID 0000.0001) %MON seaice_heff_sd               =   7.2182294107899E-01
(PID.TID 0000.0001) %MON seaice_heff_del2             =   1.5238916765247E-03
(PID.TID 0000.0001) %MON seaice_hsnow_max             =   3.2863528824711E+00
(PID.TID 0000.0001) %MON seaice_hsnow_min             =   0.0000000000000E+00
(PID.TID 0000.0001) %MON seaice_hsnow_mean            =   1.2752956332728E-02
(PID.TID 0000.0001) %MON seaice_hsnow_sd              =   6.9447874161654E-02
(PID.TID 0000.0001) %MON seaice_hsnow_del2            =   4.2777443052475E-04
(PID.TID 0000.0001) // =======================================================
(PID.TID 0000.0001) // End MONITOR SEAICE statistics
(PID.TID 0000.0001) // =======================================================
(PID.TID 0000.0001) // =======================================================
(PID.TID 0000.0001) // Begin MONITOR dynamic field statistics
(PID.TID 0000.0001) // =======================================================
(PID.TID 0000.0001) %MON time_tsnumber                =                174670
(PID.TID 0000.0001) %MON time_secondsf                =   7.8601500000000E+07
(PID.TID 0000.0001) %MON dynstat_eta_max              =   3.1443240663171E+00
(PID.TID 0000.0001) %MON dynstat_eta_min              =  -1.0483284411981E+01
(PID.TID 0000.0001) %MON dynstat_eta_mean             =   6.3352887728424E-02
(PID.TID 0000.0001) %MON dynstat_eta_sd               =   8.3470182929624E-01
(PID.TID 0000.0001) %MON dynstat_eta_del2             =   2.0478553578604E-03
(PID.TID 0000.0001) %MON dynstat_uvel_max             =   1.8673086309231E+00
(PID.TID 0000.0001) %MON dynstat_uvel_min             =  -1.7694807760151E+00
(PID.TID 0000.0001) %MON dynstat_uvel_mean            =   1.7968594132016E-03
(PID.TID 0000.0001) %MON dynstat_uvel_sd              =   3.1001114268659E-02
(PID.TID 0000.0001) %MON dynstat_uvel_del2            =   2.5936277838490E-05
(PID.TID 0000.0001) %MON dynstat_vvel_max             =   1.3093442616256E+00
(PID.TID 0000.0001) %MON dynstat_vvel_min             =  -2.1523367443676E+00
(PID.TID 0000.0001) %MON dynstat_vvel_mean            =   6.4410110380618E-04
(PID.TID 0000.0001) %MON dynstat_vvel_sd              =   3.0354012993575E-02
(PID.TID 0000.0001) %MON dynstat_vvel_del2            =   2.5205307569738E-05
(PID.TID 0000.0001) %MON dynstat_wvel_max             =   7.5356777864483E-03
(PID.TID 0000.0001) %MON dynstat_wvel_min             =  -9.0803605850236E-03
(PID.TID 0000.0001) %MON dynstat_wvel_mean            =   1.3665499484767E-07
(PID.TID 0000.0001) %MON dynstat_wvel_sd              =   8.0776101209986E-05
(PID.TID 0000.0001) %MON dynstat_wvel_del2            =   1.6407006825218E-07
(PID.TID 0000.0001) %MON dynstat_theta_max            =   3.2409512500451E+01
(PID.TID 0000.0001) %MON dynstat_theta_min            =  -2.0192306108369E+00
(PID.TID 0000.0001) %MON dynstat_theta_mean           =   3.5922184545397E+00
(PID.TID 0000.0001) %MON dynstat_theta_sd             =   4.4422448580572E+00
(PID.TID 0000.0001) %MON dynstat_theta_del2           =   1.1828582498003E-04
(PID.TID 0000.0001) %MON dynstat_salt_max             =   4.0655995864421E+01
(PID.TID 0000.0001) %MON dynstat_salt_min             =   1.6237079569884E+01
(PID.TID 0000.0001) %MON dynstat_salt_mean            =   3.4724854040996E+01
(PID.TID 0000.0001) %MON dynstat_salt_sd              =   3.7956278081796E-01
(PID.TID 0000.0001) %MON dynstat_salt_del2            =   7.6496783172274E-05
(PID.TID 0000.0001) %MON dynstat_sst_max              =   3.2409512500451E+01
(PID.TID 0000.0001) %MON dynstat_sst_min              =  -2.0192306108369E+00
(PID.TID 0000.0001) %MON dynstat_sst_mean             =   1.8175812267300E+01
(PID.TID 0000.0001) %MON dynstat_sst_sd               =   1.0147075850236E+01
(PID.TID 0000.0001) %MON dynstat_sst_del2             =   1.1480775603677E-03
(PID.TID 0000.0001) %MON dynstat_sss_max              =   3.9476279768736E+01
(PID.TID 0000.0001) %MON dynstat_sss_min              =   1.6237079569884E+01
(PID.TID 0000.0001) %MON dynstat_sss_mean             =   3.4652375359323E+01
(PID.TID 0000.0001) %MON dynstat_sss_sd               =   1.2830139241706E+00
(PID.TID 0000.0001) %MON dynstat_sss_del2             =   1.4662040807218E-03
(PID.TID 0000.0001) %MON forcing_qnet_max             =   3.6452591731918E+03
(PID.TID 0000.0001) %MON forcing_qnet_min             =  -1.4864758300781E+03
(PID.TID 0000.0001) %MON forcing_qnet_mean            =   1.3389318894681E+01
(PID.TID 0000.0001) %MON forcing_qnet_sd              =   2.3531436868619E+02
(PID.TID 0000.0001) %MON forcing_qnet_del2            =   8.3543942617263E-01
(PID.TID 0000.0001) %MON forcing_qsw_max              =   0.0000000000000E+00
(PID.TID 0000.0001) %MON forcing_qsw_min              =  -1.0572798623835E+02
(PID.TID 0000.0001) %MON forcing_qsw_mean             =  -1.5131322213656E+01
(PID.TID 0000.0001) %MON forcing_qsw_sd               =   2.5361451973099E+01
(PID.TID 0000.0001) %MON forcing_qsw_del2             =   2.0663973069944E-02
(PID.TID 0000.0001) %MON forcing_empmr_max            =   3.4636780619621E-02
(PID.TID 0000.0001) %MON forcing_empmr_min            =  -4.3578810989857E-02
(PID.TID 0000.0001) %MON forcing_empmr_mean           =   1.3980981362132E-05
(PID.TID 0000.0001) %MON forcing_empmr_sd             =   4.4337133915783E-04
(PID.TID 0000.0001) %MON forcing_empmr_del2           =   5.0106999840024E-06
(PID.TID 0000.0001) %MON forcing_fu_max               =   1.0380770733578E+00
(PID.TID 0000.0001) %MON forcing_fu_min               =  -7.3088559929512E-01
(PID.TID 0000.0001) %MON forcing_fu_mean              =   8.4491196338878E-03
(PID.TID 0000.0001) %MON forcing_fu_sd                =   1.1534822751325E-01
(PID.TID 0000.0001) %MON forcing_fu_del2              =   1.4569946055567E-04
(PID.TID 0000.0001) %MON forcing_fv_max               =   9.9788633332783E-01
(PID.TID 0000.0001) %MON forcing_fv_min               =  -1.2184201756544E+00
(PID.TID 0000.0001) %MON forcing_fv_mean              =  -1.5032178640546E-03
(PID.TID 0000.0001) %MON forcing_fv_sd                =   1.0923568292557E-01
(PID.TID 0000.0001) %MON forcing_fv_del2              =   1.5020684890675E-04
(PID.TID 0000.0001) %MON trAdv_CFL_u_max              =   1.8251590695721E-02
(PID.TID 0000.0001) %MON trAdv_CFL_v_max              =   2.1771263530123E-02
(PID.TID 0000.0001) %MON trAdv_CFL_w_max              =   8.4237145235896E-02
(PID.TID 0000.0001) %MON advcfl_uvel_max              =   1.8495731145843E-02
(PID.TID 0000.0001) %MON advcfl_vvel_max              =   2.1848989823298E-02
(PID.TID 0000.0001) %MON advcfl_wvel_max              =   8.8066205872933E-02
(PID.TID 0000.0001) %MON advcfl_W_hf_max              =   8.9961231050579E-02
(PID.TID 0000.0001) %MON pe_b_mean                    =   1.8664043752334E-03
(PID.TID 0000.0001) %MON ke_max                       =   2.4071402774916E+00
(PID.TID 0000.0001) %MON ke_mean                      =   9.0944757841667E-04
(PID.TID 0000.0001) %MON ke_vol                       =   1.3350064351420E+18
(PID.TID 0000.0001) %MON vort_r_min                   =  -7.1517803554280E-05
(PID.TID 0000.0001) %MON vort_r_max                   =   6.8055945732932E-05
(PID.TID 0000.0001) %MON vort_a_mean                  =  -1.9725062973572E-05
(PID.TID 0000.0001) %MON vort_a_sd                    =   7.4538860743117E-05
(PID.TID 0000.0001) %MON vort_p_mean                  =  -2.1669066563150E-05
(PID.TID 0000.0001) %MON vort_p_sd                    =   9.3608165285641E-05
(PID.TID 0000.0001) %MON surfExpan_theta_mean         =   2.3297709606918E-05
(PID.TID 0000.0001) %MON surfExpan_salt_mean          =   8.4657989528498E-06
(PID.TID 0000.0001) // =======================================================
(PID.TID 0000.0001) // End MONITOR dynamic field statistics
(PID.TID 0000.0001) // =======================================================
(PID.TID 0000.0001) // =======================================================
(PID.TID 0000.0001) // Begin MONITOR SEAICE statistics
(PID.TID 0000.0001) // =======================================================
(PID.TID 0000.0001) %MON seaice_tsnumber              =                174670
(PID.TID 0000.0001) %MON seaice_time_sec              =   7.8601500000000E+07
(PID.TID 0000.0001) %MON seaice_uice_max              =   1.8618206297168E+00
(PID.TID 0000.0001) %MON seaice_uice_min              =  -1.6280603955826E+00
(PID.TID 0000.0001) %MON seaice_uice_mean             =   7.5049195209521E-04
(PID.TID 0000.0001) %MON seaice_uice_sd               =   1.6544302010427E-01
(PID.TID 0000.0001) %MON seaice_uice_del2             =   3.4046150443072E-04
(PID.TID 0000.0001) %MON seaice_vice_max              =   1.3311322636632E+00
(PID.TID 0000.0001) %MON seaice_vice_min              =  -1.7648847998925E+00
(PID.TID 0000.0001) %MON seaice_vice_mean             =  -2.6623807032365E-02
(PID.TID 0000.0001) %MON seaice_vice_sd               =   1.7107124608594E-01
(PID.TID 0000.0001) %MON seaice_vice_del2             =   3.3203601524929E-04
(PID.TID 0000.0001) %MON seaice_area_max              =   1.0071749310767E+00
(PID.TID 0000.0001) %MON seaice_area_min              =   0.0000000000000E+00
(PID.TID 0000.0001) %MON seaice_area_mean             =   5.7245500503324E-02
(PID.TID 0000.0001) %MON seaice_area_sd               =   2.2179567840984E-01
(PID.TID 0000.0001) %MON seaice_area_del2             =   3.3071026777547E-04
(PID.TID 0000.0001) %MON seaice_heff_max              =   9.9495220224480E+00
(PID.TID 0000.0001) %MON seaice_heff_min              =   0.0000000000000E+00
(PID.TID 0000.0001) %MON seaice_heff_mean             =   1.5013284492395E-01
(PID.TID 0000.0001) %MON seaice_heff_sd               =   7.2181517269182E-01
(PID.TID 0000.0001) %MON seaice_heff_del2             =   1.5223717959415E-03
(PID.TID 0000.0001) %MON seaice_hsnow_max             =   3.2863501726919E+00
(PID.TID 0000.0001) %MON seaice_hsnow_min             =   0.0000000000000E+00
(PID.TID 0000.0001) %MON seaice_hsnow_mean            =   1.2752411120444E-02
(PID.TID 0000.0001) %MON seaice_hsnow_sd              =   6.9437428992565E-02
(PID.TID 0000.0001) %MON seaice_hsnow_del2            =   4.2729392607277E-04
(PID.TID 0000.0001) // =======================================================
(PID.TID 0000.0001) // End MONITOR SEAICE statistics
(PID.TID 0000.0001) // =======================================================
(PID.TID 0000.0001) // =======================================================
(PID.TID 0000.0001) // Begin MONITOR dynamic field statistics
(PID.TID 0000.0001) // =======================================================
(PID.TID 0000.0001) %MON time_tsnumber                =                174671
(PID.TID 0000.0001) %MON time_secondsf                =   7.8601950000000E+07
(PID.TID 0000.0001) %MON dynstat_eta_max              =   3.1319948280161E+00
(PID.TID 0000.0001) %MON dynstat_eta_min              =  -1.0513558605113E+01
(PID.TID 0000.0001) %MON dynstat_eta_mean             =   6.3451232441363E-02
(PID.TID 0000.0001) %MON dynstat_eta_sd               =   8.3533223903858E-01
(PID.TID 0000.0001) %MON dynstat_eta_del2             =   2.0470831643541E-03
(PID.TID 0000.0001) %MON dynstat_uvel_max             =   1.8766458569188E+00
(PID.TID 0000.0001) %MON dynstat_uvel_min             =  -1.7950868183258E+00
(PID.TID 0000.0001) %MON dynstat_uvel_mean            =   1.8338844313738E-03
(PID.TID 0000.0001) %MON dynstat_uvel_sd              =   3.1015639569050E-02
(PID.TID 0000.0001) %MON dynstat_uvel_del2            =   2.6065504397092E-05
(PID.TID 0000.0001) %MON dynstat_vvel_max             =   1.2996550125179E+00
(PID.TID 0000.0001) %MON dynstat_vvel_min             =  -2.1908637705801E+00
(PID.TID 0000.0001) %MON dynstat_vvel_mean            =   6.9594626633368E-04
(PID.TID 0000.0001) %MON dynstat_vvel_sd              =   3.0365389685070E-02
(PID.TID 0000.0001) %MON dynstat_vvel_del2            =   2.5281775816462E-05
(PID.TID 0000.0001) %MON dynstat_wvel_max             =   7.6360702488408E-03
(PID.TID 0000.0001) %MON dynstat_wvel_min             =  -9.2164995553312E-03
(PID.TID 0000.0001) %MON dynstat_wvel_mean            =   1.4473056381226E-07
(PID.TID 0000.0001) %MON dynstat_wvel_sd              =   8.1049086442965E-05
(PID.TID 0000.0001) %MON dynstat_wvel_del2            =   1.6522127579662E-07
(PID.TID 0000.0001) %MON dynstat_theta_max            =   3.2409925045104E+01
(PID.TID 0000.0001) %MON dynstat_theta_min            =  -2.0201248627224E+00
(PID.TID 0000.0001) %MON dynstat_theta_mean           =   3.5922154504699E+00
(PID.TID 0000.0001) %MON dynstat_theta_sd             =   4.4422383015099E+00
(PID.TID 0000.0001) %MON dynstat_theta_del2           =   1.1831538524118E-04
(PID.TID 0000.0001) %MON dynstat_salt_max             =   4.0655995864374E+01
(PID.TID 0000.0001) %MON dynstat_salt_min             =   1.6236605085153E+01
(PID.TID 0000.0001) %MON dynstat_salt_mean            =   3.4724853600553E+01
(PID.TID 0000.0001) %MON dynstat_salt_sd              =   3.7956471381115E-01
(PID.TID 0000.0001) %MON dynstat_salt_del2            =   7.6342311708700E-05
(PID.TID 0000.0001) %MON dynstat_sst_max              =   3.2409925045104E+01
(PID.TID 0000.0001) %MON dynstat_sst_min              =  -2.0201248627224E+00
(PID.TID 0000.0001) %MON dynstat_sst_mean             =   1.8175660874681E+01
(PID.TID 0000.0001) %MON dynstat_sst_sd               =   1.0147291069910E+01
(PID.TID 0000.0001) %MON dynstat_sst_del2             =   1.1475231228418E-03
(PID.TID 0000.0001) %MON dynstat_sss_max              =   3.9475968808415E+01
(PID.TID 0000.0001) %MON dynstat_sss_min              =   1.6236605085153E+01
(PID.TID 0000.0001) %MON dynstat_sss_mean             =   3.4652281120275E+01
(PID.TID 0000.0001) %MON dynstat_sss_sd               =   1.2831759857788E+00
(PID.TID 0000.0001) %MON dynstat_sss_del2             =   1.4647327737470E-03
(PID.TID 0000.0001) %MON forcing_qnet_max             =   3.6045595532010E+03
(PID.TID 0000.0001) %MON forcing_qnet_min             =  -1.9303068847656E+03
(PID.TID 0000.0001) %MON forcing_qnet_mean            =   1.3144683951481E+01
(PID.TID 0000.0001) %MON forcing_qnet_sd              =   2.3437492028954E+02
(PID.TID 0000.0001) %MON forcing_qnet_del2            =   8.2333459848466E-01
(PID.TID 0000.0001) %MON forcing_qsw_max              =   0.0000000000000E+00
(PID.TID 0000.0001) %MON forcing_qsw_min              =  -1.0508090264489E+02
(PID.TID 0000.0001) %MON forcing_qsw_mean             =  -1.5187728394534E+01
(PID.TID 0000.0001) %MON forcing_qsw_sd               =   2.5394762728494E+01
(PID.TID 0000.0001) %MON forcing_qsw_del2             =   2.0759125724458E-02
(PID.TID 0000.0001) %MON forcing_empmr_max            =   3.4849215298891E-02
(PID.TID 0000.0001) %MON forcing_empmr_min            =  -4.2144507169724E-02
(PID.TID 0000.0001) %MON forcing_empmr_mean           =   1.4160120859182E-05
(PID.TID 0000.0001) %MON forcing_empmr_sd             =   4.3836938862851E-04
(PID.TID 0000.0001) %MON forcing_empmr_del2           =   4.9373040950270E-06
(PID.TID 0000.0001) %MON forcing_fu_max               =   1.0297454242751E+00
(PID.TID 0000.0001) %MON forcing_fu_min               =  -7.4124214053154E-01
(PID.TID 0000.0001) %MON forcing_fu_mean              =   8.4503401412701E-03
(PID.TID 0000.0001) %MON forcing_fu_sd                =   1.1543770041798E-01
(PID.TID 0000.0001) %MON forcing_fu_del2              =   1.4565839682516E-04
(PID.TID 0000.0001) %MON forcing_fv_max               =   9.4119345310791E-01
(PID.TID 0000.0001) %MON forcing_fv_min               =  -1.2444839058000E+00
(PID.TID 0000.0001) %MON forcing_fv_mean              =  -1.5291418013896E-03
(PID.TID 0000.0001) %MON forcing_fv_sd                =   1.0916428472959E-01
(PID.TID 0000.0001) %MON forcing_fv_del2              =   1.4944467100839E-04
(PID.TID 0000.0001) %MON trAdv_CFL_u_max              =   1.8515708288818E-02
(PID.TID 0000.0001) %MON trAdv_CFL_v_max              =   2.2160971155056E-02
(PID.TID 0000.0001) %MON trAdv_CFL_w_max              =   8.3712069002000E-02
(PID.TID 0000.0001) %MON advcfl_uvel_max              =   1.8763381679665E-02
(PID.TID 0000.0001) %MON advcfl_vvel_max              =   2.2240088756047E-02
(PID.TID 0000.0001) %MON advcfl_wvel_max              =   8.7259689443215E-02
(PID.TID 0000.0001) %MON advcfl_W_hf_max              =   9.1137897862914E-02
(PID.TID 0000.0001) %MON pe_b_mean                    =   1.8677870698397E-03
(PID.TID 0000.0001) %MON ke_max                       =   2.4827111282006E+00
(PID.TID 0000.0001) %MON ke_mean                      =   9.1031332010437E-04
(PID.TID 0000.0001) %MON ke_vol                       =   1.3350064351420E+18
(PID.TID 0000.0001) %MON vort_r_min                   =  -7.2344723484522E-05
(PID.TID 0000.0001) %MON vort_r_max                   =   6.8922738307863E-05
(PID.TID 0000.0001) %MON vort_a_mean                  =  -1.9725062949272E-05
(PID.TID 0000.0001) %MON vort_a_sd                    =   7.4538881525997E-05
(PID.TID 0000.0001) %MON vort_p_mean                  =  -2.1669066536455E-05
(PID.TID 0000.0001) %MON vort_p_sd                    =   9.3608190925080E-05
(PID.TID 0000.0001) %MON surfExpan_theta_mean         =   2.2862557273708E-05
(PID.TID 0000.0001) %MON surfExpan_salt_mean          =   8.5373393296062E-06
(PID.TID 0000.0001) // =======================================================
(PID.TID 0000.0001) // End MONITOR dynamic field statistics
(PID.TID 0000.0001) // =======================================================
(PID.TID 0000.0001) // =======================================================
(PID.TID 0000.0001) // Begin MONITOR SEAICE statistics
(PID.TID 0000.0001) // =======================================================
(PID.TID 0000.0001) %MON seaice_tsnumber              =                174671
(PID.TID 0000.0001) %MON seaice_time_sec              =   7.8601950000000E+07
(PID.TID 0000.0001) %MON seaice_uice_max              =   1.8490464586436E+00
(PID.TID 0000.0001) %MON seaice_uice_min              =  -1.6256266238277E+00
(PID.TID 0000.0001) %MON seaice_uice_mean             =   8.3628874232263E-04
(PID.TID 0000.0001) %MON seaice_uice_sd               =   1.6510589453557E-01
(PID.TID 0000.0001) %MON seaice_uice_del2             =   3.3885588381945E-04
(PID.TID 0000.0001) %MON seaice_vice_max              =   1.3093442616256E+00
(PID.TID 0000.0001) %MON seaice_vice_min              =  -1.8090914074647E+00
(PID.TID 0000.0001) %MON seaice_vice_mean             =  -2.6501433304369E-02
(PID.TID 0000.0001) %MON seaice_vice_sd               =   1.7085766130396E-01
(PID.TID 0000.0001) %MON seaice_vice_del2             =   3.2874132478017E-04
(PID.TID 0000.0001) %MON seaice_area_max              =   1.0071241583225E+00
(PID.TID 0000.0001) %MON seaice_area_min              =   0.0000000000000E+00
(PID.TID 0000.0001) %MON seaice_area_mean             =   5.7246087685115E-02
(PID.TID 0000.0001) %MON seaice_area_sd               =   2.2178820516290E-01
(PID.TID 0000.0001) %MON seaice_area_del2             =   3.3023860809947E-04
(PID.TID 0000.0001) %MON seaice_heff_max              =   9.9495115252821E+00
(PID.TID 0000.0001) %MON seaice_heff_min              =   0.0000000000000E+00
(PID.TID 0000.0001) %MON seaice_heff_mean             =   1.5012978358806E-01
(PID.TID 0000.0001) %MON seaice_heff_sd               =   7.2180724876219E-01
(PID.TID 0000.0001) %MON seaice_heff_del2             =   1.5208900072761E-03
(PID.TID 0000.0001) %MON seaice_hsnow_max             =   3.2863469652524E+00
(PID.TID 0000.0001) %MON seaice_hsnow_min             =   0.0000000000000E+00
(PID.TID 0000.0001) %MON seaice_hsnow_mean            =   1.2751856455192E-02
(PID.TID 0000.0001) %MON seaice_hsnow_sd              =   6.9427088009185E-02
(PID.TID 0000.0001) %MON seaice_hsnow_del2            =   4.2682527969708E-04
(PID.TID 0000.0001) // =======================================================
(PID.TID 0000.0001) // End MONITOR SEAICE statistics
(PID.TID 0000.0001) // =======================================================
(PID.TID 0000.0001) // =======================================================
(PID.TID 0000.0001) // Begin MONITOR dynamic field statistics
(PID.TID 0000.0001) // =======================================================
(PID.TID 0000.0001) %MON time_tsnumber                =                174672
(PID.TID 0000.0001) %MON time_secondsf                =   7.8602400000000E+07
(PID.TID 0000.0001) %MON dynstat_eta_max              =   3.0973049864413E+00
(PID.TID 0000.0001) %MON dynstat_eta_min              =  -1.0559262954240E+01
(PID.TID 0000.0001) %MON dynstat_eta_mean             =   6.3551537774139E-02
(PID.TID 0000.0001) %MON dynstat_eta_sd               =   8.3593462132052E-01
(PID.TID 0000.0001) %MON dynstat_eta_del2             =   2.0460691269081E-03
(PID.TID 0000.0001) %MON dynstat_uvel_max             =   1.9014050113921E+00
(PID.TID 0000.0001) %MON dynstat_uvel_min             =  -1.8205447932843E+00
(PID.TID 0000.0001) %MON dynstat_uvel_mean            =   1.8663597680535E-03
(PID.TID 0000.0001) %MON dynstat_uvel_sd              =   3.1029855238784E-02
(PID.TID 0000.0001) %MON dynstat_uvel_del2            =   2.6199541557382E-05
(PID.TID 0000.0001) %MON dynstat_vvel_max             =   1.3348596457419E+00
(PID.TID 0000.0001) %MON dynstat_vvel_min             =  -2.2262462983890E+00
(PID.TID 0000.0001) %MON dynstat_vvel_mean            =   7.4418865504848E-04
(PID.TID 0000.0001) %MON dynstat_vvel_sd              =   3.0375303516651E-02
(PID.TID 0000.0001) %MON dynstat_vvel_del2            =   2.5368254008674E-05
(PID.TID 0000.0001) %MON dynstat_wvel_max             =   7.7359916486111E-03
(PID.TID 0000.0001) %MON dynstat_wvel_min             =  -9.3542970011626E-03
(PID.TID 0000.0001) %MON dynstat_wvel_mean            =   1.5262460667785E-07
(PID.TID 0000.0001) %MON dynstat_wvel_sd              =   8.1317768065136E-05
(PID.TID 0000.0001) %MON dynstat_wvel_del2            =   1.6637467738516E-07
(PID.TID 0000.0001) %MON dynstat_theta_max            =   3.2410564042194E+01
(PID.TID 0000.0001) %MON dynstat_theta_min            =  -2.0210138936681E+00
(PID.TID 0000.0001) %MON dynstat_theta_mean           =   3.5922125083166E+00
(PID.TID 0000.0001) %MON dynstat_theta_sd             =   4.4422318422572E+00
(PID.TID 0000.0001) %MON dynstat_theta_del2           =   1.1834023617818E-04
(PID.TID 0000.0001) %MON dynstat_salt_max             =   4.0655995864326E+01
(PID.TID 0000.0001) %MON dynstat_salt_min             =   1.6235955860702E+01
(PID.TID 0000.0001) %MON dynstat_salt_mean            =   3.4724853170380E+01
(PID.TID 0000.0001) %MON dynstat_salt_sd              =   3.7956654272110E-01
(PID.TID 0000.0001) %MON dynstat_salt_del2            =   7.6188362201901E-05
(PID.TID 0000.0001) %MON dynstat_sst_max              =   3.2410564042194E+01
(PID.TID 0000.0001) %MON dynstat_sst_min              =  -2.0210138936681E+00
(PID.TID 0000.0001) %MON dynstat_sst_mean             =   1.8175520428553E+01
(PID.TID 0000.0001) %MON dynstat_sst_sd               =   1.0147513147877E+01
(PID.TID 0000.0001) %MON dynstat_sst_del2             =   1.1469183688085E-03
(PID.TID 0000.0001) %MON dynstat_sss_max              =   3.9475697164413E+01
(PID.TID 0000.0001) %MON dynstat_sss_min              =   1.6235955860702E+01
(PID.TID 0000.0001) %MON dynstat_sss_mean             =   3.4652187288479E+01
(PID.TID 0000.0001) %MON dynstat_sss_sd               =   1.2833344172275E+00
(PID.TID 0000.0001) %MON dynstat_sss_del2             =   1.4632539840697E-03
(PID.TID 0000.0001) %MON forcing_qnet_max             =   3.6082948893680E+03
(PID.TID 0000.0001) %MON forcing_qnet_min             =  -1.8140146484375E+03
(PID.TID 0000.0001) %MON forcing_qnet_mean            =   1.2696222968762E+01
(PID.TID 0000.0001) %MON forcing_qnet_sd              =   2.3376096015434E+02
(PID.TID 0000.0001) %MON forcing_qnet_del2            =   8.1877501554970E-01
(PID.TID 0000.0001) %MON forcing_qsw_max              =   0.0000000000000E+00
(PID.TID 0000.0001) %MON forcing_qsw_min              =  -1.0469113727835E+02
(PID.TID 0000.0001) %MON forcing_qsw_mean             =  -1.5233958942143E+01
(PID.TID 0000.0001) %MON forcing_qsw_sd               =   2.5429749705181E+01
(PID.TID 0000.0001) %MON forcing_qsw_del2             =   2.0846754065346E-02
(PID.TID 0000.0001) %MON forcing_empmr_max            =   3.4999419003725E-02
(PID.TID 0000.0001) %MON forcing_empmr_min            =  -4.2535156011581E-02
(PID.TID 0000.0001) %MON forcing_empmr_mean           =   1.3525942704483E-05
(PID.TID 0000.0001) %MON forcing_empmr_sd             =   4.3912855785448E-04
(PID.TID 0000.0001) %MON forcing_empmr_del2           =   4.9373644676924E-06
(PID.TID 0000.0001) %MON forcing_fu_max               =   1.0068848085892E+00
(PID.TID 0000.0001) %MON forcing_fu_min               =  -7.4465227127075E-01
(PID.TID 0000.0001) %MON forcing_fu_mean              =   8.4601232332836E-03
(PID.TID 0000.0001) %MON forcing_fu_sd                =   1.1554161610132E-01
(PID.TID 0000.0001) %MON forcing_fu_del2              =   1.4569740488987E-04
(PID.TID 0000.0001) %MON forcing_fv_max               =   8.8537436723709E-01
(PID.TID 0000.0001) %MON forcing_fv_min               =  -1.2747397156268E+00
(PID.TID 0000.0001) %MON forcing_fv_mean              =  -1.5510401989143E-03
(PID.TID 0000.0001) %MON forcing_fv_sd                =   1.0908755579113E-01
(PID.TID 0000.0001) %MON forcing_fv_del2              =   1.4896411082164E-04
(PID.TID 0000.0001) %MON trAdv_CFL_u_max              =   1.8778298617677E-02
(PID.TID 0000.0001) %MON trAdv_CFL_v_max              =   2.2518871627325E-02
(PID.TID 0000.0001) %MON trAdv_CFL_w_max              =   8.4250728642077E-02
(PID.TID 0000.0001) %MON advcfl_uvel_max              =   1.9029484519962E-02
(PID.TID 0000.0001) %MON advcfl_vvel_max              =   2.2599266980386E-02
(PID.TID 0000.0001) %MON advcfl_wvel_max              =   8.7835340443934E-02
(PID.TID 0000.0001) %MON advcfl_W_hf_max              =   9.1739133352553E-02
(PID.TID 0000.0001) %MON pe_b_mean                    =   1.8692082691281E-03
(PID.TID 0000.0001) %MON ke_max                       =   2.5509011873672E+00
(PID.TID 0000.0001) %MON ke_mean                      =   9.1112039345565E-04
(PID.TID 0000.0001) %MON ke_vol                       =   1.3350064351420E+18
(PID.TID 0000.0001) %MON vort_r_min                   =  -7.3167965839007E-05
(PID.TID 0000.0001) %MON vort_r_max                   =   6.9789681515253E-05
(PID.TID 0000.0001) %MON vort_a_mean                  =  -1.9725063009551E-05
(PID.TID 0000.0001) %MON vort_a_sd                    =   7.4538902471252E-05
(PID.TID 0000.0001) %MON vort_p_mean                  =  -2.1669066602676E-05
(PID.TID 0000.0001) %MON vort_p_sd                    =   9.3608212956944E-05
(PID.TID 0000.0001) %MON surfExpan_theta_mean         =   2.2364621382910E-05
(PID.TID 0000.0001) %MON surfExpan_salt_mean          =   8.5932461065643E-06
(PID.TID 0000.0001) // =======================================================
(PID.TID 0000.0001) // End MONITOR dynamic field statistics
(PID.TID 0000.0001) // =======================================================
(PID.TID 0000.0001) // =======================================================
(PID.TID 0000.0001) // Begin MONITOR SEAICE statistics
(PID.TID 0000.0001) // =======================================================
(PID.TID 0000.0001) %MON seaice_tsnumber              =                174672
(PID.TID 0000.0001) %MON seaice_time_sec              =   7.8602400000000E+07
(PID.TID 0000.0001) %MON seaice_uice_max              =   1.8408342641415E+00
(PID.TID 0000.0001) %MON seaice_uice_min              =  -1.6141950153086E+00
(PID.TID 0000.0001) %MON seaice_uice_mean             =   9.1687723023362E-04
(PID.TID 0000.0001) %MON seaice_uice_sd               =   1.6476258596996E-01
(PID.TID 0000.0001) %MON seaice_uice_del2             =   3.3752324178989E-04
(PID.TID 0000.0001) %MON seaice_vice_max              =   1.2807583287071E+00
(PID.TID 0000.0001) %MON seaice_vice_min              =  -1.8511603595521E+00
(PID.TID 0000.0001) %MON seaice_vice_mean             =  -2.6372816687982E-02
(PID.TID 0000.0001) %MON seaice_vice_sd               =   1.7063029022033E-01
(PID.TID 0000.0001) %MON seaice_vice_del2             =   3.2589639510847E-04
(PID.TID 0000.0001) %MON seaice_area_max              =   1.0070642519861E+00
(PID.TID 0000.0001) %MON seaice_area_min              =   0.0000000000000E+00
(PID.TID 0000.0001) %MON seaice_area_mean             =   5.7246710112169E-02
(PID.TID 0000.0001) %MON seaice_area_sd               =   2.2178078811127E-01
(PID.TID 0000.0001) %MON seaice_area_del2             =   3.2977462838248E-04
(PID.TID 0000.0001) %MON seaice_heff_max              =   9.9494953150809E+00
(PID.TID 0000.0001) %MON seaice_heff_min              =   0.0000000000000E+00
(PID.TID 0000.0001) %MON seaice_heff_mean             =   1.5012670464811E-01
(PID.TID 0000.0001) %MON seaice_heff_sd               =   7.2179920143601E-01
(PID.TID 0000.0001) %MON seaice_heff_del2             =   1.5194406115412E-03
(PID.TID 0000.0001) %MON seaice_hsnow_max             =   3.2863417741282E+00
(PID.TID 0000.0001) %MON seaice_hsnow_min             =   0.0000000000000E+00
(PID.TID 0000.0001) %MON seaice_hsnow_mean            =   1.2751304078728E-02
(PID.TID 0000.0001) %MON seaice_hsnow_sd              =   6.9416877000584E-02
(PID.TID 0000.0001) %MON seaice_hsnow_del2            =   4.2636800280951E-04
(PID.TID 0000.0001) // =======================================================
(PID.TID 0000.0001) // End MONITOR SEAICE statistics
(PID.TID 0000.0001) // =======================================================
(PID.TID 0000.0001) // =======================================================
(PID.TID 0000.0001) // Begin MONITOR dynamic field statistics
(PID.TID 0000.0001) // =======================================================
(PID.TID 0000.0001) %MON time_tsnumber                =                174673
(PID.TID 0000.0001) %MON time_secondsf                =   7.8602850000000E+07
(PID.TID 0000.0001) %MON dynstat_eta_max              =   3.1005783994573E+00
(PID.TID 0000.0001) %MON dynstat_eta_min              =  -1.0619143288549E+01
(PID.TID 0000.0001) %MON dynstat_eta_mean             =   6.3653541217416E-02
(PID.TID 0000.0001) %MON dynstat_eta_sd               =   8.3650398979059E-01
(PID.TID 0000.0001) %MON dynstat_eta_del2             =   2.0448377554068E-03
(PID.TID 0000.0001) %MON dynstat_uvel_max             =   1.9218668793210E+00
(PID.TID 0000.0001) %MON dynstat_uvel_min             =  -1.8458201235344E+00
(PID.TID 0000.0001) %MON dynstat_uvel_mean            =   1.8941452599030E-03
(PID.TID 0000.0001) %MON dynstat_uvel_sd              =   3.1044029882712E-02
(PID.TID 0000.0001) %MON dynstat_uvel_del2            =   2.6337233768077E-05
(PID.TID 0000.0001) %MON dynstat_vvel_max             =   1.3636517226358E+00
(PID.TID 0000.0001) %MON dynstat_vvel_min             =  -2.2579336216166E+00
(PID.TID 0000.0001) %MON dynstat_vvel_mean            =   7.8860319248994E-04
(PID.TID 0000.0001) %MON dynstat_vvel_sd              =   3.0383756226810E-02
(PID.TID 0000.0001) %MON dynstat_vvel_del2            =   2.5464786447773E-05
(PID.TID 0000.0001) %MON dynstat_wvel_max             =   7.8351332493729E-03
(PID.TID 0000.0001) %MON dynstat_wvel_min             =  -9.4927362439656E-03
(PID.TID 0000.0001) %MON dynstat_wvel_mean            =   1.6035410958586E-07
(PID.TID 0000.0001) %MON dynstat_wvel_sd              =   8.1584884022040E-05
(PID.TID 0000.0001) %MON dynstat_wvel_del2            =   1.6753227502053E-07
(PID.TID 0000.0001) %MON dynstat_theta_max            =   3.2411455057373E+01
(PID.TID 0000.0001) %MON dynstat_theta_min            =  -2.0218826387149E+00
(PID.TID 0000.0001) %MON dynstat_theta_mean           =   3.5922096313400E+00
(PID.TID 0000.0001) %MON dynstat_theta_sd             =   4.4422254683317E+00
(PID.TID 0000.0001) %MON dynstat_theta_del2           =   1.1837102107198E-04
(PID.TID 0000.0001) %MON dynstat_salt_max             =   4.0655995864278E+01
(PID.TID 0000.0001) %MON dynstat_salt_min             =   1.6235192251277E+01
(PID.TID 0000.0001) %MON dynstat_salt_mean            =   3.4724852754190E+01
(PID.TID 0000.0001) %MON dynstat_salt_sd              =   3.7956827526092E-01
(PID.TID 0000.0001) %MON dynstat_salt_del2            =   7.6037191007172E-05
(PID.TID 0000.0001) %MON dynstat_sst_max              =   3.2411455057373E+01
(PID.TID 0000.0001) %MON dynstat_sst_min              =  -2.0218826387149E+00
(PID.TID 0000.0001) %MON dynstat_sst_mean             =   1.8175385685185E+01
(PID.TID 0000.0001) %MON dynstat_sst_sd               =   1.0147736549128E+01
(PID.TID 0000.0001) %MON dynstat_sst_del2             =   1.1462734519849E-03
(PID.TID 0000.0001) %MON dynstat_sss_max              =   3.9475466146560E+01
(PID.TID 0000.0001) %MON dynstat_sss_min              =   1.6235192251277E+01
(PID.TID 0000.0001) %MON dynstat_sss_mean             =   3.4652095685441E+01
(PID.TID 0000.0001) %MON dynstat_sss_sd               =   1.2834959162535E+00
(PID.TID 0000.0001) %MON dynstat_sss_del2             =   1.4618964145765E-03
(PID.TID 0000.0001) %MON forcing_qnet_max             =   3.7867835046408E+03
(PID.TID 0000.0001) %MON forcing_qnet_min             =  -2.8313623046875E+03
(PID.TID 0000.0001) %MON forcing_qnet_mean            =   1.2410905353778E+01
(PID.TID 0000.0001) %MON forcing_qnet_sd              =   2.3292626416075E+02
(PID.TID 0000.0001) %MON forcing_qnet_del2            =   8.2965628745406E-01
(PID.TID 0000.0001) %MON forcing_qsw_max              =   0.0000000000000E+00
(PID.TID 0000.0001) %MON forcing_qsw_min              =  -1.0560974618226E+02
(PID.TID 0000.0001) %MON forcing_qsw_mean             =  -1.5269779045737E+01
(PID.TID 0000.0001) %MON forcing_qsw_sd               =   2.5466321467879E+01
(PID.TID 0000.0001) %MON forcing_qsw_del2             =   2.0926696673198E-02
(PID.TID 0000.0001) %MON forcing_empmr_max            =   3.5098124295473E-02
(PID.TID 0000.0001) %MON forcing_empmr_min            =  -4.4834565371275E-02
(PID.TID 0000.0001) %MON forcing_empmr_mean           =   1.3576514571474E-05
(PID.TID 0000.0001) %MON forcing_empmr_sd             =   4.4151277827553E-04
(PID.TID 0000.0001) %MON forcing_empmr_del2           =   4.9652130570800E-06
(PID.TID 0000.0001) %MON forcing_fu_max               =   9.7214631881510E-01
(PID.TID 0000.0001) %MON forcing_fu_min               =  -7.6149705052376E-01
(PID.TID 0000.0001) %MON forcing_fu_mean              =   8.4849976843965E-03
(PID.TID 0000.0001) %MON forcing_fu_sd                =   1.1569118846485E-01
(PID.TID 0000.0001) %MON forcing_fu_del2              =   1.4587127157590E-04
(PID.TID 0000.0001) %MON forcing_fv_max               =   8.8358664512634E-01
(PID.TID 0000.0001) %MON forcing_fv_min               =  -1.3066996563454E+00
(PID.TID 0000.0001) %MON forcing_fv_mean              =  -1.5655632332748E-03
(PID.TID 0000.0001) %MON forcing_fv_sd                =   1.0905397936887E-01
(PID.TID 0000.0001) %MON forcing_fv_del2              =   1.4860183899029E-04
(PID.TID 0000.0001) %MON trAdv_CFL_u_max              =   1.9039005028664E-02
(PID.TID 0000.0001) %MON trAdv_CFL_v_max              =   2.2839394457387E-02
(PID.TID 0000.0001) %MON trAdv_CFL_w_max              =   8.4293382626898E-02
(PID.TID 0000.0001) %MON advcfl_uvel_max              =   1.9293678242361E-02
(PID.TID 0000.0001) %MON advcfl_vvel_max              =   2.2920934119386E-02
(PID.TID 0000.0001) %MON advcfl_wvel_max              =   8.7880335079106E-02
(PID.TID 0000.0001) %MON advcfl_W_hf_max              =   9.1786127749289E-02
(PID.TID 0000.0001) %MON pe_b_mean                    =   1.8706430481291E-03
(PID.TID 0000.0001) %MON ke_max                       =   2.6106605311408E+00
(PID.TID 0000.0001) %MON ke_mean                      =   9.1187547687444E-04
(PID.TID 0000.0001) %MON ke_vol                       =   1.3350064351420E+18
(PID.TID 0000.0001) %MON vort_r_min                   =  -7.3985223912128E-05
(PID.TID 0000.0001) %MON vort_r_max                   =   7.0655003960005E-05
(PID.TID 0000.0001) %MON vort_a_mean                  =  -1.9725063147669E-05
(PID.TID 0000.0001) %MON vort_a_sd                    =   7.4538923489123E-05
(PID.TID 0000.0001) %MON vort_p_mean                  =  -2.1669066754406E-05
(PID.TID 0000.0001) %MON vort_p_sd                    =   9.3608230770647E-05
(PID.TID 0000.0001) %MON surfExpan_theta_mean         =   2.1815096228304E-05
(PID.TID 0000.0001) %MON surfExpan_salt_mean          =   8.6440786218339E-06
(PID.TID 0000.0001) // =======================================================
(PID.TID 0000.0001) // End MONITOR dynamic field statistics
(PID.TID 0000.0001) // =======================================================
(PID.TID 0000.0001) // =======================================================
(PID.TID 0000.0001) // Begin MONITOR SEAICE statistics
(PID.TID 0000.0001) // =======================================================
(PID.TID 0000.0001) %MON seaice_tsnumber              =                174673
(PID.TID 0000.0001) %MON seaice_time_sec              =   7.8602850000000E+07
(PID.TID 0000.0001) %MON seaice_uice_max              =   1.8320782376982E+00
(PID.TID 0000.0001) %MON seaice_uice_min              =  -1.5941269962697E+00
(PID.TID 0000.0001) %MON seaice_uice_mean             =   9.8609512284468E-04
(PID.TID 0000.0001) %MON seaice_uice_sd               =   1.6442863751234E-01
(PID.TID 0000.0001) %MON seaice_uice_del2             =   3.3651312336272E-04
(PID.TID 0000.0001) %MON seaice_vice_max              =   1.3183999978551E+00
(PID.TID 0000.0001) %MON seaice_vice_min              =  -1.8903123733776E+00
(PID.TID 0000.0001) %MON seaice_vice_mean             =  -2.6247281005787E-02
(PID.TID 0000.0001) %MON seaice_vice_sd               =   1.7041480996259E-01
(PID.TID 0000.0001) %MON seaice_vice_del2             =   3.2357258638191E-04
(PID.TID 0000.0001) %MON seaice_area_max              =   1.0069976568177E+00
(PID.TID 0000.0001) %MON seaice_area_min              =   0.0000000000000E+00
(PID.TID 0000.0001) %MON seaice_area_mean             =   5.7247388921304E-02
(PID.TID 0000.0001) %MON seaice_area_sd               =   2.2177348322120E-01
(PID.TID 0000.0001) %MON seaice_area_del2             =   3.2932058618869E-04
(PID.TID 0000.0001) %MON seaice_heff_max              =   9.9494772078583E+00
(PID.TID 0000.0001) %MON seaice_heff_min              =   0.0000000000000E+00
(PID.TID 0000.0001) %MON seaice_heff_mean             =   1.5012361347039E-01
(PID.TID 0000.0001) %MON seaice_heff_sd               =   7.2179104264483E-01
(PID.TID 0000.0001) %MON seaice_heff_del2             =   1.5180200590603E-03
(PID.TID 0000.0001) %MON seaice_hsnow_max             =   3.2863360846876E+00
(PID.TID 0000.0001) %MON seaice_hsnow_min             =   0.0000000000000E+00
(PID.TID 0000.0001) %MON seaice_hsnow_mean            =   1.2750733776567E-02
(PID.TID 0000.0001) %MON seaice_hsnow_sd              =   6.9406757939487E-02
(PID.TID 0000.0001) %MON seaice_hsnow_del2            =   4.2592077967271E-04
(PID.TID 0000.0001) // =======================================================
(PID.TID 0000.0001) // End MONITOR SEAICE statistics
(PID.TID 0000.0001) // =======================================================
(PID.TID 0000.0001) // =======================================================
(PID.TID 0000.0001) // Begin MONITOR dynamic field statistics
(PID.TID 0000.0001) // =======================================================
(PID.TID 0000.0001) %MON time_tsnumber                =                174674
(PID.TID 0000.0001) %MON time_secondsf                =   7.8603300000000E+07
(PID.TID 0000.0001) %MON dynstat_eta_max              =   3.1558827988531E+00
(PID.TID 0000.0001) %MON dynstat_eta_min              =  -1.0691536127621E+01
(PID.TID 0000.0001) %MON dynstat_eta_mean             =   6.3756959231626E-02
(PID.TID 0000.0001) %MON dynstat_eta_sd               =   8.3703417491931E-01
(PID.TID 0000.0001) %MON dynstat_eta_del2             =   2.0434275203086E-03
(PID.TID 0000.0001) %MON dynstat_uvel_max             =   1.9379332023998E+00
(PID.TID 0000.0001) %MON dynstat_uvel_min             =  -1.8708733209523E+00
(PID.TID 0000.0001) %MON dynstat_uvel_mean            =   1.9171699838767E-03
(PID.TID 0000.0001) %MON dynstat_uvel_sd              =   3.1058490315708E-02
(PID.TID 0000.0001) %MON dynstat_uvel_del2            =   2.6477210157105E-05
(PID.TID 0000.0001) %MON dynstat_vvel_max             =   1.3867550277685E+00
(PID.TID 0000.0001) %MON dynstat_vvel_min             =  -2.2854560038358E+00
(PID.TID 0000.0001) %MON dynstat_vvel_mean            =   8.2896716106691E-04
(PID.TID 0000.0001) %MON dynstat_vvel_sd              =   3.0390910074902E-02
(PID.TID 0000.0001) %MON dynstat_vvel_del2            =   2.5569699808612E-05
(PID.TID 0000.0001) %MON dynstat_wvel_max             =   7.9331714134072E-03
(PID.TID 0000.0001) %MON dynstat_wvel_min             =  -9.6307261638006E-03
(PID.TID 0000.0001) %MON dynstat_wvel_mean            =   1.6717594021714E-07
(PID.TID 0000.0001) %MON dynstat_wvel_sd              =   8.1854659352799E-05
(PID.TID 0000.0001) %MON dynstat_wvel_del2            =   1.6869622966400E-07
(PID.TID 0000.0001) %MON dynstat_theta_max            =   3.2412636875980E+01
(PID.TID 0000.0001) %MON dynstat_theta_min            =  -2.0227287446375E+00
(PID.TID 0000.0001) %MON dynstat_theta_mean           =   3.5922068278687E+00
(PID.TID 0000.0001) %MON dynstat_theta_sd             =   4.4422191743252E+00
(PID.TID 0000.0001) %MON dynstat_theta_del2           =   1.1839940466895E-04
(PID.TID 0000.0001) %MON dynstat_salt_max             =   4.0655995864229E+01
(PID.TID 0000.0001) %MON dynstat_salt_min             =   1.6234316401582E+01
(PID.TID 0000.0001) %MON dynstat_salt_mean            =   3.4724852351386E+01
(PID.TID 0000.0001) %MON dynstat_salt_sd              =   3.7956988870300E-01
(PID.TID 0000.0001) %MON dynstat_salt_del2            =   7.5886672146235E-05
(PID.TID 0000.0001) %MON dynstat_sst_max              =   3.2412636875980E+01
(PID.TID 0000.0001) %MON dynstat_sst_min              =  -2.0227287446375E+00
(PID.TID 0000.0001) %MON dynstat_sst_mean             =   1.8175254824637E+01
(PID.TID 0000.0001) %MON dynstat_sst_sd               =   1.0147959871012E+01
(PID.TID 0000.0001) %MON dynstat_sst_del2             =   1.1458364807400E-03
(PID.TID 0000.0001) %MON dynstat_sss_max              =   3.9475274486709E+01
(PID.TID 0000.0001) %MON dynstat_sss_min              =   1.6234316401582E+01
(PID.TID 0000.0001) %MON dynstat_sss_mean             =   3.4652004566564E+01
(PID.TID 0000.0001) %MON dynstat_sss_sd               =   1.2836542522145E+00
(PID.TID 0000.0001) %MON dynstat_sss_del2             =   1.4605135497081E-03
(PID.TID 0000.0001) %MON forcing_qnet_max             =   3.8621126429357E+03
(PID.TID 0000.0001) %MON forcing_qnet_min             =  -5.9981801757812E+03
(PID.TID 0000.0001) %MON forcing_qnet_mean            =   1.2082760326217E+01
(PID.TID 0000.0001) %MON forcing_qnet_sd              =   2.3370935716129E+02
(PID.TID 0000.0001) %MON forcing_qnet_del2            =   8.8375614260663E-01
(PID.TID 0000.0001) %MON forcing_qsw_max              =   0.0000000000000E+00
(PID.TID 0000.0001) %MON forcing_qsw_min              =  -1.0641535005525E+02
(PID.TID 0000.0001) %MON forcing_qsw_mean             =  -1.5294942642720E+01
(PID.TID 0000.0001) %MON forcing_qsw_sd               =   2.5504367212298E+01
(PID.TID 0000.0001) %MON forcing_qsw_del2             =   2.0998626194283E-02
(PID.TID 0000.0001) %MON forcing_empmr_max            =   3.5073984414339E-02
(PID.TID 0000.0001) %MON forcing_empmr_min            =  -4.3403763324022E-02
(PID.TID 0000.0001) %MON forcing_empmr_mean           =   1.3165358828271E-05
(PID.TID 0000.0001) %MON forcing_empmr_sd             =   4.3870507996545E-04
(PID.TID 0000.0001) %MON forcing_empmr_del2           =   4.9323256984945E-06
(PID.TID 0000.0001) %MON forcing_fu_max               =   9.2862977146710E-01
(PID.TID 0000.0001) %MON forcing_fu_min               =  -7.6354992389679E-01
(PID.TID 0000.0001) %MON forcing_fu_mean              =   8.5065270690110E-03
(PID.TID 0000.0001) %MON forcing_fu_sd                =   1.1580716683267E-01
(PID.TID 0000.0001) %MON forcing_fu_del2              =   1.4591844822085E-04
(PID.TID 0000.0001) %MON forcing_fv_max               =   8.7977942824364E-01
(PID.TID 0000.0001) %MON forcing_fv_min               =  -1.3353341503834E+00
(PID.TID 0000.0001) %MON forcing_fv_mean              =  -1.5887624713985E-03
(PID.TID 0000.0001) %MON forcing_fv_sd                =   1.0900167362158E-01
(PID.TID 0000.0001) %MON forcing_fv_del2              =   1.4826345596996E-04
(PID.TID 0000.0001) %MON trAdv_CFL_u_max              =   1.9297420215248E-02
(PID.TID 0000.0001) %MON trAdv_CFL_v_max              =   2.3117788178927E-02
(PID.TID 0000.0001) %MON trAdv_CFL_w_max              =   8.3870929038436E-02
(PID.TID 0000.0001) %MON advcfl_uvel_max              =   1.9555550092040E-02
(PID.TID 0000.0001) %MON advcfl_vvel_max              =   2.3200321743369E-02
(PID.TID 0000.0001) %MON advcfl_wvel_max              =   8.7439904742200E-02
(PID.TID 0000.0001) %MON advcfl_W_hf_max              =   9.1326122730742E-02
(PID.TID 0000.0001) %MON pe_b_mean                    =   1.8720633274998E-03
(PID.TID 0000.0001) %MON ke_max                       =   2.6610940627921E+00
(PID.TID 0000.0001) %MON ke_mean                      =   9.1259189776457E-04
(PID.TID 0000.0001) %MON ke_vol                       =   1.3350064351420E+18
(PID.TID 0000.0001) %MON vort_r_min                   =  -7.4793616725628E-05
(PID.TID 0000.0001) %MON vort_r_max                   =   7.1516501030485E-05
(PID.TID 0000.0001) %MON vort_a_mean                  =  -1.9725063355719E-05
(PID.TID 0000.0001) %MON vort_a_sd                    =   7.4538944468236E-05
(PID.TID 0000.0001) %MON vort_p_mean                  =  -2.1669066982960E-05
(PID.TID 0000.0001) %MON vort_p_sd                    =   9.3608245277955E-05
(PID.TID 0000.0001) %MON surfExpan_theta_mean         =   2.1192802518504E-05
(PID.TID 0000.0001) %MON surfExpan_salt_mean          =   8.6499581795986E-06
(PID.TID 0000.0001) // =======================================================
(PID.TID 0000.0001) // End MONITOR dynamic field statistics
(PID.TID 0000.0001) // =======================================================
(PID.TID 0000.0001) // =======================================================
(PID.TID 0000.0001) // Begin MONITOR SEAICE statistics
(PID.TID 0000.0001) // =======================================================
(PID.TID 0000.0001) %MON seaice_tsnumber              =                174674
(PID.TID 0000.0001) %MON seaice_time_sec              =   7.8603300000000E+07
(PID.TID 0000.0001) %MON seaice_uice_max              =   1.8229029005555E+00
(PID.TID 0000.0001) %MON seaice_uice_min              =  -1.5661854637434E+00
(PID.TID 0000.0001) %MON seaice_uice_mean             =   1.0506796857984E-03
(PID.TID 0000.0001) %MON seaice_uice_sd               =   1.6409315763630E-01
(PID.TID 0000.0001) %MON seaice_uice_del2             =   3.3569478698401E-04
(PID.TID 0000.0001) %MON seaice_vice_max              =   1.3517002249929E+00
(PID.TID 0000.0001) %MON seaice_vice_min              =  -1.9258623554760E+00
(PID.TID 0000.0001) %MON seaice_vice_mean             =  -2.6122646735943E-02
(PID.TID 0000.0001) %MON seaice_vice_sd               =   1.7019988728391E-01
(PID.TID 0000.0001) %MON seaice_vice_del2             =   3.2171244842946E-04
(PID.TID 0000.0001) %MON seaice_area_max              =   1.0069237468585E+00
(PID.TID 0000.0001) %MON seaice_area_min              =   0.0000000000000E+00
(PID.TID 0000.0001) %MON seaice_area_mean             =   5.7248124084187E-02
(PID.TID 0000.0001) %MON seaice_area_sd               =   2.2176628817533E-01
(PID.TID 0000.0001) %MON seaice_area_del2             =   3.2887313330881E-04
(PID.TID 0000.0001) %MON seaice_heff_max              =   9.9494581591186E+00
(PID.TID 0000.0001) %MON seaice_heff_min              =   0.0000000000000E+00
(PID.TID 0000.0001) %MON seaice_heff_mean             =   1.5012052338571E-01
(PID.TID 0000.0001) %MON seaice_heff_sd               =   7.2178282402267E-01
(PID.TID 0000.0001) %MON seaice_heff_del2             =   1.5166189272700E-03
(PID.TID 0000.0001) %MON seaice_hsnow_max             =   3.2863298964958E+00
(PID.TID 0000.0001) %MON seaice_hsnow_min             =   0.0000000000000E+00
(PID.TID 0000.0001) %MON seaice_hsnow_mean            =   1.2750173185522E-02
(PID.TID 0000.0001) %MON seaice_hsnow_sd              =   6.9396807647563E-02
(PID.TID 0000.0001) %MON seaice_hsnow_del2            =   4.2548104827292E-04
(PID.TID 0000.0001) // =======================================================
(PID.TID 0000.0001) // End MONITOR SEAICE statistics
(PID.TID 0000.0001) // =======================================================
(PID.TID 0000.0001) // =======================================================
(PID.TID 0000.0001) // Begin MONITOR dynamic field statistics
(PID.TID 0000.0001) // =======================================================
(PID.TID 0000.0001) %MON time_tsnumber                =                174675
(PID.TID 0000.0001) %MON time_secondsf                =   7.8603750000000E+07
(PID.TID 0000.0001) %MON dynstat_eta_max              =   3.1804398385152E+00
(PID.TID 0000.0001) %MON dynstat_eta_min              =  -1.0774402711399E+01
(PID.TID 0000.0001) %MON dynstat_eta_mean             =   6.3861310229450E-02
(PID.TID 0000.0001) %MON dynstat_eta_sd               =   8.3751837068953E-01
(PID.TID 0000.0001) %MON dynstat_eta_del2             =   2.0418824375291E-03
(PID.TID 0000.0001) %MON dynstat_uvel_max             =   1.9495317927668E+00
(PID.TID 0000.0001) %MON dynstat_uvel_min             =  -1.8956607592537E+00
(PID.TID 0000.0001) %MON dynstat_uvel_mean            =   1.9354285409742E-03
(PID.TID 0000.0001) %MON dynstat_uvel_sd              =   3.1073479896054E-02
(PID.TID 0000.0001) %MON dynstat_uvel_del2            =   2.6617747799275E-05
(PID.TID 0000.0001) %MON dynstat_vvel_max             =   1.4044167854445E+00
(PID.TID 0000.0001) %MON dynstat_vvel_min             =  -2.3084169596642E+00
(PID.TID 0000.0001) %MON dynstat_vvel_mean            =   8.6506169357890E-04
(PID.TID 0000.0001) %MON dynstat_vvel_sd              =   3.0397459295399E-02
(PID.TID 0000.0001) %MON dynstat_vvel_del2            =   2.5682502207531E-05
(PID.TID 0000.0001) %MON dynstat_wvel_max             =   8.0297806456375E-03
(PID.TID 0000.0001) %MON dynstat_wvel_min             =  -9.7672029753200E-03
(PID.TID 0000.0001) %MON dynstat_wvel_mean            =   1.7329633726047E-07
(PID.TID 0000.0001) %MON dynstat_wvel_sd              =   8.2130969402692E-05
(PID.TID 0000.0001) %MON dynstat_wvel_del2            =   1.6986846578492E-07
(PID.TID 0000.0001) %MON dynstat_theta_max            =   3.2414118989449E+01
(PID.TID 0000.0001) %MON dynstat_theta_min            =  -2.0235544037811E+00
(PID.TID 0000.0001) %MON dynstat_theta_mean           =   3.5922040991844E+00
(PID.TID 0000.0001) %MON dynstat_theta_sd             =   4.4422129689657E+00
(PID.TID 0000.0001) %MON dynstat_theta_del2           =   1.1843055060116E-04
(PID.TID 0000.0001) %MON dynstat_salt_max             =   4.0655995864180E+01
(PID.TID 0000.0001) %MON dynstat_salt_min             =   1.6233341635509E+01
(PID.TID 0000.0001) %MON dynstat_salt_mean            =   3.4724851963266E+01
(PID.TID 0000.0001) %MON dynstat_salt_sd              =   3.7957139844479E-01
(PID.TID 0000.0001) %MON dynstat_salt_del2            =   7.5739158895593E-05
(PID.TID 0000.0001) %MON dynstat_sst_max              =   3.2414118989449E+01
(PID.TID 0000.0001) %MON dynstat_sst_min              =  -2.0235544037811E+00
(PID.TID 0000.0001) %MON dynstat_sst_mean             =   1.8175129434166E+01
(PID.TID 0000.0001) %MON dynstat_sst_sd               =   1.0148186319788E+01
(PID.TID 0000.0001) %MON dynstat_sst_del2             =   1.1452429250396E-03
(PID.TID 0000.0001) %MON dynstat_sss_max              =   3.9475120245128E+01
(PID.TID 0000.0001) %MON dynstat_sss_min              =   1.6233341635509E+01
(PID.TID 0000.0001) %MON dynstat_sss_mean             =   3.4651914826469E+01
(PID.TID 0000.0001) %MON dynstat_sss_sd               =   1.2838137102716E+00
(PID.TID 0000.0001) %MON dynstat_sss_del2             =   1.4592225163292E-03
(PID.TID 0000.0001) %MON forcing_qnet_max             =   3.7931126734408E+03
(PID.TID 0000.0001) %MON forcing_qnet_min             =  -2.9295290251049E+03
(PID.TID 0000.0001) %MON forcing_qnet_mean            =   1.2011813001886E+01
(PID.TID 0000.0001) %MON forcing_qnet_sd              =   2.3190857836992E+02
(PID.TID 0000.0001) %MON forcing_qnet_del2            =   8.3567696461501E-01
(PID.TID 0000.0001) %MON forcing_qsw_max              =   0.0000000000000E+00
(PID.TID 0000.0001) %MON forcing_qsw_min              =  -1.0710662465278E+02
(PID.TID 0000.0001) %MON forcing_qsw_mean             =  -1.5309485859359E+01
(PID.TID 0000.0001) %MON forcing_qsw_sd               =   2.5543592920654E+01
(PID.TID 0000.0001) %MON forcing_qsw_del2             =   2.1062277311907E-02
(PID.TID 0000.0001) %MON forcing_empmr_max            =   3.4734416753054E-02
(PID.TID 0000.0001) %MON forcing_empmr_min            =  -4.4687733054161E-02
(PID.TID 0000.0001) %MON forcing_empmr_mean           =   1.3075569320002E-05
(PID.TID 0000.0001) %MON forcing_empmr_sd             =   4.3885131068147E-04
(PID.TID 0000.0001) %MON forcing_empmr_del2           =   4.9309637292759E-06
(PID.TID 0000.0001) %MON forcing_fu_max               =   9.1454547643570E-01
(PID.TID 0000.0001) %MON forcing_fu_min               =  -7.6642301678658E-01
(PID.TID 0000.0001) %MON forcing_fu_mean              =   8.5256671772804E-03
(PID.TID 0000.0001) %MON forcing_fu_sd                =   1.1591661830667E-01
(PID.TID 0000.0001) %MON forcing_fu_del2              =   1.4605949931333E-04
(PID.TID 0000.0001) %MON forcing_fv_max               =   8.7744259834290E-01
(PID.TID 0000.0001) %MON forcing_fv_min               =  -1.3563809013102E+00
(PID.TID 0000.0001) %MON forcing_fv_mean              =  -1.6188612839313E-03
(PID.TID 0000.0001) %MON forcing_fv_sd                =   1.0894105470506E-01
(PID.TID 0000.0001) %MON forcing_fv_del2              =   1.4797213126566E-04
(PID.TID 0000.0001) %MON trAdv_CFL_u_max              =   1.9553094187186E-02
(PID.TID 0000.0001) %MON trAdv_CFL_v_max              =   2.3350042272787E-02
(PID.TID 0000.0001) %MON trAdv_CFL_w_max              =   8.3014372922844E-02
(PID.TID 0000.0001) %MON advcfl_uvel_max              =   1.9814644059508E-02
(PID.TID 0000.0001) %MON advcfl_vvel_max              =   2.3433405015093E-02
(PID.TID 0000.0001) %MON advcfl_wvel_max              =   8.6546899430199E-02
(PID.TID 0000.0001) %MON advcfl_W_hf_max              =   9.0419869266243E-02
(PID.TID 0000.0001) %MON pe_b_mean                    =   1.8734343344053E-03
(PID.TID 0000.0001) %MON ke_max                       =   2.7014343951187E+00
(PID.TID 0000.0001) %MON ke_mean                      =   9.1329630326346E-04
(PID.TID 0000.0001) %MON ke_vol                       =   1.3350064351420E+18
(PID.TID 0000.0001) %MON vort_r_min                   =  -7.5589942705802E-05
(PID.TID 0000.0001) %MON vort_r_max                   =   7.2371596769256E-05
(PID.TID 0000.0001) %MON vort_a_mean                  =  -1.9725063624689E-05
(PID.TID 0000.0001) %MON vort_a_sd                    =   7.4538965322478E-05
(PID.TID 0000.0001) %MON vort_p_mean                  =  -2.1669067278438E-05
(PID.TID 0000.0001) %MON vort_p_sd                    =   9.3608255325063E-05
(PID.TID 0000.0001) %MON surfExpan_theta_mean         =   2.0508304217448E-05
(PID.TID 0000.0001) %MON surfExpan_salt_mean          =   8.6230702194347E-06
(PID.TID 0000.0001) // =======================================================
(PID.TID 0000.0001) // End MONITOR dynamic field statistics
(PID.TID 0000.0001) // =======================================================
(PID.TID 0000.0001) // =======================================================
(PID.TID 0000.0001) // Begin MONITOR SEAICE statistics
(PID.TID 0000.0001) // =======================================================
(PID.TID 0000.0001) %MON seaice_tsnumber              =                174675
(PID.TID 0000.0001) %MON seaice_time_sec              =   7.8603750000000E+07
(PID.TID 0000.0001) %MON seaice_uice_max              =   1.8134000974143E+00
(PID.TID 0000.0001) %MON seaice_uice_min              =  -1.5305976784608E+00
(PID.TID 0000.0001) %MON seaice_uice_mean             =   1.1070519134929E-03
(PID.TID 0000.0001) %MON seaice_uice_sd               =   1.6376590454894E-01
(PID.TID 0000.0001) %MON seaice_uice_del2             =   3.3514613532087E-04
(PID.TID 0000.0001) %MON seaice_vice_max              =   1.3792347664488E+00
(PID.TID 0000.0001) %MON seaice_vice_min              =  -1.9572888955307E+00
(PID.TID 0000.0001) %MON seaice_vice_mean             =  -2.5999952932642E-02
(PID.TID 0000.0001) %MON seaice_vice_sd               =   1.6997951388833E-01
(PID.TID 0000.0001) %MON seaice_vice_del2             =   3.2033449457936E-04
(PID.TID 0000.0001) %MON seaice_area_max              =   1.0068515849297E+00
(PID.TID 0000.0001) %MON seaice_area_min              =   0.0000000000000E+00
(PID.TID 0000.0001) %MON seaice_area_mean             =   5.7248906396713E-02
(PID.TID 0000.0001) %MON seaice_area_sd               =   2.2175915594126E-01
(PID.TID 0000.0001) %MON seaice_area_del2             =   3.2843604554243E-04
(PID.TID 0000.0001) %MON seaice_heff_max              =   9.9494467537590E+00
(PID.TID 0000.0001) %MON seaice_heff_min              =   0.0000000000000E+00
(PID.TID 0000.0001) %MON seaice_heff_mean             =   1.5011744498610E-01
(PID.TID 0000.0001) %MON seaice_heff_sd               =   7.2177459034822E-01
(PID.TID 0000.0001) %MON seaice_heff_del2             =   1.5152268847868E-03
(PID.TID 0000.0001) %MON seaice_hsnow_max             =   3.2863266646644E+00
(PID.TID 0000.0001) %MON seaice_hsnow_min             =   0.0000000000000E+00
(PID.TID 0000.0001) %MON seaice_hsnow_mean            =   1.2749605424919E-02
(PID.TID 0000.0001) %MON seaice_hsnow_sd              =   6.9386951074093E-02
(PID.TID 0000.0001) %MON seaice_hsnow_del2            =   4.2504441474448E-04
(PID.TID 0000.0001) // =======================================================
(PID.TID 0000.0001) // End MONITOR SEAICE statistics
(PID.TID 0000.0001) // =======================================================
(PID.TID 0000.0001) // =======================================================
(PID.TID 0000.0001) // Begin MONITOR dynamic field statistics
(PID.TID 0000.0001) // =======================================================
(PID.TID 0000.0001) %MON time_tsnumber                =                174676
(PID.TID 0000.0001) %MON time_secondsf                =   7.8604200000000E+07
(PID.TID 0000.0001) %MON dynstat_eta_max              =   3.1727160637976E+00
(PID.TID 0000.0001) %MON dynstat_eta_min              =  -1.0865412913374E+01
(PID.TID 0000.0001) %MON dynstat_eta_mean             =   6.3966979959226E-02
(PID.TID 0000.0001) %MON dynstat_eta_sd               =   8.3795006437565E-01
(PID.TID 0000.0001) %MON dynstat_eta_del2             =   2.0402541193949E-03
(PID.TID 0000.0001) %MON dynstat_uvel_max             =   1.9567626679382E+00
(PID.TID 0000.0001) %MON dynstat_uvel_min             =  -1.9201286387399E+00
(PID.TID 0000.0001) %MON dynstat_uvel_mean            =   1.9489813738248E-03
(PID.TID 0000.0001) %MON dynstat_uvel_sd              =   3.1089220419565E-02
(PID.TID 0000.0001) %MON dynstat_uvel_del2            =   2.6757810591077E-05
(PID.TID 0000.0001) %MON dynstat_vvel_max             =   1.4168168670726E+00
(PID.TID 0000.0001) %MON dynstat_vvel_min             =  -2.3265959683772E+00
(PID.TID 0000.0001) %MON dynstat_vvel_mean            =   8.9670074511651E-04
(PID.TID 0000.0001) %MON dynstat_vvel_sd              =   3.0403777572193E-02
(PID.TID 0000.0001) %MON dynstat_vvel_del2            =   2.5800841249324E-05
(PID.TID 0000.0001) %MON dynstat_wvel_max             =   8.1246388270734E-03
(PID.TID 0000.0001) %MON dynstat_wvel_min             =  -9.9011334580295E-03
(PID.TID 0000.0001) %MON dynstat_wvel_mean            =   1.7962422736056E-07
(PID.TID 0000.0001) %MON dynstat_wvel_sd              =   8.2418050899904E-05
(PID.TID 0000.0001) %MON dynstat_wvel_del2            =   1.7105036776325E-07
(PID.TID 0000.0001) %MON dynstat_theta_max            =   3.2415877256542E+01
(PID.TID 0000.0001) %MON dynstat_theta_min            =  -2.0243581688038E+00
(PID.TID 0000.0001) %MON dynstat_theta_mean           =   3.5922014534762E+00
(PID.TID 0000.0001) %MON dynstat_theta_sd             =   4.4422068563490E+00
(PID.TID 0000.0001) %MON dynstat_theta_del2           =   1.1846066698427E-04
(PID.TID 0000.0001) %MON dynstat_salt_max             =   4.0655995864131E+01
(PID.TID 0000.0001) %MON dynstat_salt_min             =   1.6232289201506E+01
(PID.TID 0000.0001) %MON dynstat_salt_mean            =   3.4724851589452E+01
(PID.TID 0000.0001) %MON dynstat_salt_sd              =   3.7957277895592E-01
(PID.TID 0000.0001) %MON dynstat_salt_del2            =   7.5592462360269E-05
(PID.TID 0000.0001) %MON dynstat_sst_max              =   3.2415877256542E+01
(PID.TID 0000.0001) %MON dynstat_sst_min              =  -2.0243581688038E+00
(PID.TID 0000.0001) %MON dynstat_sst_mean             =   1.8175010946858E+01
(PID.TID 0000.0001) %MON dynstat_sst_sd               =   1.0148413822792E+01
(PID.TID 0000.0001) %MON dynstat_sst_del2             =   1.1447280968632E-03
(PID.TID 0000.0001) %MON dynstat_sss_max              =   3.9475000354332E+01
(PID.TID 0000.0001) %MON dynstat_sss_min              =   1.6232289201506E+01
(PID.TID 0000.0001) %MON dynstat_sss_mean             =   3.4651824918321E+01
(PID.TID 0000.0001) %MON dynstat_sss_sd               =   1.2839698832779E+00
(PID.TID 0000.0001) %MON dynstat_sss_del2             =   1.4579250498408E-03
(PID.TID 0000.0001) %MON forcing_qnet_max             =   3.6123976501023E+03
(PID.TID 0000.0001) %MON forcing_qnet_min             =  -6.4171333007812E+03
(PID.TID 0000.0001) %MON forcing_qnet_mean            =   1.1789552767552E+01
(PID.TID 0000.0001) %MON forcing_qnet_sd              =   2.3335996175068E+02
(PID.TID 0000.0001) %MON forcing_qnet_del2            =   8.8333114265322E-01
(PID.TID 0000.0001) %MON forcing_qsw_max              =   0.0000000000000E+00
(PID.TID 0000.0001) %MON forcing_qsw_min              =  -1.0768339854514E+02
(PID.TID 0000.0001) %MON forcing_qsw_mean             =  -1.5313400153014E+01
(PID.TID 0000.0001) %MON forcing_qsw_sd               =   2.5583689548770E+01
(PID.TID 0000.0001) %MON forcing_qsw_del2             =   2.1117509048546E-02
(PID.TID 0000.0001) %MON forcing_empmr_max            =   3.4019060432911E-02
(PID.TID 0000.0001) %MON forcing_empmr_min            =  -4.0528435260057E-02
(PID.TID 0000.0001) %MON forcing_empmr_mean           =   1.2603169402779E-05
(PID.TID 0000.0001) %MON forcing_empmr_sd             =   4.3106599742055E-04
(PID.TID 0000.0001) %MON forcing_empmr_del2           =   4.8489930186153E-06
(PID.TID 0000.0001) %MON forcing_fu_max               =   9.0743259810762E-01
(PID.TID 0000.0001) %MON forcing_fu_min               =  -7.6962414383888E-01
(PID.TID 0000.0001) %MON forcing_fu_mean              =   8.5351066055930E-03
(PID.TID 0000.0001) %MON forcing_fu_sd                =   1.1599767252083E-01
(PID.TID 0000.0001) %MON forcing_fu_del2              =   1.4618713568912E-04
(PID.TID 0000.0001) %MON forcing_fv_max               =   8.7460821866989E-01
(PID.TID 0000.0001) %MON forcing_fv_min               =  -1.3656421615880E+00
(PID.TID 0000.0001) %MON forcing_fv_mean              =  -1.6483032713459E-03
(PID.TID 0000.0001) %MON forcing_fv_sd                =   1.0887545928565E-01
(PID.TID 0000.0001) %MON forcing_fv_del2              =   1.4764386850170E-04
(PID.TID 0000.0001) %MON trAdv_CFL_u_max              =   1.9805472018936E-02
(PID.TID 0000.0001) %MON trAdv_CFL_v_max              =   2.3533926133173E-02
(PID.TID 0000.0001) %MON trAdv_CFL_w_max              =   8.1777004213582E-02
(PID.TID 0000.0001) %MON advcfl_uvel_max              =   2.0070397796321E-02
(PID.TID 0000.0001) %MON advcfl_vvel_max              =   2.3617945365206E-02
(PID.TID 0000.0001) %MON advcfl_wvel_max              =   8.5256876733309E-02
(PID.TID 0000.0001) %MON advcfl_W_hf_max              =   8.9148843615984E-02
(PID.TID 0000.0001) %MON pe_b_mean                    =   1.8747466123714E-03
(PID.TID 0000.0001) %MON ke_max                       =   2.7313252317521E+00
(PID.TID 0000.0001) %MON ke_mean                      =   9.1400556626674E-04
(PID.TID 0000.0001) %MON ke_vol                       =   1.3350064351420E+18
(PID.TID 0000.0001) %MON vort_r_min                   =  -7.6370719548674E-05
(PID.TID 0000.0001) %MON vort_r_max                   =   7.3217248145997E-05
(PID.TID 0000.0001) %MON vort_a_mean                  =  -1.9725063945121E-05
(PID.TID 0000.0001) %MON vort_a_sd                    =   7.4538985926021E-05
(PID.TID 0000.0001) %MON vort_p_mean                  =  -2.1669067630451E-05
(PID.TID 0000.0001) %MON vort_p_sd                    =   9.3608262157562E-05
(PID.TID 0000.0001) %MON surfExpan_theta_mean         =   1.9785126292275E-05
(PID.TID 0000.0001) %MON surfExpan_salt_mean          =   8.6077087705305E-06
(PID.TID 0000.0001) // =======================================================
(PID.TID 0000.0001) // End MONITOR dynamic field statistics
(PID.TID 0000.0001) // =======================================================
(PID.TID 0000.0001) // =======================================================
(PID.TID 0000.0001) // Begin MONITOR SEAICE statistics
(PID.TID 0000.0001) // =======================================================
(PID.TID 0000.0001) %MON seaice_tsnumber              =                174676
(PID.TID 0000.0001) %MON seaice_time_sec              =   7.8604200000000E+07
(PID.TID 0000.0001) %MON seaice_uice_max              =   1.8036220649922E+00
(PID.TID 0000.0001) %MON seaice_uice_min              =  -1.4880516365422E+00
(PID.TID 0000.0001) %MON seaice_uice_mean             =   1.1577374442974E-03
(PID.TID 0000.0001) %MON seaice_uice_sd               =   1.6344534308684E-01
(PID.TID 0000.0001) %MON seaice_uice_del2             =   3.3484120574652E-04
(PID.TID 0000.0001) %MON seaice_vice_max              =   1.4010732712994E+00
(PID.TID 0000.0001) %MON seaice_vice_min              =  -1.9846895047880E+00
(PID.TID 0000.0001) %MON seaice_vice_mean             =  -2.5880055894200E-02
(PID.TID 0000.0001) %MON seaice_vice_sd               =   1.6976544129221E-01
(PID.TID 0000.0001) %MON seaice_vice_del2             =   3.1952334721463E-04
(PID.TID 0000.0001) %MON seaice_area_max              =   1.0067790315255E+00
(PID.TID 0000.0001) %MON seaice_area_min              =   0.0000000000000E+00
(PID.TID 0000.0001) %MON seaice_area_mean             =   5.7249718980122E-02
(PID.TID 0000.0001) %MON seaice_area_sd               =   2.2175208245868E-01
(PID.TID 0000.0001) %MON seaice_area_del2             =   3.2799474399213E-04
(PID.TID 0000.0001) %MON seaice_heff_max              =   9.9494248720044E+00
(PID.TID 0000.0001) %MON seaice_heff_min              =   0.0000000000000E+00
(PID.TID 0000.0001) %MON seaice_heff_mean             =   1.5011436765966E-01
(PID.TID 0000.0001) %MON seaice_heff_sd               =   7.2176630539275E-01
(PID.TID 0000.0001) %MON seaice_heff_del2             =   1.5138409019875E-03
(PID.TID 0000.0001) %MON seaice_hsnow_max             =   3.2863194935469E+00
(PID.TID 0000.0001) %MON seaice_hsnow_min             =   0.0000000000000E+00
(PID.TID 0000.0001) %MON seaice_hsnow_mean            =   1.2749033574550E-02
(PID.TID 0000.0001) %MON seaice_hsnow_sd              =   6.9377235645035E-02
(PID.TID 0000.0001) %MON seaice_hsnow_del2            =   4.2461006806688E-04
(PID.TID 0000.0001) // =======================================================
(PID.TID 0000.0001) // End MONITOR SEAICE statistics
(PID.TID 0000.0001) // =======================================================
(PID.TID 0000.0001) // =======================================================
(PID.TID 0000.0001) // Begin MONITOR dynamic field statistics
(PID.TID 0000.0001) // =======================================================
(PID.TID 0000.0001) %MON time_tsnumber                =                174677
(PID.TID 0000.0001) %MON time_secondsf                =   7.8604650000000E+07
(PID.TID 0000.0001) %MON dynstat_eta_max              =   3.1317889766850E+00
(PID.TID 0000.0001) %MON dynstat_eta_min              =  -1.0962025010052E+01
(PID.TID 0000.0001) %MON dynstat_eta_mean             =   6.4074110812259E-02
(PID.TID 0000.0001) %MON dynstat_eta_sd               =   8.3832346045059E-01
(PID.TID 0000.0001) %MON dynstat_eta_del2             =   2.0385931814475E-03
(PID.TID 0000.0001) %MON dynstat_uvel_max             =   1.9571959931585E+00
(PID.TID 0000.0001) %MON dynstat_uvel_min             =  -1.9442201889677E+00
(PID.TID 0000.0001) %MON dynstat_uvel_mean            =   1.9579598164376E-03
(PID.TID 0000.0001) %MON dynstat_uvel_sd              =   3.1105674800987E-02
(PID.TID 0000.0001) %MON dynstat_uvel_del2            =   2.6896701727717E-05
(PID.TID 0000.0001) %MON dynstat_vvel_max             =   1.4240916309996E+00
(PID.TID 0000.0001) %MON dynstat_vvel_min             =  -2.3398570767952E+00
(PID.TID 0000.0001) %MON dynstat_vvel_mean            =   9.2373369789867E-04
(PID.TID 0000.0001) %MON dynstat_vvel_sd              =   3.0410089640624E-02
(PID.TID 0000.0001) %MON dynstat_vvel_del2            =   2.5923828289721E-05
(PID.TID 0000.0001) %MON dynstat_wvel_max             =   8.2174657011122E-03
(PID.TID 0000.0001) %MON dynstat_wvel_min             =  -1.0031448572820E-02
(PID.TID 0000.0001) %MON dynstat_wvel_mean            =   1.8612086567212E-07
(PID.TID 0000.0001) %MON dynstat_wvel_sd              =   8.2719352420164E-05
(PID.TID 0000.0001) %MON dynstat_wvel_del2            =   1.7224281902179E-07
(PID.TID 0000.0001) %MON dynstat_theta_max            =   3.2417918254287E+01
(PID.TID 0000.0001) %MON dynstat_theta_min            =  -2.0251350435093E+00
(PID.TID 0000.0001) %MON dynstat_theta_mean           =   3.5921989636552E+00
(PID.TID 0000.0001) %MON dynstat_theta_sd             =   4.4422010668896E+00
(PID.TID 0000.0001) %MON dynstat_theta_del2           =   1.1849282001284E-04
(PID.TID 0000.0001) %MON dynstat_salt_max             =   4.0655995864081E+01
(PID.TID 0000.0001) %MON dynstat_salt_min             =   1.6231182891018E+01
(PID.TID 0000.0001) %MON dynstat_salt_mean            =   3.4724851230602E+01
(PID.TID 0000.0001) %MON dynstat_salt_sd              =   3.7957405367928E-01
(PID.TID 0000.0001) %MON dynstat_salt_del2            =   7.5448316455537E-05
(PID.TID 0000.0001) %MON dynstat_sst_max              =   3.2417918254287E+01
(PID.TID 0000.0001) %MON dynstat_sst_min              =  -2.0251350435093E+00
(PID.TID 0000.0001) %MON dynstat_sst_mean             =   1.8174897011320E+01
(PID.TID 0000.0001) %MON dynstat_sst_sd               =   1.0148630456767E+01
(PID.TID 0000.0001) %MON dynstat_sst_del2             =   1.1442180252011E-03
(PID.TID 0000.0001) %MON dynstat_sss_max              =   3.9474912219466E+01
(PID.TID 0000.0001) %MON dynstat_sss_min              =   1.6231182891018E+01
(PID.TID 0000.0001) %MON dynstat_sss_mean             =   3.4651737889399E+01
(PID.TID 0000.0001) %MON dynstat_sss_sd               =   1.2841256218698E+00
(PID.TID 0000.0001) %MON dynstat_sss_del2             =   1.4566845105401E-03
(PID.TID 0000.0001) %MON forcing_qnet_max             =   3.1611998331826E+03
(PID.TID 0000.0001) %MON forcing_qnet_min             =  -1.9730421142578E+03
(PID.TID 0000.0001) %MON forcing_qnet_mean            =   9.2320630553771E+00
(PID.TID 0000.0001) %MON forcing_qnet_sd              =   2.3050498697547E+02
(PID.TID 0000.0001) %MON forcing_qnet_del2            =   8.1224059256908E-01
(PID.TID 0000.0001) %MON forcing_qsw_max              =   0.0000000000000E+00
(PID.TID 0000.0001) %MON forcing_qsw_min              =  -1.0881352490659E+02
(PID.TID 0000.0001) %MON forcing_qsw_mean             =  -1.5531444420592E+01
(PID.TID 0000.0001) %MON forcing_qsw_sd               =   2.6042930310467E+01
(PID.TID 0000.0001) %MON forcing_qsw_del2             =   2.1202605056794E-02
(PID.TID 0000.0001) %MON forcing_empmr_max            =   3.2584067434072E-02
(PID.TID 0000.0001) %MON forcing_empmr_min            =  -4.3533455580473E-02
(PID.TID 0000.0001) %MON forcing_empmr_mean           =   1.2374579875525E-05
(PID.TID 0000.0001) %MON forcing_empmr_sd             =   4.3425566088507E-04
(PID.TID 0000.0001) %MON forcing_empmr_del2           =   4.8828992057169E-06
(PID.TID 0000.0001) %MON forcing_fu_max               =   8.9430090159145E-01
(PID.TID 0000.0001) %MON forcing_fu_min               =  -7.7094393968582E-01
(PID.TID 0000.0001) %MON forcing_fu_mean              =   8.5641785991402E-03
(PID.TID 0000.0001) %MON forcing_fu_sd                =   1.1614521229493E-01
(PID.TID 0000.0001) %MON forcing_fu_del2              =   1.4627609075609E-04
(PID.TID 0000.0001) %MON forcing_fv_max               =   8.6859381198883E-01
(PID.TID 0000.0001) %MON forcing_fv_min               =  -1.3609889841890E+00
(PID.TID 0000.0001) %MON forcing_fv_mean              =  -1.6660223845440E-03
(PID.TID 0000.0001) %MON forcing_fv_sd                =   1.0885923049493E-01
(PID.TID 0000.0001) %MON forcing_fv_del2              =   1.4726852433244E-04
(PID.TID 0000.0001) %MON trAdv_CFL_u_max              =   2.0053968142739E-02
(PID.TID 0000.0001) %MON trAdv_CFL_v_max              =   2.3668064569840E-02
(PID.TID 0000.0001) %MON trAdv_CFL_w_max              =   8.0217270337985E-02
(PID.TID 0000.0001) %MON advcfl_uvel_max              =   2.0322217901937E-02
(PID.TID 0000.0001) %MON advcfl_vvel_max              =   2.3752562693851E-02
(PID.TID 0000.0001) %MON advcfl_wvel_max              =   8.3630771203431E-02
(PID.TID 0000.0001) %MON advcfl_W_hf_max              =   8.7537763259330E-02
(PID.TID 0000.0001) %MON pe_b_mean                    =   1.8759846260863E-03
(PID.TID 0000.0001) %MON ke_max                       =   2.7480782719909E+00
(PID.TID 0000.0001) %MON ke_mean                      =   9.1472471665004E-04
(PID.TID 0000.0001) %MON ke_vol                       =   1.3350064351420E+18
(PID.TID 0000.0001) %MON vort_r_min                   =  -7.7132424493961E-05
(PID.TID 0000.0001) %MON vort_r_max                   =   7.4050205710455E-05
(PID.TID 0000.0001) %MON vort_a_mean                  =  -1.9725064308589E-05
(PID.TID 0000.0001) %MON vort_a_sd                    =   7.4539006206147E-05
(PID.TID 0000.0001) %MON vort_p_mean                  =  -2.1669068029740E-05
(PID.TID 0000.0001) %MON vort_p_sd                    =   9.3608264684321E-05
(PID.TID 0000.0001) %MON surfExpan_theta_mean         =   1.9035794616860E-05
(PID.TID 0000.0001) %MON surfExpan_salt_mean          =   8.6079202604799E-06
(PID.TID 0000.0001) // =======================================================
(PID.TID 0000.0001) // End MONITOR dynamic field statistics
(PID.TID 0000.0001) // =======================================================
(PID.TID 0000.0001) // =======================================================
(PID.TID 0000.0001) // Begin MONITOR SEAICE statistics
(PID.TID 0000.0001) // =======================================================
(PID.TID 0000.0001) %MON seaice_tsnumber              =                174677
(PID.TID 0000.0001) %MON seaice_time_sec              =   7.8604650000000E+07
(PID.TID 0000.0001) %MON seaice_uice_max              =   1.7935844943679E+00
(PID.TID 0000.0001) %MON seaice_uice_min              =  -1.4862951905361E+00
(PID.TID 0000.0001) %MON seaice_uice_mean             =   1.2010666675891E-03
(PID.TID 0000.0001) %MON seaice_uice_sd               =   1.6313574557100E-01
(PID.TID 0000.0001) %MON seaice_uice_del2             =   3.3475289223646E-04
(PID.TID 0000.0001) %MON seaice_vice_max              =   1.4174020835477E+00
(PID.TID 0000.0001) %MON seaice_vice_min              =  -2.0077532782799E+00
(PID.TID 0000.0001) %MON seaice_vice_mean             =  -2.5764018845850E-02
(PID.TID 0000.0001) %MON seaice_vice_sd               =   1.6955533584859E-01
(PID.TID 0000.0001) %MON seaice_vice_del2             =   3.1917755756540E-04
(PID.TID 0000.0001) %MON seaice_area_max              =   1.0067069465150E+00
(PID.TID 0000.0001) %MON seaice_area_min              =   0.0000000000000E+00
(PID.TID 0000.0001) %MON seaice_area_mean             =   5.7250566040921E-02
(PID.TID 0000.0001) %MON seaice_area_sd               =   2.2174505180058E-01
(PID.TID 0000.0001) %MON seaice_area_del2             =   3.2754696781433E-04
(PID.TID 0000.0001) %MON seaice_heff_max              =   9.9494125404227E+00
(PID.TID 0000.0001) %MON seaice_heff_min              =   0.0000000000000E+00
(PID.TID 0000.0001) %MON seaice_heff_mean             =   1.5011129102074E-01
(PID.TID 0000.0001) %MON seaice_heff_sd               =   7.2175795897305E-01
(PID.TID 0000.0001) %MON seaice_heff_del2             =   1.5124557954737E-03
(PID.TID 0000.0001) %MON seaice_hsnow_max             =   3.2863162569625E+00
(PID.TID 0000.0001) %MON seaice_hsnow_min             =   0.0000000000000E+00
(PID.TID 0000.0001) %MON seaice_hsnow_mean            =   1.2748449647685E-02
(PID.TID 0000.0001) %MON seaice_hsnow_sd              =   6.9367650547883E-02
(PID.TID 0000.0001) %MON seaice_hsnow_del2            =   4.2417585137077E-04
(PID.TID 0000.0001) // =======================================================
(PID.TID 0000.0001) // End MONITOR SEAICE statistics
(PID.TID 0000.0001) // =======================================================
(PID.TID 0000.0001) // =======================================================
(PID.TID 0000.0001) // Begin MONITOR dynamic field statistics
(PID.TID 0000.0001) // =======================================================
(PID.TID 0000.0001) %MON time_tsnumber                =                174678
(PID.TID 0000.0001) %MON time_secondsf                =   7.8605100000000E+07
(PID.TID 0000.0001) %MON dynstat_eta_max              =   3.0573494342585E+00
(PID.TID 0000.0001) %MON dynstat_eta_min              =  -1.1061527192054E+01
(PID.TID 0000.0001) %MON dynstat_eta_mean             =   6.4182603550576E-02
(PID.TID 0000.0001) %MON dynstat_eta_sd               =   8.3863438290909E-01
(PID.TID 0000.0001) %MON dynstat_eta_del2             =   2.0369442772189E-03
(PID.TID 0000.0001) %MON dynstat_uvel_max             =   1.9454611818970E+00
(PID.TID 0000.0001) %MON dynstat_uvel_min             =  -1.9678759552439E+00
(PID.TID 0000.0001) %MON dynstat_uvel_mean            =   1.9625378661916E-03
(PID.TID 0000.0001) %MON dynstat_uvel_sd              =   3.1122966017447E-02
(PID.TID 0000.0001) %MON dynstat_uvel_del2            =   2.7033654956472E-05
(PID.TID 0000.0001) %MON dynstat_vvel_max             =   1.4263607123848E+00
(PID.TID 0000.0001) %MON dynstat_vvel_min             =  -2.3480378521442E+00
(PID.TID 0000.0001) %MON dynstat_vvel_mean            =   9.4603528415614E-04
(PID.TID 0000.0001) %MON dynstat_vvel_sd              =   3.0417168090638E-02
(PID.TID 0000.0001) %MON dynstat_vvel_del2            =   2.6049884591357E-05
(PID.TID 0000.0001) %MON dynstat_wvel_max             =   8.3079833137370E-03
(PID.TID 0000.0001) %MON dynstat_wvel_min             =  -1.0157163431809E-02
(PID.TID 0000.0001) %MON dynstat_wvel_mean            =   1.9213004596965E-07
(PID.TID 0000.0001) %MON dynstat_wvel_sd              =   8.3035966473054E-05
(PID.TID 0000.0001) %MON dynstat_wvel_del2            =   1.7344538128418E-07
(PID.TID 0000.0001) %MON dynstat_theta_max            =   3.2420282542328E+01
(PID.TID 0000.0001) %MON dynstat_theta_min            =  -2.0258764534492E+00
(PID.TID 0000.0001) %MON dynstat_theta_mean           =   3.5921965794916E+00
(PID.TID 0000.0001) %MON dynstat_theta_sd             =   4.4421954489796E+00
(PID.TID 0000.0001) %MON dynstat_theta_del2           =   1.1852927955412E-04
(PID.TID 0000.0001) %MON dynstat_salt_max             =   4.0655995864032E+01
(PID.TID 0000.0001) %MON dynstat_salt_min             =   1.6230040913427E+01
(PID.TID 0000.0001) %MON dynstat_salt_mean            =   3.4724850884410E+01
(PID.TID 0000.0001) %MON dynstat_salt_sd              =   3.7957520930811E-01
(PID.TID 0000.0001) %MON dynstat_salt_del2            =   7.5306164713837E-05
(PID.TID 0000.0001) %MON dynstat_sst_max              =   3.2420282542328E+01
(PID.TID 0000.0001) %MON dynstat_sst_min              =  -2.0258764534492E+00
(PID.TID 0000.0001) %MON dynstat_sst_mean             =   1.8174796799110E+01
(PID.TID 0000.0001) %MON dynstat_sst_sd               =   1.0148852961509E+01
(PID.TID 0000.0001) %MON dynstat_sst_del2             =   1.1438148226706E-03
(PID.TID 0000.0001) %MON dynstat_sss_max              =   3.9474850965220E+01
(PID.TID 0000.0001) %MON dynstat_sss_min              =   1.6230040913427E+01
(PID.TID 0000.0001) %MON dynstat_sss_mean             =   3.4651647735074E+01
(PID.TID 0000.0001) %MON dynstat_sss_sd               =   1.2842798246144E+00
(PID.TID 0000.0001) %MON dynstat_sss_del2             =   1.4555160124866E-03
(PID.TID 0000.0001) %MON forcing_qnet_max             =   2.9481772442504E+03
(PID.TID 0000.0001) %MON forcing_qnet_min             =  -1.7207365722656E+03
(PID.TID 0000.0001) %MON forcing_qnet_mean            =   8.5591331026874E+00
(PID.TID 0000.0001) %MON forcing_qnet_sd              =   2.2981098993860E+02
(PID.TID 0000.0001) %MON forcing_qnet_del2            =   7.8846169077180E-01
(PID.TID 0000.0001) %MON forcing_qsw_max              =   0.0000000000000E+00
(PID.TID 0000.0001) %MON forcing_qsw_min              =  -1.0916145911325E+02
(PID.TID 0000.0001) %MON forcing_qsw_mean             =  -1.5595301060741E+01
(PID.TID 0000.0001) %MON forcing_qsw_sd               =   2.6204703578417E+01
(PID.TID 0000.0001) %MON forcing_qsw_del2             =   2.1291258220767E-02
(PID.TID 0000.0001) %MON forcing_empmr_max            =   2.9714073985815E-02
(PID.TID 0000.0001) %MON forcing_empmr_min            =  -4.4727809727192E-02
(PID.TID 0000.0001) %MON forcing_empmr_mean           =   1.1950904335084E-05
(PID.TID 0000.0001) %MON forcing_empmr_sd             =   4.3478995816431E-04
(PID.TID 0000.0001) %MON forcing_empmr_del2           =   4.8839140724441E-06
(PID.TID 0000.0001) %MON forcing_fu_max               =   8.7605904558504E-01
(PID.TID 0000.0001) %MON forcing_fu_min               =  -7.7149736881256E-01
(PID.TID 0000.0001) %MON forcing_fu_mean              =   8.5899856699813E-03
(PID.TID 0000.0001) %MON forcing_fu_sd                =   1.1627629179007E-01
(PID.TID 0000.0001) %MON forcing_fu_del2              =   1.4637156380364E-04
(PID.TID 0000.0001) %MON forcing_fv_max               =   8.6285603046417E-01
(PID.TID 0000.0001) %MON forcing_fv_min               =  -1.4156952326099E+00
(PID.TID 0000.0001) %MON forcing_fv_mean              =  -1.6833392978830E-03
(PID.TID 0000.0001) %MON forcing_fv_sd                =   1.0881907058631E-01
(PID.TID 0000.0001) %MON forcing_fv_del2              =   1.4667222419742E-04
(PID.TID 0000.0001) %MON trAdv_CFL_u_max              =   2.0297969303711E-02
(PID.TID 0000.0001) %MON trAdv_CFL_v_max              =   2.3750814546799E-02
(PID.TID 0000.0001) %MON trAdv_CFL_w_max              =   7.8384909498501E-02
(PID.TID 0000.0001) %MON advcfl_uvel_max              =   2.0569482918332E-02
(PID.TID 0000.0001) %MON advcfl_vvel_max              =   2.3835608099183E-02
(PID.TID 0000.0001) %MON advcfl_wvel_max              =   8.1720437562267E-02
(PID.TID 0000.0001) %MON advcfl_W_hf_max              =   8.5638723704796E-02
(PID.TID 0000.0001) %MON pe_b_mean                    =   1.8771322124987E-03
(PID.TID 0000.0001) %MON ke_max                       =   2.7461337178850E+00
(PID.TID 0000.0001) %MON ke_mean                      =   9.1547988020679E-04
(PID.TID 0000.0001) %MON ke_vol                       =   1.3350064351420E+18
(PID.TID 0000.0001) %MON vort_r_min                   =  -7.7871236945599E-05
(PID.TID 0000.0001) %MON vort_r_max                   =   7.4867118510253E-05
(PID.TID 0000.0001) %MON vort_a_mean                  =  -1.9725064706575E-05
(PID.TID 0000.0001) %MON vort_a_sd                    =   7.4539026035086E-05
(PID.TID 0000.0001) %MON vort_p_mean                  =  -2.1669068466949E-05
(PID.TID 0000.0001) %MON vort_p_sd                    =   9.3608264138455E-05
(PID.TID 0000.0001) %MON surfExpan_theta_mean         =   1.8236205111433E-05
(PID.TID 0000.0001) %MON surfExpan_salt_mean          =   8.5919932839613E-06
(PID.TID 0000.0001) // =======================================================
(PID.TID 0000.0001) // End MONITOR dynamic field statistics
(PID.TID 0000.0001) // =======================================================
(PID.TID 0000.0001) // =======================================================
(PID.TID 0000.0001) // Begin MONITOR SEAICE statistics
(PID.TID 0000.0001) // =======================================================
(PID.TID 0000.0001) %MON seaice_tsnumber              =                174678
(PID.TID 0000.0001) %MON seaice_time_sec              =   7.8605100000000E+07
(PID.TID 0000.0001) %MON seaice_uice_max              =   1.7832830695504E+00
(PID.TID 0000.0001) %MON seaice_uice_min              =  -1.5133234693393E+00
(PID.TID 0000.0001) %MON seaice_uice_mean             =   1.2551174003163E-03
(PID.TID 0000.0001) %MON seaice_uice_sd               =   1.6283909467701E-01
(PID.TID 0000.0001) %MON seaice_uice_del2             =   3.3484493345948E-04
(PID.TID 0000.0001) %MON seaice_vice_max              =   1.4288154181918E+00
(PID.TID 0000.0001) %MON seaice_vice_min              =  -2.0260143463083E+00
(PID.TID 0000.0001) %MON seaice_vice_mean             =  -2.5650737898149E-02
(PID.TID 0000.0001) %MON seaice_vice_sd               =   1.6934016433625E-01
(PID.TID 0000.0001) %MON seaice_vice_del2             =   3.1926726243353E-04
(PID.TID 0000.0001) %MON seaice_area_max              =   1.0066367484895E+00
(PID.TID 0000.0001) %MON seaice_area_min              =   0.0000000000000E+00
(PID.TID 0000.0001) %MON seaice_area_mean             =   5.7251401339835E-02
(PID.TID 0000.0001) %MON seaice_area_sd               =   2.2173795282474E-01
(PID.TID 0000.0001) %MON seaice_area_del2             =   3.2709351504687E-04
(PID.TID 0000.0001) %MON seaice_heff_max              =   9.9493973594596E+00
(PID.TID 0000.0001) %MON seaice_heff_min              =   0.0000000000000E+00
(PID.TID 0000.0001) %MON seaice_heff_mean             =   1.5010822134575E-01
(PID.TID 0000.0001) %MON seaice_heff_sd               =   7.2174957286876E-01
(PID.TID 0000.0001) %MON seaice_heff_del2             =   1.5110645293765E-03
(PID.TID 0000.0001) %MON seaice_hsnow_max             =   3.2863108200220E+00
(PID.TID 0000.0001) %MON seaice_hsnow_min             =   0.0000000000000E+00
(PID.TID 0000.0001) %MON seaice_hsnow_mean            =   1.2747870891132E-02
(PID.TID 0000.0001) %MON seaice_hsnow_sd              =   6.9358134968714E-02
(PID.TID 0000.0001) %MON seaice_hsnow_del2            =   4.2373888428798E-04
(PID.TID 0000.0001) // =======================================================
(PID.TID 0000.0001) // End MONITOR SEAICE statistics
(PID.TID 0000.0001) // =======================================================
(PID.TID 0000.0001) // =======================================================
(PID.TID 0000.0001) // Begin MONITOR dynamic field statistics
(PID.TID 0000.0001) // =======================================================
(PID.TID 0000.0001) %MON time_tsnumber                =                174679
(PID.TID 0000.0001) %MON time_secondsf                =   7.8605550000000E+07
(PID.TID 0000.0001) %MON dynstat_eta_max              =   2.9496937704701E+00
(PID.TID 0000.0001) %MON dynstat_eta_min              =  -1.1161142578111E+01
(PID.TID 0000.0001) %MON dynstat_eta_mean             =   6.4292202732240E-02
(PID.TID 0000.0001) %MON dynstat_eta_sd               =   8.3888110466364E-01
(PID.TID 0000.0001) %MON dynstat_eta_del2             =   2.0353454280576E-03
(PID.TID 0000.0001) %MON dynstat_uvel_max             =   1.9228578231684E+00
(PID.TID 0000.0001) %MON dynstat_uvel_min             =  -1.9910381814241E+00
(PID.TID 0000.0001) %MON dynstat_uvel_mean            =   1.9629391168945E-03
(PID.TID 0000.0001) %MON dynstat_uvel_sd              =   3.1140784543399E-02
(PID.TID 0000.0001) %MON dynstat_uvel_del2            =   2.7168316062705E-05
(PID.TID 0000.0001) %MON dynstat_vvel_max             =   1.4235602228613E+00
(PID.TID 0000.0001) %MON dynstat_vvel_min             =  -2.3509146390260E+00
(PID.TID 0000.0001) %MON dynstat_vvel_mean            =   9.6352349438951E-04
(PID.TID 0000.0001) %MON dynstat_vvel_sd              =   3.0425448791141E-02
(PID.TID 0000.0001) %MON dynstat_vvel_del2            =   2.6177682653126E-05
(PID.TID 0000.0001) %MON dynstat_wvel_max             =   8.3959382832183E-03
(PID.TID 0000.0001) %MON dynstat_wvel_min             =  -1.0277393231622E-02
(PID.TID 0000.0001) %MON dynstat_wvel_mean            =   1.9776088809828E-07
(PID.TID 0000.0001) %MON dynstat_wvel_sd              =   8.3367918478491E-05
(PID.TID 0000.0001) %MON dynstat_wvel_del2            =   1.7465741106809E-07
(PID.TID 0000.0001) %MON dynstat_theta_max            =   3.2422900951696E+01
(PID.TID 0000.0001) %MON dynstat_theta_min            =  -2.0265798020519E+00
(PID.TID 0000.0001) %MON dynstat_theta_mean           =   3.5921943072787E+00
(PID.TID 0000.0001) %MON dynstat_theta_sd             =   4.4421900154292E+00
(PID.TID 0000.0001) %MON dynstat_theta_del2           =   1.1856252385474E-04
(PID.TID 0000.0001) %MON dynstat_salt_max             =   4.0655995862053E+01
(PID.TID 0000.0001) %MON dynstat_salt_min             =   1.6228874020951E+01
(PID.TID 0000.0001) %MON dynstat_salt_mean            =   3.4724850557993E+01
(PID.TID 0000.0001) %MON dynstat_salt_sd              =   3.7957624678667E-01
(PID.TID 0000.0001) %MON dynstat_salt_del2            =   7.5166593779684E-05
(PID.TID 0000.0001) %MON dynstat_sst_max              =   3.2422900951696E+01
(PID.TID 0000.0001) %MON dynstat_sst_min              =  -2.0265798020519E+00
(PID.TID 0000.0001) %MON dynstat_sst_mean             =   1.8174707542145E+01
(PID.TID 0000.0001) %MON dynstat_sst_sd               =   1.0149077774129E+01
(PID.TID 0000.0001) %MON dynstat_sst_del2             =   1.1433192939823E-03
(PID.TID 0000.0001) %MON dynstat_sss_max              =   3.9474807642038E+01
(PID.TID 0000.0001) %MON dynstat_sss_min              =   1.6228874020951E+01
(PID.TID 0000.0001) %MON dynstat_sss_mean             =   3.4651561075683E+01
(PID.TID 0000.0001) %MON dynstat_sss_sd               =   1.2844325518240E+00
(PID.TID 0000.0001) %MON dynstat_sss_del2             =   1.4543965716142E-03
(PID.TID 0000.0001) %MON forcing_qnet_max             =   2.8666546715694E+03
(PID.TID 0000.0001) %MON forcing_qnet_min             =  -1.1014441406250E+04
(PID.TID 0000.0001) %MON forcing_qnet_mean            =   7.8542861267713E+00
(PID.TID 0000.0001) %MON forcing_qnet_sd              =   2.3649410504196E+02
(PID.TID 0000.0001) %MON forcing_qnet_del2            =   1.0151602283813E+00
(PID.TID 0000.0001) %MON forcing_qsw_max              =   0.0000000000000E+00
(PID.TID 0000.0001) %MON forcing_qsw_min              =  -1.0939226950814E+02
(PID.TID 0000.0001) %MON forcing_qsw_mean             =  -1.5647869521968E+01
(PID.TID 0000.0001) %MON forcing_qsw_sd               =   2.6363281809527E+01
(PID.TID 0000.0001) %MON forcing_qsw_del2             =   2.1370819830932E-02
(PID.TID 0000.0001) %MON forcing_empmr_max            =   2.6633843779564E-02
(PID.TID 0000.0001) %MON forcing_empmr_min            =  -4.5711487531662E-02
(PID.TID 0000.0001) %MON forcing_empmr_mean           =   1.1877524168712E-05
(PID.TID 0000.0001) %MON forcing_empmr_sd             =   4.3361659307397E-04
(PID.TID 0000.0001) %MON forcing_empmr_del2           =   4.8881635725785E-06
(PID.TID 0000.0001) %MON forcing_fu_max               =   8.5449290773693E-01
(PID.TID 0000.0001) %MON forcing_fu_min               =  -7.7145698666573E-01
(PID.TID 0000.0001) %MON forcing_fu_mean              =   8.6183597761453E-03
(PID.TID 0000.0001) %MON forcing_fu_sd                =   1.1640770174065E-01
(PID.TID 0000.0001) %MON forcing_fu_del2              =   1.4646092699014E-04
(PID.TID 0000.0001) %MON forcing_fv_max               =   8.5630464553833E-01
(PID.TID 0000.0001) %MON forcing_fv_min               =  -1.4998097695444E+00
(PID.TID 0000.0001) %MON forcing_fv_mean              =  -1.7059761215481E-03
(PID.TID 0000.0001) %MON forcing_fv_sd                =   1.0875572285075E-01
(PID.TID 0000.0001) %MON forcing_fv_del2              =   1.4595163671153E-04
(PID.TID 0000.0001) %MON trAdv_CFL_u_max              =   2.0536879766924E-02
(PID.TID 0000.0001) %MON trAdv_CFL_v_max              =   2.3779913750484E-02
(PID.TID 0000.0001) %MON trAdv_CFL_w_max              =   7.6329247795172E-02
(PID.TID 0000.0001) %MON advcfl_uvel_max              =   2.0811589141793E-02
(PID.TID 0000.0001) %MON advcfl_vvel_max              =   2.3864811190878E-02
(PID.TID 0000.0001) %MON advcfl_wvel_max              =   7.9577300892839E-02
(PID.TID 0000.0001) %MON advcfl_W_hf_max              =   8.3503446236168E-02
(PID.TID 0000.0001) %MON pe_b_mean                    =   1.8781759327171E-03
(PID.TID 0000.0001) %MON ke_max                       =   2.7266231058645E+00
(PID.TID 0000.0001) %MON ke_mean                      =   9.1627459393132E-04
(PID.TID 0000.0001) %MON ke_vol                       =   1.3350064351420E+18
(PID.TID 0000.0001) %MON vort_r_min                   =  -7.8583573125254E-05
(PID.TID 0000.0001) %MON vort_r_max                   =   7.5664773281257E-05
(PID.TID 0000.0001) %MON vort_a_mean                  =  -1.9725065130320E-05
(PID.TID 0000.0001) %MON vort_a_sd                    =   7.4539045346994E-05
(PID.TID 0000.0001) %MON vort_p_mean                  =  -2.1669068932457E-05
(PID.TID 0000.0001) %MON vort_p_sd                    =   9.3608259476874E-05
(PID.TID 0000.0001) %MON surfExpan_theta_mean         =   1.7399443447917E-05
(PID.TID 0000.0001) %MON surfExpan_salt_mean          =   8.5695277782406E-06
(PID.TID 0000.0001) // =======================================================
(PID.TID 0000.0001) // End MONITOR dynamic field statistics
(PID.TID 0000.0001) // =======================================================
(PID.TID 0000.0001) // =======================================================
(PID.TID 0000.0001) // Begin MONITOR SEAICE statistics
(PID.TID 0000.0001) // =======================================================
(PID.TID 0000.0001) %MON seaice_tsnumber              =                174679
(PID.TID 0000.0001) %MON seaice_time_sec              =   7.8605550000000E+07
(PID.TID 0000.0001) %MON seaice_uice_max              =   1.7726878379274E+00
(PID.TID 0000.0001) %MON seaice_uice_min              =  -1.5377396801557E+00
(PID.TID 0000.0001) %MON seaice_uice_mean             =   1.2942576040409E-03
(PID.TID 0000.0001) %MON seaice_uice_sd               =   1.6255737962987E-01
(PID.TID 0000.0001) %MON seaice_uice_del2             =   3.3509016153426E-04
(PID.TID 0000.0001) %MON seaice_vice_max              =   1.4348458446431E+00
(PID.TID 0000.0001) %MON seaice_vice_min              =  -2.0389875031587E+00
(PID.TID 0000.0001) %MON seaice_vice_mean             =  -2.5543711663397E-02
(PID.TID 0000.0001) %MON seaice_vice_sd               =   1.6912866207909E-01
(PID.TID 0000.0001) %MON seaice_vice_del2             =   3.1970300278307E-04
(PID.TID 0000.0001) %MON seaice_area_max              =   1.0065687022913E+00
(PID.TID 0000.0001) %MON seaice_area_min              =   0.0000000000000E+00
(PID.TID 0000.0001) %MON seaice_area_mean             =   5.7252302014551E-02
(PID.TID 0000.0001) %MON seaice_area_sd               =   2.2173103163463E-01
(PID.TID 0000.0001) %MON seaice_area_del2             =   3.2662970838354E-04
(PID.TID 0000.0001) %MON seaice_heff_max              =   9.9493812345035E+00
(PID.TID 0000.0001) %MON seaice_heff_min              =   0.0000000000000E+00
(PID.TID 0000.0001) %MON seaice_heff_mean             =   1.5010517145196E-01
(PID.TID 0000.0001) %MON seaice_heff_sd               =   7.2174117800202E-01
(PID.TID 0000.0001) %MON seaice_heff_del2             =   1.5096549562090E-03
(PID.TID 0000.0001) %MON seaice_hsnow_max             =   3.2863058425375E+00
(PID.TID 0000.0001) %MON seaice_hsnow_min             =   0.0000000000000E+00
(PID.TID 0000.0001) %MON seaice_hsnow_mean            =   1.2747278352532E-02
(PID.TID 0000.0001) %MON seaice_hsnow_sd              =   6.9348679583863E-02
(PID.TID 0000.0001) %MON seaice_hsnow_del2            =   4.2329429790094E-04
(PID.TID 0000.0001) // =======================================================
(PID.TID 0000.0001) // End MONITOR SEAICE statistics
(PID.TID 0000.0001) // =======================================================
(PID.TID 0000.0001) // =======================================================
(PID.TID 0000.0001) // Begin MONITOR dynamic field statistics
(PID.TID 0000.0001) // =======================================================
(PID.TID 0000.0001) %MON time_tsnumber                =                174680
(PID.TID 0000.0001) %MON time_secondsf                =   7.8606000000000E+07
(PID.TID 0000.0001) %MON dynstat_eta_max              =   3.0831299586120E+00
(PID.TID 0000.0001) %MON dynstat_eta_min              =  -1.1258157421650E+01
(PID.TID 0000.0001) %MON dynstat_eta_mean             =   6.4402968421910E-02
(PID.TID 0000.0001) %MON dynstat_eta_sd               =   8.3906537448017E-01
(PID.TID 0000.0001) %MON dynstat_eta_del2             =   2.0338263981606E-03
(PID.TID 0000.0001) %MON dynstat_uvel_max             =   1.8943880754543E+00
(PID.TID 0000.0001) %MON dynstat_uvel_min             =  -2.0136610143573E+00
(PID.TID 0000.0001) %MON dynstat_uvel_mean            =   1.9594310736068E-03
(PID.TID 0000.0001) %MON dynstat_uvel_sd              =   3.1158805867624E-02
(PID.TID 0000.0001) %MON dynstat_uvel_del2            =   2.7300662282680E-05
(PID.TID 0000.0001) %MON dynstat_vvel_max             =   1.4154807177414E+00
(PID.TID 0000.0001) %MON dynstat_vvel_min             =  -2.3482460361144E+00
(PID.TID 0000.0001) %MON dynstat_vvel_mean            =   9.7617456418068E-04
(PID.TID 0000.0001) %MON dynstat_vvel_sd              =   3.0435039230136E-02
(PID.TID 0000.0001) %MON dynstat_vvel_del2            =   2.6305496616648E-05
(PID.TID 0000.0001) %MON dynstat_wvel_max             =   8.4810779150875E-03
(PID.TID 0000.0001) %MON dynstat_wvel_min             =  -1.0391337705618E-02
(PID.TID 0000.0001) %MON dynstat_wvel_mean            =   2.0332693305816E-07
(PID.TID 0000.0001) %MON dynstat_wvel_sd              =   8.3713803909408E-05
(PID.TID 0000.0001) %MON dynstat_wvel_del2            =   1.7587640747358E-07
(PID.TID 0000.0001) %MON dynstat_theta_max            =   3.2425847719463E+01
(PID.TID 0000.0001) %MON dynstat_theta_min            =  -2.0272421569659E+00
(PID.TID 0000.0001) %MON dynstat_theta_mean           =   3.5921921361077E+00
(PID.TID 0000.0001) %MON dynstat_theta_sd             =   4.4421847353954E+00
(PID.TID 0000.0001) %MON dynstat_theta_del2           =   1.1859768703307E-04
(PID.TID 0000.0001) %MON dynstat_salt_max             =   4.0655995853011E+01
(PID.TID 0000.0001) %MON dynstat_salt_min             =   1.6227684229598E+01
(PID.TID 0000.0001) %MON dynstat_salt_mean            =   3.4724850244294E+01
(PID.TID 0000.0001) %MON dynstat_salt_sd              =   3.7957717525420E-01
(PID.TID 0000.0001) %MON dynstat_salt_del2            =   7.5029217009544E-05
(PID.TID 0000.0001) %MON dynstat_sst_max              =   3.2425847719463E+01
(PID.TID 0000.0001) %MON dynstat_sst_min              =  -2.0272421569659E+00
(PID.TID 0000.0001) %MON dynstat_sst_mean             =   1.8174623074185E+01
(PID.TID 0000.0001) %MON dynstat_sst_sd               =   1.0149304574293E+01
(PID.TID 0000.0001) %MON dynstat_sst_del2             =   1.1429619474579E-03
(PID.TID 0000.0001) %MON dynstat_sss_max              =   3.9474774323819E+01
(PID.TID 0000.0001) %MON dynstat_sss_min              =   1.6227684229598E+01
(PID.TID 0000.0001) %MON dynstat_sss_mean             =   3.4651472784316E+01
(PID.TID 0000.0001) %MON dynstat_sss_sd               =   1.2845841466895E+00
(PID.TID 0000.0001) %MON dynstat_sss_del2             =   1.4533656953457E-03
(PID.TID 0000.0001) %MON forcing_qnet_max             =   3.1373176174970E+03
(PID.TID 0000.0001) %MON forcing_qnet_min             =  -8.8271767578125E+03
(PID.TID 0000.0001) %MON forcing_qnet_mean            =   7.5777857218087E+00
(PID.TID 0000.0001) %MON forcing_qnet_sd              =   2.3190056732289E+02
(PID.TID 0000.0001) %MON forcing_qnet_del2            =   9.2128685030329E-01
(PID.TID 0000.0001) %MON forcing_qsw_max              =   0.0000000000000E+00
(PID.TID 0000.0001) %MON forcing_qsw_min              =  -1.0956871790388E+02
(PID.TID 0000.0001) %MON forcing_qsw_mean             =  -1.5690193522194E+01
(PID.TID 0000.0001) %MON forcing_qsw_sd               =   2.6517510496233E+01
(PID.TID 0000.0001) %MON forcing_qsw_del2             =   2.1441207982824E-02
(PID.TID 0000.0001) %MON forcing_empmr_max            =   2.7573484927416E-02
(PID.TID 0000.0001) %MON forcing_empmr_min            =  -4.5286972075701E-02
(PID.TID 0000.0001) %MON forcing_empmr_mean           =   1.1792512527755E-05
(PID.TID 0000.0001) %MON forcing_empmr_sd             =   4.3021088698430E-04
(PID.TID 0000.0001) %MON forcing_empmr_del2           =   4.8818689064599E-06
(PID.TID 0000.0001) %MON forcing_fu_max               =   8.3137198112811E-01
(PID.TID 0000.0001) %MON forcing_fu_min               =  -7.7154013514519E-01
(PID.TID 0000.0001) %MON forcing_fu_mean              =   8.6510935199658E-03
(PID.TID 0000.0001) %MON forcing_fu_sd                =   1.1657479280662E-01
(PID.TID 0000.0001) %MON forcing_fu_del2              =   1.4664440210663E-04
(PID.TID 0000.0001) %MON forcing_fv_max               =   8.5220807790756E-01
(PID.TID 0000.0001) %MON forcing_fv_min               =  -1.5824743676143E+00
(PID.TID 0000.0001) %MON forcing_fv_mean              =  -1.7291220615557E-03
(PID.TID 0000.0001) %MON forcing_fv_sd                =   1.0869798633860E-01
(PID.TID 0000.0001) %MON forcing_fv_del2              =   1.4544403386546E-04
(PID.TID 0000.0001) %MON trAdv_CFL_u_max              =   2.0770226572761E-02
(PID.TID 0000.0001) %MON trAdv_CFL_v_max              =   2.3752920364157E-02
(PID.TID 0000.0001) %MON trAdv_CFL_w_max              =   7.4209455051113E-02
(PID.TID 0000.0001) %MON advcfl_uvel_max              =   2.1048057286212E-02
(PID.TID 0000.0001) %MON advcfl_vvel_max              =   2.3837721434589E-02
(PID.TID 0000.0001) %MON advcfl_wvel_max              =   7.7260834292343E-02
(PID.TID 0000.0001) %MON advcfl_W_hf_max              =   8.1191239192108E-02
(PID.TID 0000.0001) %MON pe_b_mean                    =   1.8791191229933E-03
(PID.TID 0000.0001) %MON ke_max                       =   2.6943729416301E+00
(PID.TID 0000.0001) %MON ke_mean                      =   9.1710255340633E-04
(PID.TID 0000.0001) %MON ke_vol                       =   1.3350064351420E+18
(PID.TID 0000.0001) %MON vort_r_min                   =  -7.9266358962289E-05
(PID.TID 0000.0001) %MON vort_r_max                   =   7.6440398403706E-05
(PID.TID 0000.0001) %MON vort_a_mean                  =  -1.9725065571011E-05
(PID.TID 0000.0001) %MON vort_a_sd                    =   7.4539064020459E-05
(PID.TID 0000.0001) %MON vort_p_mean                  =  -2.1669069416580E-05
(PID.TID 0000.0001) %MON vort_p_sd                    =   9.3608252325366E-05
(PID.TID 0000.0001) %MON surfExpan_theta_mean         =   1.6551955529921E-05
(PID.TID 0000.0001) %MON surfExpan_salt_mean          =   8.5543736061146E-06
(PID.TID 0000.0001) // =======================================================
(PID.TID 0000.0001) // End MONITOR dynamic field statistics
(PID.TID 0000.0001) // =======================================================
(PID.TID 0000.0001) // =======================================================
(PID.TID 0000.0001) // Begin MONITOR SEAICE statistics
(PID.TID 0000.0001) // =======================================================
(PID.TID 0000.0001) %MON seaice_tsnumber              =                174680
(PID.TID 0000.0001) %MON seaice_time_sec              =   7.8606000000000E+07
(PID.TID 0000.0001) %MON seaice_uice_max              =   1.7617642782080E+00
(PID.TID 0000.0001) %MON seaice_uice_min              =  -1.5593685497463E+00
(PID.TID 0000.0001) %MON seaice_uice_mean             =   1.3318904817830E-03
(PID.TID 0000.0001) %MON seaice_uice_sd               =   1.6228293336980E-01
(PID.TID 0000.0001) %MON seaice_uice_del2             =   3.3541770435102E-04
(PID.TID 0000.0001) %MON seaice_vice_max              =   1.4352088231524E+00
(PID.TID 0000.0001) %MON seaice_vice_min              =  -2.0464645281765E+00
(PID.TID 0000.0001) %MON seaice_vice_mean             =  -2.5441738759625E-02
(PID.TID 0000.0001) %MON seaice_vice_sd               =   1.6891961121181E-01
(PID.TID 0000.0001) %MON seaice_vice_del2             =   3.2037661991961E-04
(PID.TID 0000.0001) %MON seaice_area_max              =   1.0065031347974E+00
(PID.TID 0000.0001) %MON seaice_area_min              =   0.0000000000000E+00
(PID.TID 0000.0001) %MON seaice_area_mean             =   5.7253242817908E-02
(PID.TID 0000.0001) %MON seaice_area_sd               =   2.2172420366063E-01
(PID.TID 0000.0001) %MON seaice_area_del2             =   3.2615463326967E-04
(PID.TID 0000.0001) %MON seaice_heff_max              =   9.9493670216603E+00
(PID.TID 0000.0001) %MON seaice_heff_min              =   0.0000000000000E+00
(PID.TID 0000.0001) %MON seaice_heff_mean             =   1.5010214222812E-01
(PID.TID 0000.0001) %MON seaice_heff_sd               =   7.2173271416728E-01
(PID.TID 0000.0001) %MON seaice_heff_del2             =   1.5082114116349E-03
(PID.TID 0000.0001) %MON seaice_hsnow_max             =   3.2863013547916E+00
(PID.TID 0000.0001) %MON seaice_hsnow_min             =   0.0000000000000E+00
(PID.TID 0000.0001) %MON seaice_hsnow_mean            =   1.2746691309660E-02
(PID.TID 0000.0001) %MON seaice_hsnow_sd              =   6.9339206597608E-02
(PID.TID 0000.0001) %MON seaice_hsnow_del2            =   4.2283531308149E-04
(PID.TID 0000.0001) // =======================================================
(PID.TID 0000.0001) // End MONITOR SEAICE statistics
(PID.TID 0000.0001) // =======================================================
(PID.TID 0000.0001) // =======================================================
(PID.TID 0000.0001) // Begin MONITOR dynamic field statistics
(PID.TID 0000.0001) // =======================================================
(PID.TID 0000.0001) %MON time_tsnumber                =                174681
(PID.TID 0000.0001) %MON time_secondsf                =   7.8606450000000E+07
(PID.TID 0000.0001) %MON dynstat_eta_max              =   3.2748591898317E+00
(PID.TID 0000.0001) %MON dynstat_eta_min              =  -1.1349960170100E+01
(PID.TID 0000.0001) %MON dynstat_eta_mean             =   6.4514952608121E-02
(PID.TID 0000.0001) %MON dynstat_eta_sd               =   8.3919196675301E-01
(PID.TID 0000.0001) %MON dynstat_eta_del2             =   2.0324085430309E-03
(PID.TID 0000.0001) %MON dynstat_uvel_max             =   1.8689282237247E+00
(PID.TID 0000.0001) %MON dynstat_uvel_min             =  -2.0356961976299E+00
(PID.TID 0000.0001) %MON dynstat_uvel_mean            =   1.9523070538699E-03
(PID.TID 0000.0001) %MON dynstat_uvel_sd              =   3.1176509659991E-02
(PID.TID 0000.0001) %MON dynstat_uvel_del2            =   2.7431123753245E-05
(PID.TID 0000.0001) %MON dynstat_vvel_max             =   1.4178593895105E+00
(PID.TID 0000.0001) %MON dynstat_vvel_min             =  -2.3436978653753E+00
(PID.TID 0000.0001) %MON dynstat_vvel_mean            =   9.8401295033550E-04
(PID.TID 0000.0001) %MON dynstat_vvel_sd              =   3.0446294899098E-02
(PID.TID 0000.0001) %MON dynstat_vvel_del2            =   2.6433896186841E-05
(PID.TID 0000.0001) %MON dynstat_wvel_max             =   8.5631718798115E-03
(PID.TID 0000.0001) %MON dynstat_wvel_min             =  -1.0498363194205E-02
(PID.TID 0000.0001) %MON dynstat_wvel_mean            =   2.0886836178799E-07
(PID.TID 0000.0001) %MON dynstat_wvel_sd              =   8.4070263165626E-05
(PID.TID 0000.0001) %MON dynstat_wvel_del2            =   1.7709921015885E-07
(PID.TID 0000.0001) %MON dynstat_theta_max            =   3.2429107466103E+01
(PID.TID 0000.0001) %MON dynstat_theta_min            =  -2.0278634513038E+00
(PID.TID 0000.0001) %MON dynstat_theta_mean           =   3.5921900701543E+00
(PID.TID 0000.0001) %MON dynstat_theta_sd             =   4.4421796286891E+00
(PID.TID 0000.0001) %MON dynstat_theta_del2           =   1.1863692368836E-04
(PID.TID 0000.0001) %MON dynstat_salt_max             =   4.0655995837065E+01
(PID.TID 0000.0001) %MON dynstat_salt_min             =   1.6226463636821E+01
(PID.TID 0000.0001) %MON dynstat_salt_mean            =   3.4724849946159E+01
(PID.TID 0000.0001) %MON dynstat_salt_sd              =   3.7957800763212E-01
(PID.TID 0000.0001) %MON dynstat_salt_del2            =   7.4894468122698E-05
(PID.TID 0000.0001) %MON dynstat_sst_max              =   3.2429107466103E+01
(PID.TID 0000.0001) %MON dynstat_sst_min              =  -2.0278634513038E+00
(PID.TID 0000.0001) %MON dynstat_sst_mean             =   1.8174544848962E+01
(PID.TID 0000.0001) %MON dynstat_sst_sd               =   1.0149532955298E+01
(PID.TID 0000.0001) %MON dynstat_sst_del2             =   1.1425283673463E-03
(PID.TID 0000.0001) %MON dynstat_sss_max              =   3.9474747387907E+01
(PID.TID 0000.0001) %MON dynstat_sss_min              =   1.6226463636821E+01
(PID.TID 0000.0001) %MON dynstat_sss_mean             =   3.4651386017091E+01
(PID.TID 0000.0001) %MON dynstat_sss_sd               =   1.2847340062190E+00
(PID.TID 0000.0001) %MON dynstat_sss_del2             =   1.4523811527096E-03
(PID.TID 0000.0001) %MON forcing_qnet_max             =   3.3780198210250E+03
(PID.TID 0000.0001) %MON forcing_qnet_min             =  -3.6022282714844E+03
(PID.TID 0000.0001) %MON forcing_qnet_mean            =   7.1680904526963E+00
(PID.TID 0000.0001) %MON forcing_qnet_sd              =   2.3044605118025E+02
(PID.TID 0000.0001) %MON forcing_qnet_del2            =   8.0438534348944E-01
(PID.TID 0000.0001) %MON forcing_qsw_max              =   0.0000000000000E+00
(PID.TID 0000.0001) %MON forcing_qsw_min              =  -1.0963077545111E+02
(PID.TID 0000.0001) %MON forcing_qsw_mean             =  -1.5722733593633E+01
(PID.TID 0000.0001) %MON forcing_qsw_sd               =   2.6666620830432E+01
(PID.TID 0000.0001) %MON forcing_qsw_del2             =   2.1502380149714E-02
(PID.TID 0000.0001) %MON forcing_empmr_max            =   2.7527106925845E-02
(PID.TID 0000.0001) %MON forcing_empmr_min            =  -4.5376017689705E-02
(PID.TID 0000.0001) %MON forcing_empmr_mean           =   1.1730368599296E-05
(PID.TID 0000.0001) %MON forcing_empmr_sd             =   4.2995355840053E-04
(PID.TID 0000.0001) %MON forcing_empmr_del2           =   4.8996307778964E-06
(PID.TID 0000.0001) %MON forcing_fu_max               =   8.0822276038682E-01
(PID.TID 0000.0001) %MON forcing_fu_min               =  -7.7326011657715E-01
(PID.TID 0000.0001) %MON forcing_fu_mean              =   8.6693088871274E-03
(PID.TID 0000.0001) %MON forcing_fu_sd                =   1.1667737370940E-01
(PID.TID 0000.0001) %MON forcing_fu_del2              =   1.4687961917010E-04
(PID.TID 0000.0001) %MON forcing_fv_max               =   8.4373447299004E-01
(PID.TID 0000.0001) %MON forcing_fv_min               =  -1.6620505295444E+00
(PID.TID 0000.0001) %MON forcing_fv_mean              =  -1.7474918257947E-03
(PID.TID 0000.0001) %MON forcing_fv_sd                =   1.0865151431284E-01
(PID.TID 0000.0001) %MON forcing_fv_del2              =   1.4502328459060E-04
(PID.TID 0000.0001) %MON trAdv_CFL_u_max              =   2.0997511972778E-02
(PID.TID 0000.0001) %MON trAdv_CFL_v_max              =   2.3706914819718E-02
(PID.TID 0000.0001) %MON trAdv_CFL_w_max              =   7.6337030472728E-02
(PID.TID 0000.0001) %MON advcfl_uvel_max              =   2.1278382945064E-02
(PID.TID 0000.0001) %MON advcfl_vvel_max              =   2.3791551644265E-02
(PID.TID 0000.0001) %MON advcfl_wvel_max              =   7.4827993972749E-02
(PID.TID 0000.0001) %MON advcfl_W_hf_max              =   7.8759093526784E-02
(PID.TID 0000.0001) %MON pe_b_mean                    =   1.8799734875197E-03
(PID.TID 0000.0001) %MON ke_max                       =   2.6622529155762E+00
(PID.TID 0000.0001) %MON ke_mean                      =   9.1795904043396E-04
(PID.TID 0000.0001) %MON ke_vol                       =   1.3350064351420E+18
(PID.TID 0000.0001) %MON vort_r_min                   =  -7.9916646185445E-05
(PID.TID 0000.0001) %MON vort_r_max                   =   7.7191418738960E-05
(PID.TID 0000.0001) %MON vort_a_mean                  =  -1.9725066020112E-05
(PID.TID 0000.0001) %MON vort_a_sd                    =   7.4539082003011E-05
(PID.TID 0000.0001) %MON vort_p_mean                  =  -2.1669069909942E-05
(PID.TID 0000.0001) %MON vort_p_sd                    =   9.3608241760723E-05
(PID.TID 0000.0001) %MON surfExpan_theta_mean         =   1.5707509285728E-05
(PID.TID 0000.0001) %MON surfExpan_salt_mean          =   8.5493088090324E-06
(PID.TID 0000.0001) // =======================================================
(PID.TID 0000.0001) // End MONITOR dynamic field statistics
(PID.TID 0000.0001) // =======================================================
(PID.TID 0000.0001) // =======================================================
(PID.TID 0000.0001) // Begin MONITOR SEAICE statistics
(PID.TID 0000.0001) // =======================================================
(PID.TID 0000.0001) %MON seaice_tsnumber              =                174681
(PID.TID 0000.0001) %MON seaice_time_sec              =   7.8606450000000E+07
(PID.TID 0000.0001) %MON seaice_uice_max              =   1.7504716073514E+00
(PID.TID 0000.0001) %MON seaice_uice_min              =  -1.5780527527496E+00
(PID.TID 0000.0001) %MON seaice_uice_mean             =   1.3612199338892E-03
(PID.TID 0000.0001) %MON seaice_uice_sd               =   1.6202357613163E-01
(PID.TID 0000.0001) %MON seaice_uice_del2             =   3.3576322983581E-04
(PID.TID 0000.0001) %MON seaice_vice_max              =   1.4297588802743E+00
(PID.TID 0000.0001) %MON seaice_vice_min              =  -2.0484825675282E+00
(PID.TID 0000.0001) %MON seaice_vice_mean             =  -2.5344195872395E-02
(PID.TID 0000.0001) %MON seaice_vice_sd               =   1.6870580270893E-01
(PID.TID 0000.0001) %MON seaice_vice_del2             =   3.2117391888416E-04
(PID.TID 0000.0001) %MON seaice_area_max              =   1.0064371133040E+00
(PID.TID 0000.0001) %MON seaice_area_min              =   0.0000000000000E+00
(PID.TID 0000.0001) %MON seaice_area_mean             =   5.7254183311891E-02
(PID.TID 0000.0001) %MON seaice_area_sd               =   2.2171731508352E-01
(PID.TID 0000.0001) %MON seaice_area_del2             =   3.2567289119789E-04
(PID.TID 0000.0001) %MON seaice_heff_max              =   9.9493585316818E+00
(PID.TID 0000.0001) %MON seaice_heff_min              =   0.0000000000000E+00
(PID.TID 0000.0001) %MON seaice_heff_mean             =   1.5009909848704E-01
(PID.TID 0000.0001) %MON seaice_heff_sd               =   7.2172406690166E-01
(PID.TID 0000.0001) %MON seaice_heff_del2             =   1.5067160569640E-03
(PID.TID 0000.0001) %MON seaice_hsnow_max             =   3.2862985951459E+00
(PID.TID 0000.0001) %MON seaice_hsnow_min             =   0.0000000000000E+00
(PID.TID 0000.0001) %MON seaice_hsnow_mean            =   1.2746093430618E-02
(PID.TID 0000.0001) %MON seaice_hsnow_sd              =   6.9329626637758E-02
(PID.TID 0000.0001) %MON seaice_hsnow_del2            =   4.2235491036009E-04
(PID.TID 0000.0001) // =======================================================
(PID.TID 0000.0001) // End MONITOR SEAICE statistics
(PID.TID 0000.0001) // =======================================================
(PID.TID 0000.0001) // =======================================================
(PID.TID 0000.0001) // Begin MONITOR dynamic field statistics
(PID.TID 0000.0001) // =======================================================
(PID.TID 0000.0001) %MON time_tsnumber                =                174682
(PID.TID 0000.0001) %MON time_secondsf                =   7.8606900000000E+07
(PID.TID 0000.0001) %MON dynstat_eta_max              =   3.4227369260319E+00
(PID.TID 0000.0001) %MON dynstat_eta_min              =  -1.1434099346800E+01
(PID.TID 0000.0001) %MON dynstat_eta_mean             =   6.4628254148038E-02
(PID.TID 0000.0001) %MON dynstat_eta_sd               =   8.3926843161064E-01
(PID.TID 0000.0001) %MON dynstat_eta_del2             =   2.0311070772195E-03
(PID.TID 0000.0001) %MON dynstat_uvel_max             =   1.8410662974045E+00
(PID.TID 0000.0001) %MON dynstat_uvel_min             =  -2.0570930574261E+00
(PID.TID 0000.0001) %MON dynstat_uvel_mean            =   1.9418917006846E-03
(PID.TID 0000.0001) %MON dynstat_uvel_sd              =   3.1193288456251E-02
(PID.TID 0000.0001) %MON dynstat_uvel_del2            =   2.7559638519428E-05
(PID.TID 0000.0001) %MON dynstat_vvel_max             =   1.4370514104933E+00
(PID.TID 0000.0001) %MON dynstat_vvel_min             =  -2.3352604087341E+00
(PID.TID 0000.0001) %MON dynstat_vvel_mean            =   9.8711090432631E-04
(PID.TID 0000.0001) %MON dynstat_vvel_sd              =   3.0459447773390E-02
(PID.TID 0000.0001) %MON dynstat_vvel_del2            =   2.6560984944876E-05
(PID.TID 0000.0001) %MON dynstat_wvel_max             =   8.6419901336708E-03
(PID.TID 0000.0001) %MON dynstat_wvel_min             =  -1.0597950135596E-02
(PID.TID 0000.0001) %MON dynstat_wvel_mean            =   2.1417519286738E-07
(PID.TID 0000.0001) %MON dynstat_wvel_sd              =   8.4432751396858E-05
(PID.TID 0000.0001) %MON dynstat_wvel_del2            =   1.7832161216818E-07
(PID.TID 0000.0001) %MON dynstat_theta_max            =   3.2432352858222E+01
(PID.TID 0000.0001) %MON dynstat_theta_min            =  -2.0284354427328E+00
(PID.TID 0000.0001) %MON dynstat_theta_mean           =   3.5921881049864E+00
(PID.TID 0000.0001) %MON dynstat_theta_sd             =   4.4421746870228E+00
(PID.TID 0000.0001) %MON dynstat_theta_del2           =   1.1867391982138E-04
(PID.TID 0000.0001) %MON dynstat_salt_max             =   4.0655995814434E+01
(PID.TID 0000.0001) %MON dynstat_salt_min             =   1.6225197848473E+01
(PID.TID 0000.0001) %MON dynstat_salt_mean            =   3.4724849661185E+01
(PID.TID 0000.0001) %MON dynstat_salt_sd              =   3.7957875442534E-01
(PID.TID 0000.0001) %MON dynstat_salt_del2            =   7.4761752068637E-05
(PID.TID 0000.0001) %MON dynstat_sst_max              =   3.2432352858222E+01
(PID.TID 0000.0001) %MON dynstat_sst_min              =  -2.0284354427328E+00
(PID.TID 0000.0001) %MON dynstat_sst_mean             =   1.8174473196172E+01
(PID.TID 0000.0001) %MON dynstat_sst_sd               =   1.0149762440411E+01
(PID.TID 0000.0001) %MON dynstat_sst_del2             =   1.1421709365890E-03
(PID.TID 0000.0001) %MON dynstat_sss_max              =   3.9474723020143E+01
(PID.TID 0000.0001) %MON dynstat_sss_min              =   1.6225197848473E+01
(PID.TID 0000.0001) %MON dynstat_sss_mean             =   3.4651297471952E+01
(PID.TID 0000.0001) %MON dynstat_sss_sd               =   1.2848854252908E+00
(PID.TID 0000.0001) %MON dynstat_sss_del2             =   1.4514672640482E-03
(PID.TID 0000.0001) %MON forcing_qnet_max             =   3.7987685296789E+03
(PID.TID 0000.0001) %MON forcing_qnet_min             =  -2.3130899154592E+03
(PID.TID 0000.0001) %MON forcing_qnet_mean            =   6.8777110182591E+00
(PID.TID 0000.0001) %MON forcing_qnet_sd              =   2.2977328670862E+02
(PID.TID 0000.0001) %MON forcing_qnet_del2            =   7.7353462564655E-01
(PID.TID 0000.0001) %MON forcing_qsw_max              =   0.0000000000000E+00
(PID.TID 0000.0001) %MON forcing_qsw_min              =  -1.0979583872065E+02
(PID.TID 0000.0001) %MON forcing_qsw_mean             =  -1.5745982139895E+01
(PID.TID 0000.0001) %MON forcing_qsw_sd               =   2.6809839506370E+01
(PID.TID 0000.0001) %MON forcing_qsw_del2             =   2.1554249162947E-02
(PID.TID 0000.0001) %MON forcing_empmr_max            =   2.3056497797370E-02
(PID.TID 0000.0001) %MON forcing_empmr_min            =  -4.5246146619320E-02
(PID.TID 0000.0001) %MON forcing_empmr_mean           =   1.1526284128275E-05
(PID.TID 0000.0001) %MON forcing_empmr_sd             =   4.2559875156451E-04
(PID.TID 0000.0001) %MON forcing_empmr_del2           =   4.8654903620372E-06
(PID.TID 0000.0001) %MON forcing_fu_max               =   7.8621028847528E-01
(PID.TID 0000.0001) %MON forcing_fu_min               =  -7.7223613858223E-01
(PID.TID 0000.0001) %MON forcing_fu_mean              =   8.6909884357401E-03
(PID.TID 0000.0001) %MON forcing_fu_sd                =   1.1678119819192E-01
(PID.TID 0000.0001) %MON forcing_fu_del2              =   1.4715210430104E-04
(PID.TID 0000.0001) %MON forcing_fv_max               =   8.4197020530701E-01
(PID.TID 0000.0001) %MON forcing_fv_min               =  -1.7370212056457E+00
(PID.TID 0000.0001) %MON forcing_fv_mean              =  -1.7659622035682E-03
(PID.TID 0000.0001) %MON forcing_fv_sd                =   1.0860843630511E-01
(PID.TID 0000.0001) %MON forcing_fv_del2              =   1.4478478837244E-04
(PID.TID 0000.0001) %MON trAdv_CFL_u_max              =   2.1218213283844E-02
(PID.TID 0000.0001) %MON trAdv_CFL_v_max              =   2.3621568466486E-02
(PID.TID 0000.0001) %MON trAdv_CFL_w_max              =   7.8466663200255E-02
(PID.TID 0000.0001) %MON advcfl_uvel_max              =   2.1502036443604E-02
(PID.TID 0000.0001) %MON advcfl_vvel_max              =   2.3705900593252E-02
(PID.TID 0000.0001) %MON advcfl_wvel_max              =   7.4716057894463E-02
(PID.TID 0000.0001) %MON advcfl_W_hf_max              =   7.8466663200255E-02
(PID.TID 0000.0001) %MON pe_b_mean                    =   1.8807592622656E-03
(PID.TID 0000.0001) %MON ke_max                       =   2.6228667098865E+00
(PID.TID 0000.0001) %MON ke_mean                      =   9.1883327858909E-04
(PID.TID 0000.0001) %MON ke_vol                       =   1.3350064351420E+18
(PID.TID 0000.0001) %MON vort_r_min                   =  -8.0531818866974E-05
(PID.TID 0000.0001) %MON vort_r_max                   =   7.7915449732209E-05
(PID.TID 0000.0001) %MON vort_a_mean                  =  -1.9725066469309E-05
(PID.TID 0000.0001) %MON vort_a_sd                    =   7.4539099177688E-05
(PID.TID 0000.0001) %MON vort_p_mean                  =  -2.1669070403409E-05
(PID.TID 0000.0001) %MON vort_p_sd                    =   9.3608228844862E-05
(PID.TID 0000.0001) %MON surfExpan_theta_mean         =   1.4867328605131E-05
(PID.TID 0000.0001) %MON surfExpan_salt_mean          =   8.5543544902550E-06
(PID.TID 0000.0001) // =======================================================
(PID.TID 0000.0001) // End MONITOR dynamic field statistics
(PID.TID 0000.0001) // =======================================================
(PID.TID 0000.0001) // =======================================================
(PID.TID 0000.0001) // Begin MONITOR SEAICE statistics
(PID.TID 0000.0001) // =======================================================
(PID.TID 0000.0001) %MON seaice_tsnumber              =                174682
(PID.TID 0000.0001) %MON seaice_time_sec              =   7.8606900000000E+07
(PID.TID 0000.0001) %MON seaice_uice_max              =   1.7387770970350E+00
(PID.TID 0000.0001) %MON seaice_uice_min              =  -1.5936480166510E+00
(PID.TID 0000.0001) %MON seaice_uice_mean             =   1.3862602290667E-03
(PID.TID 0000.0001) %MON seaice_uice_sd               =   1.6177380738292E-01
(PID.TID 0000.0001) %MON seaice_uice_del2             =   3.3611326718909E-04
(PID.TID 0000.0001) %MON seaice_vice_max              =   1.4186319054110E+00
(PID.TID 0000.0001) %MON seaice_vice_min              =  -2.0468782463833E+00
(PID.TID 0000.0001) %MON seaice_vice_mean             =  -2.5252498597591E-02
(PID.TID 0000.0001) %MON seaice_vice_sd               =   1.6848731565662E-01
(PID.TID 0000.0001) %MON seaice_vice_del2             =   3.2200710189582E-04
(PID.TID 0000.0001) %MON seaice_area_max              =   1.0063716207639E+00
(PID.TID 0000.0001) %MON seaice_area_min              =   0.0000000000000E+00
(PID.TID 0000.0001) %MON seaice_area_mean             =   5.7255198266719E-02
(PID.TID 0000.0001) %MON seaice_area_sd               =   2.2171063251463E-01
(PID.TID 0000.0001) %MON seaice_area_del2             =   3.2519490252976E-04
(PID.TID 0000.0001) %MON seaice_heff_max              =   9.9493452697040E+00
(PID.TID 0000.0001) %MON seaice_heff_min              =   0.0000000000000E+00
(PID.TID 0000.0001) %MON seaice_heff_mean             =   1.5009604444774E-01
(PID.TID 0000.0001) %MON seaice_heff_sd               =   7.2171529783177E-01
(PID.TID 0000.0001) %MON seaice_heff_del2             =   1.5051865266866E-03
(PID.TID 0000.0001) %MON seaice_hsnow_max             =   3.2862950704378E+00
(PID.TID 0000.0001) %MON seaice_hsnow_min             =   0.0000000000000E+00
(PID.TID 0000.0001) %MON seaice_hsnow_mean            =   1.2745478873676E-02
(PID.TID 0000.0001) %MON seaice_hsnow_sd              =   6.9319959583435E-02
(PID.TID 0000.0001) %MON seaice_hsnow_del2            =   4.2185986193867E-04
(PID.TID 0000.0001) // =======================================================
(PID.TID 0000.0001) // End MONITOR SEAICE statistics
(PID.TID 0000.0001) // =======================================================
(PID.TID 0000.0001) // =======================================================
(PID.TID 0000.0001) // Begin MONITOR dynamic field statistics
(PID.TID 0000.0001) // =======================================================
(PID.TID 0000.0001) %MON time_tsnumber                =                174683
(PID.TID 0000.0001) %MON time_secondsf                =   7.8607350000000E+07
(PID.TID 0000.0001) %MON dynstat_eta_max              =   3.5210858318082E+00
(PID.TID 0000.0001) %MON dynstat_eta_min              =  -1.1508350529381E+01
(PID.TID 0000.0001) %MON dynstat_eta_mean             =   6.4743654114263E-02
(PID.TID 0000.0001) %MON dynstat_eta_sd               =   8.3930436103874E-01
(PID.TID 0000.0001) %MON dynstat_eta_del2             =   2.0299272924934E-03
(PID.TID 0000.0001) %MON dynstat_uvel_max             =   1.8112194926052E+00
(PID.TID 0000.0001) %MON dynstat_uvel_min             =  -2.0778139642022E+00
(PID.TID 0000.0001) %MON dynstat_uvel_mean            =   1.9285407786328E-03
(PID.TID 0000.0001) %MON dynstat_uvel_sd              =   3.1208394340118E-02
(PID.TID 0000.0001) %MON dynstat_uvel_del2            =   2.7686421346487E-05
(PID.TID 0000.0001) %MON dynstat_vvel_max             =   1.4562903276397E+00
(PID.TID 0000.0001) %MON dynstat_vvel_min             =  -2.3230726687867E+00
(PID.TID 0000.0001) %MON dynstat_vvel_mean            =   9.8560140993776E-04
(PID.TID 0000.0001) %MON dynstat_vvel_sd              =   3.0474593056929E-02
(PID.TID 0000.0001) %MON dynstat_vvel_del2            =   2.6686282878428E-05
(PID.TID 0000.0001) %MON dynstat_wvel_max             =   8.7173024482675E-03
(PID.TID 0000.0001) %MON dynstat_wvel_min             =  -1.0689660646368E-02
(PID.TID 0000.0001) %MON dynstat_wvel_mean            =   2.2009221303797E-07
(PID.TID 0000.0001) %MON dynstat_wvel_sd              =   8.4795453394695E-05
(PID.TID 0000.0001) %MON dynstat_wvel_del2            =   1.7953892499195E-07
(PID.TID 0000.0001) %MON dynstat_theta_max            =   3.2435585950665E+01
(PID.TID 0000.0001) %MON dynstat_theta_min            =  -2.0289469853826E+00
(PID.TID 0000.0001) %MON dynstat_theta_mean           =   3.5921862383881E+00
(PID.TID 0000.0001) %MON dynstat_theta_sd             =   4.4421699250581E+00
(PID.TID 0000.0001) %MON dynstat_theta_del2           =   1.1871131602278E-04
(PID.TID 0000.0001) %MON dynstat_salt_max             =   4.0655995785389E+01
(PID.TID 0000.0001) %MON dynstat_salt_min             =   1.6223867404139E+01
(PID.TID 0000.0001) %MON dynstat_salt_mean            =   3.4724849390653E+01
(PID.TID 0000.0001) %MON dynstat_salt_sd              =   3.7957940783401E-01
(PID.TID 0000.0001) %MON dynstat_salt_del2            =   7.4631674136936E-05
(PID.TID 0000.0001) %MON dynstat_sst_max              =   3.2435585950665E+01
(PID.TID 0000.0001) %MON dynstat_sst_min              =  -2.0289469853826E+00
(PID.TID 0000.0001) %MON dynstat_sst_mean             =   1.8174408760081E+01
(PID.TID 0000.0001) %MON dynstat_sst_sd               =   1.0149995440695E+01
(PID.TID 0000.0001) %MON dynstat_sst_del2             =   1.1417294772476E-03
(PID.TID 0000.0001) %MON dynstat_sss_max              =   3.9474698301226E+01
(PID.TID 0000.0001) %MON dynstat_sss_min              =   1.6223867404139E+01
(PID.TID 0000.0001) %MON dynstat_sss_mean             =   3.4651211098902E+01
(PID.TID 0000.0001) %MON dynstat_sss_sd               =   1.2850326754967E+00
(PID.TID 0000.0001) %MON dynstat_sss_del2             =   1.4506185151138E-03
(PID.TID 0000.0001) %MON forcing_qnet_max             =   4.0874252298882E+03
(PID.TID 0000.0001) %MON forcing_qnet_min             =  -5.2359321289062E+03
(PID.TID 0000.0001) %MON forcing_qnet_mean            =   6.5544665316418E+00
(PID.TID 0000.0001) %MON forcing_qnet_sd              =   2.3155560894619E+02
(PID.TID 0000.0001) %MON forcing_qnet_del2            =   8.4608457231967E-01
(PID.TID 0000.0001) %MON forcing_qsw_max              =   0.0000000000000E+00
(PID.TID 0000.0001) %MON forcing_qsw_min              =  -1.1006440535547E+02
(PID.TID 0000.0001) %MON forcing_qsw_mean             =  -1.5760569322289E+01
(PID.TID 0000.0001) %MON forcing_qsw_sd               =   2.6946297103313E+01
(PID.TID 0000.0001) %MON forcing_qsw_del2             =   2.1596639805830E-02
(PID.TID 0000.0001) %MON forcing_empmr_max            =   2.3396121338010E-02
(PID.TID 0000.0001) %MON forcing_empmr_min            =  -4.5836117118597E-02
(PID.TID 0000.0001) %MON forcing_empmr_mean           =   1.1098634217554E-05
(PID.TID 0000.0001) %MON forcing_empmr_sd             =   4.2234395183800E-04
(PID.TID 0000.0001) %MON forcing_empmr_del2           =   4.8316464276318E-06
(PID.TID 0000.0001) %MON forcing_fu_max               =   7.6829582452774E-01
(PID.TID 0000.0001) %MON forcing_fu_min               =  -7.7835526782306E-01
(PID.TID 0000.0001) %MON forcing_fu_mean              =   8.7005253730713E-03
(PID.TID 0000.0001) %MON forcing_fu_sd                =   1.1682379244187E-01
(PID.TID 0000.0001) %MON forcing_fu_del2              =   1.4745926625468E-04
(PID.TID 0000.0001) %MON forcing_fv_max               =   8.3436271548271E-01
(PID.TID 0000.0001) %MON forcing_fv_min               =  -1.8052403165208E+00
(PID.TID 0000.0001) %MON forcing_fv_mean              =  -1.7885079932928E-03
(PID.TID 0000.0001) %MON forcing_fv_sd                =   1.0854857855237E-01
(PID.TID 0000.0001) %MON forcing_fv_del2              =   1.4484293436915E-04
(PID.TID 0000.0001) %MON trAdv_CFL_u_max              =   2.1431942370053E-02
(PID.TID 0000.0001) %MON trAdv_CFL_v_max              =   2.3498287340089E-02
(PID.TID 0000.0001) %MON trAdv_CFL_w_max              =   8.0591642184168E-02
(PID.TID 0000.0001) %MON advcfl_uvel_max              =   2.1718624454066E-02
(PID.TID 0000.0001) %MON advcfl_vvel_max              =   2.3582179336913E-02
(PID.TID 0000.0001) %MON advcfl_wvel_max              =   7.6749844873586E-02
(PID.TID 0000.0001) %MON advcfl_W_hf_max              =   8.0591642184168E-02
(PID.TID 0000.0001) %MON pe_b_mean                    =   1.8815209579479E-03
(PID.TID 0000.0001) %MON ke_max                       =   2.5967448600776E+00
(PID.TID 0000.0001) %MON ke_mean                      =   9.1970643128246E-04
(PID.TID 0000.0001) %MON ke_vol                       =   1.3350064351420E+18
(PID.TID 0000.0001) %MON vort_r_min                   =  -8.1109903583649E-05
(PID.TID 0000.0001) %MON vort_r_max                   =   7.8610768606674E-05
(PID.TID 0000.0001) %MON vort_a_mean                  =  -1.9725066910771E-05
(PID.TID 0000.0001) %MON vort_a_sd                    =   7.4539115481848E-05
(PID.TID 0000.0001) %MON vort_p_mean                  =  -2.1669070888380E-05
(PID.TID 0000.0001) %MON vort_p_sd                    =   9.3608213054159E-05
(PID.TID 0000.0001) %MON surfExpan_theta_mean         =   1.4054781664802E-05
(PID.TID 0000.0001) %MON surfExpan_salt_mean          =   8.6213534597877E-06
(PID.TID 0000.0001) // =======================================================
(PID.TID 0000.0001) // End MONITOR dynamic field statistics
(PID.TID 0000.0001) // =======================================================
(PID.TID 0000.0001) // =======================================================
(PID.TID 0000.0001) // Begin MONITOR SEAICE statistics
(PID.TID 0000.0001) // =======================================================
(PID.TID 0000.0001) %MON seaice_tsnumber              =                174683
(PID.TID 0000.0001) %MON seaice_time_sec              =   7.8607350000000E+07
(PID.TID 0000.0001) %MON seaice_uice_max              =   1.7266472941755E+00
(PID.TID 0000.0001) %MON seaice_uice_min              =  -1.6060308903090E+00
(PID.TID 0000.0001) %MON seaice_uice_mean             =   1.4039829085479E-03
(PID.TID 0000.0001) %MON seaice_uice_sd               =   1.6153845276632E-01
(PID.TID 0000.0001) %MON seaice_uice_del2             =   3.3642797650698E-04
(PID.TID 0000.0001) %MON seaice_vice_max              =   1.4013855543894E+00
(PID.TID 0000.0001) %MON seaice_vice_min              =  -2.0415324410798E+00
(PID.TID 0000.0001) %MON seaice_vice_mean             =  -2.5167350225289E-02
(PID.TID 0000.0001) %MON seaice_vice_sd               =   1.6827126799798E-01
(PID.TID 0000.0001) %MON seaice_vice_del2             =   3.2279625622798E-04
(PID.TID 0000.0001) %MON seaice_area_max              =   1.0063069288823E+00
(PID.TID 0000.0001) %MON seaice_area_min              =   0.0000000000000E+00
(PID.TID 0000.0001) %MON seaice_area_mean             =   5.7256256957567E-02
(PID.TID 0000.0001) %MON seaice_area_sd               =   2.2170408741203E-01
(PID.TID 0000.0001) %MON seaice_area_del2             =   3.2471036878956E-04
(PID.TID 0000.0001) %MON seaice_heff_max              =   9.9493320002740E+00
(PID.TID 0000.0001) %MON seaice_heff_min              =   0.0000000000000E+00
(PID.TID 0000.0001) %MON seaice_heff_mean             =   1.5009297920821E-01
(PID.TID 0000.0001) %MON seaice_heff_sd               =   7.2170635645224E-01
(PID.TID 0000.0001) %MON seaice_heff_del2             =   1.5035991234438E-03
(PID.TID 0000.0001) %MON seaice_hsnow_max             =   3.2862910609566E+00
(PID.TID 0000.0001) %MON seaice_hsnow_min             =   0.0000000000000E+00
(PID.TID 0000.0001) %MON seaice_hsnow_mean            =   1.2744837464272E-02
(PID.TID 0000.0001) %MON seaice_hsnow_sd              =   6.9310116456578E-02
(PID.TID 0000.0001) %MON seaice_hsnow_del2            =   4.2134113790456E-04
(PID.TID 0000.0001) // =======================================================
(PID.TID 0000.0001) // End MONITOR SEAICE statistics
(PID.TID 0000.0001) // =======================================================
(PID.TID 0000.0001) // =======================================================
(PID.TID 0000.0001) // Begin MONITOR dynamic field statistics
(PID.TID 0000.0001) // =======================================================
(PID.TID 0000.0001) %MON time_tsnumber                =                174684
(PID.TID 0000.0001) %MON time_secondsf                =   7.8607800000000E+07
(PID.TID 0000.0001) %MON dynstat_eta_max              =   3.5640869545448E+00
(PID.TID 0000.0001) %MON dynstat_eta_min              =  -1.1570975057467E+01
(PID.TID 0000.0001) %MON dynstat_eta_mean             =   6.4861145187807E-02
(PID.TID 0000.0001) %MON dynstat_eta_sd               =   8.3931108998040E-01
(PID.TID 0000.0001) %MON dynstat_eta_del2             =   2.0288694521615E-03
(PID.TID 0000.0001) %MON dynstat_uvel_max             =   1.7793552405193E+00
(PID.TID 0000.0001) %MON dynstat_uvel_min             =  -2.0978411587145E+00
(PID.TID 0000.0001) %MON dynstat_uvel_mean            =   1.9126166241121E-03
(PID.TID 0000.0001) %MON dynstat_uvel_sd              =   3.1221029404156E-02
(PID.TID 0000.0001) %MON dynstat_uvel_del2            =   2.7811696896114E-05
(PID.TID 0000.0001) %MON dynstat_vvel_max             =   1.4754541709339E+00
(PID.TID 0000.0001) %MON dynstat_vvel_min             =  -2.3073173742677E+00
(PID.TID 0000.0001) %MON dynstat_vvel_mean            =   9.7967141782556E-04
(PID.TID 0000.0001) %MON dynstat_vvel_sd              =   3.0491510537332E-02
(PID.TID 0000.0001) %MON dynstat_vvel_del2            =   2.6809841152745E-05
(PID.TID 0000.0001) %MON dynstat_wvel_max             =   8.7888800314001E-03
(PID.TID 0000.0001) %MON dynstat_wvel_min             =  -1.0773250106538E-02
(PID.TID 0000.0001) %MON dynstat_wvel_mean            =   2.2608874616343E-07
(PID.TID 0000.0001) %MON dynstat_wvel_sd              =   8.5151564648098E-05
(PID.TID 0000.0001) %MON dynstat_wvel_del2            =   1.8074542171585E-07
(PID.TID 0000.0001) %MON dynstat_theta_max            =   3.2438780393313E+01
(PID.TID 0000.0001) %MON dynstat_theta_min            =  -2.0293950859413E+00
(PID.TID 0000.0001) %MON dynstat_theta_mean           =   3.5921844630747E+00
(PID.TID 0000.0001) %MON dynstat_theta_sd             =   4.4421653332473E+00
(PID.TID 0000.0001) %MON dynstat_theta_del2           =   1.1875194575903E-04
(PID.TID 0000.0001) %MON dynstat_salt_max             =   4.0655995750240E+01
(PID.TID 0000.0001) %MON dynstat_salt_min             =   1.6222449796795E+01
(PID.TID 0000.0001) %MON dynstat_salt_mean            =   3.4724849131322E+01
(PID.TID 0000.0001) %MON dynstat_salt_sd              =   3.7957999614876E-01
(PID.TID 0000.0001) %MON dynstat_salt_del2            =   7.4503282148958E-05
(PID.TID 0000.0001) %MON dynstat_sst_max              =   3.2438780393313E+01
(PID.TID 0000.0001) %MON dynstat_sst_min              =  -2.0293950859413E+00
(PID.TID 0000.0001) %MON dynstat_sst_mean             =   1.8174348270526E+01
(PID.TID 0000.0001) %MON dynstat_sst_sd               =   1.0150228313487E+01
(PID.TID 0000.0001) %MON dynstat_sst_del2             =   1.1414160533675E-03
(PID.TID 0000.0001) %MON dynstat_sss_max              =   3.9474669465786E+01
(PID.TID 0000.0001) %MON dynstat_sss_min              =   1.6222449796795E+01
(PID.TID 0000.0001) %MON dynstat_sss_mean             =   3.4651123772181E+01
(PID.TID 0000.0001) %MON dynstat_sss_sd               =   1.2851813181731E+00
(PID.TID 0000.0001) %MON dynstat_sss_del2             =   1.4498424078281E-03
(PID.TID 0000.0001) %MON forcing_qnet_max             =   4.4729596575746E+03
(PID.TID 0000.0001) %MON forcing_qnet_min             =  -4.8219662870809E+03
(PID.TID 0000.0001) %MON forcing_qnet_mean            =   6.4221658560121E+00
(PID.TID 0000.0001) %MON forcing_qnet_sd              =   2.3124958849296E+02
(PID.TID 0000.0001) %MON forcing_qnet_del2            =   8.3284873585903E-01
(PID.TID 0000.0001) %MON forcing_qsw_max              =   0.0000000000000E+00
(PID.TID 0000.0001) %MON forcing_qsw_min              =  -1.1021443166472E+02
(PID.TID 0000.0001) %MON forcing_qsw_mean             =  -1.5766585122665E+01
(PID.TID 0000.0001) %MON forcing_qsw_sd               =   2.7075422545408E+01
(PID.TID 0000.0001) %MON forcing_qsw_del2             =   2.1629410158777E-02
(PID.TID 0000.0001) %MON forcing_empmr_max            =   2.3828025907278E-02
(PID.TID 0000.0001) %MON forcing_empmr_min            =  -4.4637903571129E-02
(PID.TID 0000.0001) %MON forcing_empmr_mean           =   1.1134804312377E-05
(PID.TID 0000.0001) %MON forcing_empmr_sd             =   4.1999780220611E-04
(PID.TID 0000.0001) %MON forcing_empmr_del2           =   4.8151118676629E-06
(PID.TID 0000.0001) %MON forcing_fu_max               =   7.6489293575287E-01
(PID.TID 0000.0001) %MON forcing_fu_min               =  -7.9722519871498E-01
(PID.TID 0000.0001) %MON forcing_fu_mean              =   8.7221021382397E-03
(PID.TID 0000.0001) %MON forcing_fu_sd                =   1.1692943779932E-01
(PID.TID 0000.0001) %MON forcing_fu_del2              =   1.4780714257046E-04
(PID.TID 0000.0001) %MON forcing_fv_max               =   8.3062380552292E-01
(PID.TID 0000.0001) %MON forcing_fv_min               =  -1.8641575964764E+00
(PID.TID 0000.0001) %MON forcing_fv_mean              =  -1.8110653705616E-03
(PID.TID 0000.0001) %MON forcing_fv_sd                =   1.0848601196039E-01
(PID.TID 0000.0001) %MON forcing_fv_del2              =   1.4498683010412E-04
(PID.TID 0000.0001) %MON trAdv_CFL_u_max              =   2.1638516050862E-02
(PID.TID 0000.0001) %MON trAdv_CFL_v_max              =   2.3338919773715E-02
(PID.TID 0000.0001) %MON trAdv_CFL_w_max              =   8.2704352598713E-02
(PID.TID 0000.0001) %MON advcfl_uvel_max              =   2.1927961345615E-02
(PID.TID 0000.0001) %MON advcfl_vvel_max              =   2.3422242807227E-02
(PID.TID 0000.0001) %MON advcfl_wvel_max              =   7.8768025739288E-02
(PID.TID 0000.0001) %MON advcfl_W_hf_max              =   8.2704352598713E-02
(PID.TID 0000.0001) %MON pe_b_mean                    =   1.8822851854631E-03
(PID.TID 0000.0001) %MON ke_max                       =   2.6087216357133E+00
(PID.TID 0000.0001) %MON ke_mean                      =   9.2054899371577E-04
(PID.TID 0000.0001) %MON ke_vol                       =   1.3350064351420E+18
(PID.TID 0000.0001) %MON vort_r_min                   =  -8.1649893871843E-05
(PID.TID 0000.0001) %MON vort_r_max                   =   7.9276502291117E-05
(PID.TID 0000.0001) %MON vort_a_mean                  =  -1.9725067337196E-05
(PID.TID 0000.0001) %MON vort_a_sd                    =   7.4539130819316E-05
(PID.TID 0000.0001) %MON vort_p_mean                  =  -2.1669071356831E-05
(PID.TID 0000.0001) %MON vort_p_sd                    =   9.3608195161537E-05
(PID.TID 0000.0001) %MON surfExpan_theta_mean         =   1.3267082141822E-05
(PID.TID 0000.0001) %MON surfExpan_salt_mean          =   8.7156333041701E-06
(PID.TID 0000.0001) // =======================================================
(PID.TID 0000.0001) // End MONITOR dynamic field statistics
(PID.TID 0000.0001) // =======================================================
(PID.TID 0000.0001) // =======================================================
(PID.TID 0000.0001) // Begin MONITOR SEAICE statistics
(PID.TID 0000.0001) // =======================================================
(PID.TID 0000.0001) %MON seaice_tsnumber              =                174684
(PID.TID 0000.0001) %MON seaice_time_sec              =   7.8607800000000E+07
(PID.TID 0000.0001) %MON seaice_uice_max              =   1.7140578855701E+00
(PID.TID 0000.0001) %MON seaice_uice_min              =  -1.6150925472210E+00
(PID.TID 0000.0001) %MON seaice_uice_mean             =   1.4167013427188E-03
(PID.TID 0000.0001) %MON seaice_uice_sd               =   1.6131315027516E-01
(PID.TID 0000.0001) %MON seaice_uice_del2             =   3.3670181156987E-04
(PID.TID 0000.0001) %MON seaice_vice_max              =   1.4196339816025E+00
(PID.TID 0000.0001) %MON seaice_vice_min              =  -2.0324763556831E+00
(PID.TID 0000.0001) %MON seaice_vice_mean             =  -2.5089760721569E-02
(PID.TID 0000.0001) %MON seaice_vice_sd               =   1.6805067232315E-01
(PID.TID 0000.0001) %MON seaice_vice_del2             =   3.2341331622638E-04
(PID.TID 0000.0001) %MON seaice_area_max              =   1.0062417188502E+00
(PID.TID 0000.0001) %MON seaice_area_min              =   0.0000000000000E+00
(PID.TID 0000.0001) %MON seaice_area_mean             =   5.7257274403107E-02
(PID.TID 0000.0001) %MON seaice_area_sd               =   2.2169741367107E-01
(PID.TID 0000.0001) %MON seaice_area_del2             =   3.2421219546368E-04
(PID.TID 0000.0001) %MON seaice_heff_max              =   9.9493158585605E+00
(PID.TID 0000.0001) %MON seaice_heff_min              =   0.0000000000000E+00
(PID.TID 0000.0001) %MON seaice_heff_mean             =   1.5008989026144E-01
(PID.TID 0000.0001) %MON seaice_heff_sd               =   7.2169722761167E-01
(PID.TID 0000.0001) %MON seaice_heff_del2             =   1.5019616317544E-03
(PID.TID 0000.0001) %MON seaice_hsnow_max             =   3.2862858083597E+00
(PID.TID 0000.0001) %MON seaice_hsnow_min             =   0.0000000000000E+00
(PID.TID 0000.0001) %MON seaice_hsnow_mean            =   1.2744190996352E-02
(PID.TID 0000.0001) %MON seaice_hsnow_sd              =   6.9300125469001E-02
(PID.TID 0000.0001) %MON seaice_hsnow_del2            =   4.2080157086253E-04
(PID.TID 0000.0001) // =======================================================
(PID.TID 0000.0001) // End MONITOR SEAICE statistics
(PID.TID 0000.0001) // =======================================================
(PID.TID 0000.0001) // =======================================================
(PID.TID 0000.0001) // Begin MONITOR dynamic field statistics
(PID.TID 0000.0001) // =======================================================
(PID.TID 0000.0001) %MON time_tsnumber                =                174685
(PID.TID 0000.0001) %MON time_secondsf                =   7.8608250000000E+07
(PID.TID 0000.0001) %MON dynstat_eta_max              =   3.5464263127150E+00
(PID.TID 0000.0001) %MON dynstat_eta_min              =  -1.1620499352217E+01
(PID.TID 0000.0001) %MON dynstat_eta_mean             =   6.4980909907404E-02
(PID.TID 0000.0001) %MON dynstat_eta_sd               =   8.3930112553255E-01
(PID.TID 0000.0001) %MON dynstat_eta_del2             =   2.0279292891530E-03
(PID.TID 0000.0001) %MON dynstat_uvel_max             =   1.7502048019329E+00
(PID.TID 0000.0001) %MON dynstat_uvel_min             =  -2.1171748500221E+00
(PID.TID 0000.0001) %MON dynstat_uvel_mean            =   1.8944827943403E-03
(PID.TID 0000.0001) %MON dynstat_uvel_sd              =   3.1230353321455E-02
(PID.TID 0000.0001) %MON dynstat_uvel_del2            =   2.7935354230939E-05
(PID.TID 0000.0001) %MON dynstat_vvel_max             =   1.4944122231131E+00
(PID.TID 0000.0001) %MON dynstat_vvel_min             =  -2.2882910235621E+00
(PID.TID 0000.0001) %MON dynstat_vvel_mean            =   9.6956963408889E-04
(PID.TID 0000.0001) %MON dynstat_vvel_sd              =   3.0510312133206E-02
(PID.TID 0000.0001) %MON dynstat_vvel_del2            =   2.6931117444262E-05
(PID.TID 0000.0001) %MON dynstat_wvel_max             =   8.8564872239563E-03
(PID.TID 0000.0001) %MON dynstat_wvel_min             =  -1.0848602250041E-02
(PID.TID 0000.0001) %MON dynstat_wvel_mean            =   2.3202987674373E-07
(PID.TID 0000.0001) %MON dynstat_wvel_sd              =   8.5495794149837E-05
(PID.TID 0000.0001) %MON dynstat_wvel_del2            =   1.8193558004783E-07
(PID.TID 0000.0001) %MON dynstat_theta_max            =   3.2441909904016E+01
(PID.TID 0000.0001) %MON dynstat_theta_min            =  -2.0297644264862E+00
(PID.TID 0000.0001) %MON dynstat_theta_mean           =   3.5921828404946E+00
(PID.TID 0000.0001) %MON dynstat_theta_sd             =   4.4421611480834E+00
(PID.TID 0000.0001) %MON dynstat_theta_del2           =   1.1879075443236E-04
(PID.TID 0000.0001) %MON dynstat_salt_max             =   4.0655995709335E+01
(PID.TID 0000.0001) %MON dynstat_salt_min             =   1.6220920345617E+01
(PID.TID 0000.0001) %MON dynstat_salt_mean            =   3.4724848881226E+01
(PID.TID 0000.0001) %MON dynstat_salt_sd              =   3.7958052727472E-01
(PID.TID 0000.0001) %MON dynstat_salt_del2            =   7.4377570303321E-05
(PID.TID 0000.0001) %MON dynstat_sst_max              =   3.2441909904016E+01
(PID.TID 0000.0001) %MON dynstat_sst_min              =  -2.0297644264862E+00
(PID.TID 0000.0001) %MON dynstat_sst_mean             =   1.8174296744131E+01
(PID.TID 0000.0001) %MON dynstat_sst_sd               =   1.0150453177569E+01
(PID.TID 0000.0001) %MON dynstat_sst_del2             =   1.1410911322521E-03
(PID.TID 0000.0001) %MON dynstat_sss_max              =   3.9474633535716E+01
(PID.TID 0000.0001) %MON dynstat_sss_min              =   1.6220920345617E+01
(PID.TID 0000.0001) %MON dynstat_sss_mean             =   3.4651037134505E+01
(PID.TID 0000.0001) %MON dynstat_sss_sd               =   1.2853275900478E+00
(PID.TID 0000.0001) %MON dynstat_sss_del2             =   1.4491461503112E-03
(PID.TID 0000.0001) %MON forcing_qnet_max             =   4.7536032870973E+03
(PID.TID 0000.0001) %MON forcing_qnet_min             =  -6.4990629882812E+03
(PID.TID 0000.0001) %MON forcing_qnet_mean            =   4.0695669824148E+00
(PID.TID 0000.0001) %MON forcing_qnet_sd              =   2.3182067178650E+02
(PID.TID 0000.0001) %MON forcing_qnet_del2            =   8.9027206098647E-01
(PID.TID 0000.0001) %MON forcing_qsw_max              =   0.0000000000000E+00
(PID.TID 0000.0001) %MON forcing_qsw_min              =  -1.1031689351875E+02
(PID.TID 0000.0001) %MON forcing_qsw_mean             =  -1.5980476345334E+01
(PID.TID 0000.0001) %MON forcing_qsw_sd               =   2.7759258419405E+01
(PID.TID 0000.0001) %MON forcing_qsw_del2             =   2.1645053163919E-02
(PID.TID 0000.0001) %MON forcing_empmr_max            =   2.4299208074808E-02
(PID.TID 0000.0001) %MON forcing_empmr_min            =  -4.4095434248447E-02
(PID.TID 0000.0001) %MON forcing_empmr_mean           =   1.0907841499537E-05
(PID.TID 0000.0001) %MON forcing_empmr_sd             =   4.1825585282939E-04
(PID.TID 0000.0001) %MON forcing_empmr_del2           =   4.8092750309706E-06
(PID.TID 0000.0001) %MON forcing_fu_max               =   7.5999701023102E-01
(PID.TID 0000.0001) %MON forcing_fu_min               =  -8.1272465771881E-01
(PID.TID 0000.0001) %MON forcing_fu_mean              =   8.7308096114424E-03
(PID.TID 0000.0001) %MON forcing_fu_sd                =   1.1697177165155E-01
(PID.TID 0000.0001) %MON forcing_fu_del2              =   1.4799251573823E-04
(PID.TID 0000.0001) %MON forcing_fv_max               =   8.3143894238448E-01
(PID.TID 0000.0001) %MON forcing_fv_min               =  -1.9106735737208E+00
(PID.TID 0000.0001) %MON forcing_fv_mean              =  -1.8414265198205E-03
(PID.TID 0000.0001) %MON forcing_fv_sd                =   1.0838721027464E-01
(PID.TID 0000.0001) %MON forcing_fv_del2              =   1.4518022731625E-04
(PID.TID 0000.0001) %MON trAdv_CFL_u_max              =   2.1837936482644E-02
(PID.TID 0000.0001) %MON trAdv_CFL_v_max              =   2.3146464900511E-02
(PID.TID 0000.0001) %MON trAdv_CFL_w_max              =   8.4798892704683E-02
(PID.TID 0000.0001) %MON advcfl_uvel_max              =   2.2130049303466E-02
(PID.TID 0000.0001) %MON advcfl_vvel_max              =   2.3229100844647E-02
(PID.TID 0000.0001) %MON advcfl_wvel_max              =   8.0765108923447E-02
(PID.TID 0000.0001) %MON advcfl_W_hf_max              =   8.4798892704683E-02
(PID.TID 0000.0001) %MON pe_b_mean                    =   1.8830886113706E-03
(PID.TID 0000.0001) %MON ke_max                       =   2.6161791554250E+00
(PID.TID 0000.0001) %MON ke_mean                      =   9.2134004157384E-04
(PID.TID 0000.0001) %MON ke_vol                       =   1.3350064351420E+18
(PID.TID 0000.0001) %MON vort_r_min                   =  -8.2151500352960E-05
(PID.TID 0000.0001) %MON vort_r_max                   =   7.9912599101579E-05
(PID.TID 0000.0001) %MON vort_a_mean                  =  -1.9725067740518E-05
(PID.TID 0000.0001) %MON vort_a_sd                    =   7.4539145125455E-05
(PID.TID 0000.0001) %MON vort_p_mean                  =  -2.1669071799903E-05
(PID.TID 0000.0001) %MON vort_p_sd                    =   9.3608174483378E-05
(PID.TID 0000.0001) %MON surfExpan_theta_mean         =   1.2507894515369E-05
(PID.TID 0000.0001) %MON surfExpan_salt_mean          =   8.8285651372492E-06
(PID.TID 0000.0001) // =======================================================
(PID.TID 0000.0001) // End MONITOR dynamic field statistics
(PID.TID 0000.0001) // =======================================================
(PID.TID 0000.0001) // =======================================================
(PID.TID 0000.0001) // Begin MONITOR SEAICE statistics
(PID.TID 0000.0001) // =======================================================
(PID.TID 0000.0001) %MON seaice_tsnumber              =                174685
(PID.TID 0000.0001) %MON seaice_time_sec              =   7.8608250000000E+07
(PID.TID 0000.0001) %MON seaice_uice_max              =   1.7009941268353E+00
(PID.TID 0000.0001) %MON seaice_uice_min              =  -1.6207450837301E+00
(PID.TID 0000.0001) %MON seaice_uice_mean             =   1.4227151917485E-03
(PID.TID 0000.0001) %MON seaice_uice_sd               =   1.6110008077483E-01
(PID.TID 0000.0001) %MON seaice_uice_del2             =   3.3689505190723E-04
(PID.TID 0000.0001) %MON seaice_vice_max              =   1.4394609715309E+00
(PID.TID 0000.0001) %MON seaice_vice_min              =  -2.0198023422047E+00
(PID.TID 0000.0001) %MON seaice_vice_mean             =  -2.5018303761448E-02
(PID.TID 0000.0001) %MON seaice_vice_sd               =   1.6782507559759E-01
(PID.TID 0000.0001) %MON seaice_vice_del2             =   3.2388792466797E-04
(PID.TID 0000.0001) %MON seaice_area_max              =   1.0061742470233E+00
(PID.TID 0000.0001) %MON seaice_area_min              =   0.0000000000000E+00
(PID.TID 0000.0001) %MON seaice_area_mean             =   5.7258242566280E-02
(PID.TID 0000.0001) %MON seaice_area_sd               =   2.2169061300285E-01
(PID.TID 0000.0001) %MON seaice_area_del2             =   3.2370256342871E-04
(PID.TID 0000.0001) %MON seaice_heff_max              =   9.9493159240668E+00
(PID.TID 0000.0001) %MON seaice_heff_min              =   0.0000000000000E+00
(PID.TID 0000.0001) %MON seaice_heff_mean             =   1.5008678467359E-01
(PID.TID 0000.0001) %MON seaice_heff_sd               =   7.2168793626261E-01
(PID.TID 0000.0001) %MON seaice_heff_del2             =   1.5002751722176E-03
(PID.TID 0000.0001) %MON seaice_hsnow_max             =   3.2862864730459E+00
(PID.TID 0000.0001) %MON seaice_hsnow_min             =   0.0000000000000E+00
(PID.TID 0000.0001) %MON seaice_hsnow_mean            =   1.2743504162098E-02
(PID.TID 0000.0001) %MON seaice_hsnow_sd              =   6.9289938743526E-02
(PID.TID 0000.0001) %MON seaice_hsnow_del2            =   4.2024206151257E-04
(PID.TID 0000.0001) // =======================================================
(PID.TID 0000.0001) // End MONITOR SEAICE statistics
(PID.TID 0000.0001) // =======================================================
(PID.TID 0000.0001) // =======================================================
(PID.TID 0000.0001) // Begin MONITOR dynamic field statistics
(PID.TID 0000.0001) // =======================================================
(PID.TID 0000.0001) %MON time_tsnumber                =                174686
(PID.TID 0000.0001) %MON time_secondsf                =   7.8608700000000E+07
(PID.TID 0000.0001) %MON dynstat_eta_max              =   3.4639860832251E+00
(PID.TID 0000.0001) %MON dynstat_eta_min              =  -1.1655556562194E+01
(PID.TID 0000.0001) %MON dynstat_eta_mean             =   6.5102962069070E-02
(PID.TID 0000.0001) %MON dynstat_eta_sd               =   8.3928738181117E-01
(PID.TID 0000.0001) %MON dynstat_eta_del2             =   2.0271003904009E-03
(PID.TID 0000.0001) %MON dynstat_uvel_max             =   1.7376853589815E+00
(PID.TID 0000.0001) %MON dynstat_uvel_min             =  -2.1358147436673E+00
(PID.TID 0000.0001) %MON dynstat_uvel_mean            =   1.8745135375705E-03
(PID.TID 0000.0001) %MON dynstat_uvel_sd              =   3.1235705253487E-02
(PID.TID 0000.0001) %MON dynstat_uvel_del2            =   2.8057583596921E-05
(PID.TID 0000.0001) %MON dynstat_vvel_max             =   1.5130255294760E+00
(PID.TID 0000.0001) %MON dynstat_vvel_min             =  -2.2662634186538E+00
(PID.TID 0000.0001) %MON dynstat_vvel_mean            =   9.5560674417522E-04
(PID.TID 0000.0001) %MON dynstat_vvel_sd              =   3.0530604377717E-02
(PID.TID 0000.0001) %MON dynstat_vvel_del2            =   2.7050285446249E-05
(PID.TID 0000.0001) %MON dynstat_wvel_max             =   8.9198822112353E-03
(PID.TID 0000.0001) %MON dynstat_wvel_min             =  -1.0915732827118E-02
(PID.TID 0000.0001) %MON dynstat_wvel_mean            =   2.3781149034921E-07
(PID.TID 0000.0001) %MON dynstat_wvel_sd              =   8.5823009834327E-05
(PID.TID 0000.0001) %MON dynstat_wvel_del2            =   1.8310374783906E-07
(PID.TID 0000.0001) %MON dynstat_theta_max            =   3.2445009790902E+01
(PID.TID 0000.0001) %MON dynstat_theta_min            =  -2.0300347328420E+00
(PID.TID 0000.0001) %MON dynstat_theta_mean           =   3.5921813168301E+00
(PID.TID 0000.0001) %MON dynstat_theta_sd             =   4.4421572290373E+00
(PID.TID 0000.0001) %MON dynstat_theta_del2           =   1.1883197232019E-04
(PID.TID 0000.0001) %MON dynstat_salt_max             =   4.0655995663044E+01
(PID.TID 0000.0001) %MON dynstat_salt_min             =   1.6219251714252E+01
(PID.TID 0000.0001) %MON dynstat_salt_mean            =   3.4724848637787E+01
(PID.TID 0000.0001) %MON dynstat_salt_sd              =   3.7958101511397E-01
(PID.TID 0000.0001) %MON dynstat_salt_del2            =   7.4253686600822E-05
(PID.TID 0000.0001) %MON dynstat_sst_max              =   3.2445009790902E+01
(PID.TID 0000.0001) %MON dynstat_sst_min              =  -2.0300347328420E+00
(PID.TID 0000.0001) %MON dynstat_sst_mean             =   1.8174258683806E+01
(PID.TID 0000.0001) %MON dynstat_sst_sd               =   1.0150685505115E+01
(PID.TID 0000.0001) %MON dynstat_sst_del2             =   1.1408304149176E-03
(PID.TID 0000.0001) %MON dynstat_sss_max              =   3.9474587811539E+01
(PID.TID 0000.0001) %MON dynstat_sss_min              =   1.6219251714252E+01
(PID.TID 0000.0001) %MON dynstat_sss_mean             =   3.4650949320250E+01
(PID.TID 0000.0001) %MON dynstat_sss_sd               =   1.2854746878918E+00
(PID.TID 0000.0001) %MON dynstat_sss_del2             =   1.4485246296934E-03
(PID.TID 0000.0001) %MON forcing_qnet_max             =   4.7920213242914E+03
(PID.TID 0000.0001) %MON forcing_qnet_min             =  -6.6087602539062E+03
(PID.TID 0000.0001) %MON forcing_qnet_mean            =   3.4122924106991E+00
(PID.TID 0000.0001) %MON forcing_qnet_sd              =   2.3218877890282E+02
(PID.TID 0000.0001) %MON forcing_qnet_del2            =   8.7413095361651E-01
(PID.TID 0000.0001) %MON forcing_qsw_max              =   0.0000000000000E+00
(PID.TID 0000.0001) %MON forcing_qsw_min              =  -1.1027357779383E+02
(PID.TID 0000.0001) %MON forcing_qsw_mean             =  -1.6055297165941E+01
(PID.TID 0000.0001) %MON forcing_qsw_sd               =   2.7952377653041E+01
(PID.TID 0000.0001) %MON forcing_qsw_del2             =   2.1716257078973E-02
(PID.TID 0000.0001) %MON forcing_empmr_max            =   2.4847043678164E-02
(PID.TID 0000.0001) %MON forcing_empmr_min            =  -4.3509379029274E-02
(PID.TID 0000.0001) %MON forcing_empmr_mean           =   1.0742059052851E-05
(PID.TID 0000.0001) %MON forcing_empmr_sd             =   4.1646503670577E-04
(PID.TID 0000.0001) %MON forcing_empmr_del2           =   4.7747915359329E-06
(PID.TID 0000.0001) %MON forcing_fu_max               =   7.6010498404503E-01
(PID.TID 0000.0001) %MON forcing_fu_min               =  -8.2523326603435E-01
(PID.TID 0000.0001) %MON forcing_fu_mean              =   8.7667980617147E-03
(PID.TID 0000.0001) %MON forcing_fu_sd                =   1.1709734671919E-01
(PID.TID 0000.0001) %MON forcing_fu_del2              =   1.4821744804894E-04
(PID.TID 0000.0001) %MON forcing_fv_max               =   8.3468018571425E-01
(PID.TID 0000.0001) %MON forcing_fv_min               =  -1.9414764784413E+00
(PID.TID 0000.0001) %MON forcing_fv_mean              =  -1.8570813030051E-03
(PID.TID 0000.0001) %MON forcing_fv_sd                =   1.0833389203774E-01
(PID.TID 0000.0001) %MON forcing_fv_del2              =   1.4548028665887E-04
(PID.TID 0000.0001) %MON trAdv_CFL_u_max              =   2.2030200628169E-02
(PID.TID 0000.0001) %MON trAdv_CFL_v_max              =   2.2923651814849E-02
(PID.TID 0000.0001) %MON trAdv_CFL_w_max              =   8.6869675423640E-02
(PID.TID 0000.0001) %MON advcfl_uvel_max              =   2.2324885249762E-02
(PID.TID 0000.0001) %MON advcfl_vvel_max              =   2.3005492286769E-02
(PID.TID 0000.0001) %MON advcfl_wvel_max              =   8.2735976314552E-02
(PID.TID 0000.0001) %MON advcfl_W_hf_max              =   8.6869675423640E-02
(PID.TID 0000.0001) %MON pe_b_mean                    =   1.8839643931866E-03
(PID.TID 0000.0001) %MON ke_max                       =   2.6191963269739E+00
(PID.TID 0000.0001) %MON ke_mean                      =   9.2204929848017E-04
(PID.TID 0000.0001) %MON ke_vol                       =   1.3350064351420E+18
(PID.TID 0000.0001) %MON vort_r_min                   =  -8.2614846407000E-05
(PID.TID 0000.0001) %MON vort_r_max                   =   8.0519380079950E-05
(PID.TID 0000.0001) %MON vort_a_mean                  =  -1.9725068107618E-05
(PID.TID 0000.0001) %MON vort_a_sd                    =   7.4539158321727E-05
(PID.TID 0000.0001) %MON vort_p_mean                  =  -2.1669072203182E-05
(PID.TID 0000.0001) %MON vort_p_sd                    =   9.3608151624125E-05
(PID.TID 0000.0001) %MON surfExpan_theta_mean         =   1.1789962785195E-05
(PID.TID 0000.0001) %MON surfExpan_salt_mean          =   8.9597893853034E-06
(PID.TID 0000.0001) // =======================================================
(PID.TID 0000.0001) // End MONITOR dynamic field statistics
(PID.TID 0000.0001) // =======================================================
(PID.TID 0000.0001) // =======================================================
(PID.TID 0000.0001) // Begin MONITOR SEAICE statistics
(PID.TID 0000.0001) // =======================================================
(PID.TID 0000.0001) %MON seaice_tsnumber              =                174686
(PID.TID 0000.0001) %MON seaice_time_sec              =   7.8608700000000E+07
(PID.TID 0000.0001) %MON seaice_uice_max              =   1.6874676342816E+00
(PID.TID 0000.0001) %MON seaice_uice_min              =  -1.6229261030078E+00
(PID.TID 0000.0001) %MON seaice_uice_mean             =   1.4359095669047E-03
(PID.TID 0000.0001) %MON seaice_uice_sd               =   1.6089232933489E-01
(PID.TID 0000.0001) %MON seaice_uice_del2             =   3.3697255297057E-04
(PID.TID 0000.0001) %MON seaice_vice_max              =   1.4590699378501E+00
(PID.TID 0000.0001) %MON seaice_vice_min              =  -2.0038056521793E+00
(PID.TID 0000.0001) %MON seaice_vice_mean             =  -2.4957098751975E-02
(PID.TID 0000.0001) %MON seaice_vice_sd               =   1.6760273295394E-01
(PID.TID 0000.0001) %MON seaice_vice_del2             =   3.2417673397328E-04
(PID.TID 0000.0001) %MON seaice_area_max              =   1.0061018150424E+00
(PID.TID 0000.0001) %MON seaice_area_min              =   0.0000000000000E+00
(PID.TID 0000.0001) %MON seaice_area_mean             =   5.7259203873988E-02
(PID.TID 0000.0001) %MON seaice_area_sd               =   2.2168384181171E-01
(PID.TID 0000.0001) %MON seaice_area_del2             =   3.2318393125598E-04
(PID.TID 0000.0001) %MON seaice_heff_max              =   9.9493159782781E+00
(PID.TID 0000.0001) %MON seaice_heff_min              =   0.0000000000000E+00
(PID.TID 0000.0001) %MON seaice_heff_mean             =   1.5008366715034E-01
(PID.TID 0000.0001) %MON seaice_heff_sd               =   7.2167848530990E-01
(PID.TID 0000.0001) %MON seaice_heff_del2             =   1.4985470934890E-03
(PID.TID 0000.0001) %MON seaice_hsnow_max             =   3.2862868833219E+00
(PID.TID 0000.0001) %MON seaice_hsnow_min             =   0.0000000000000E+00
(PID.TID 0000.0001) %MON seaice_hsnow_mean            =   1.2742827713114E-02
(PID.TID 0000.0001) %MON seaice_hsnow_sd              =   6.9279644395050E-02
(PID.TID 0000.0001) %MON seaice_hsnow_del2            =   4.1966555850364E-04
(PID.TID 0000.0001) // =======================================================
(PID.TID 0000.0001) // End MONITOR SEAICE statistics
(PID.TID 0000.0001) // =======================================================
(PID.TID 0000.0001) // =======================================================
(PID.TID 0000.0001) // Begin MONITOR dynamic field statistics
(PID.TID 0000.0001) // =======================================================
(PID.TID 0000.0001) %MON time_tsnumber                =                174687
(PID.TID 0000.0001) %MON time_secondsf                =   7.8609150000000E+07
(PID.TID 0000.0001) %MON dynstat_eta_max              =   3.3142962332057E+00
(PID.TID 0000.0001) %MON dynstat_eta_min              =  -1.1675693354994E+01
(PID.TID 0000.0001) %MON dynstat_eta_mean             =   6.5227109235061E-02
(PID.TID 0000.0001) %MON dynstat_eta_sd               =   8.3928244881150E-01
(PID.TID 0000.0001) %MON dynstat_eta_del2             =   2.0263787782404E-03
(PID.TID 0000.0001) %MON dynstat_uvel_max             =   1.7244697171782E+00
(PID.TID 0000.0001) %MON dynstat_uvel_min             =  -2.1537747100855E+00
(PID.TID 0000.0001) %MON dynstat_uvel_mean            =   1.8530575479985E-03
(PID.TID 0000.0001) %MON dynstat_uvel_sd              =   3.1236418036384E-02
(PID.TID 0000.0001) %MON dynstat_uvel_del2            =   2.8179135708696E-05
(PID.TID 0000.0001) %MON dynstat_vvel_max             =   1.5311647767011E+00
(PID.TID 0000.0001) %MON dynstat_vvel_min             =  -2.2649306983748E+00
(PID.TID 0000.0001) %MON dynstat_vvel_mean            =   9.3814716327472E-04
(PID.TID 0000.0001) %MON dynstat_vvel_sd              =   3.0552424356351E-02
(PID.TID 0000.0001) %MON dynstat_vvel_del2            =   2.7167637922422E-05
(PID.TID 0000.0001) %MON dynstat_wvel_max             =   8.9788176740913E-03
(PID.TID 0000.0001) %MON dynstat_wvel_min             =  -1.0974744042055E-02
(PID.TID 0000.0001) %MON dynstat_wvel_mean            =   2.4303411347321E-07
(PID.TID 0000.0001) %MON dynstat_wvel_sd              =   8.6128469576788E-05
(PID.TID 0000.0001) %MON dynstat_wvel_del2            =   1.8424450644648E-07
(PID.TID 0000.0001) %MON dynstat_theta_max            =   3.2448084496528E+01
(PID.TID 0000.0001) %MON dynstat_theta_min            =  -2.0301890991383E+00
(PID.TID 0000.0001) %MON dynstat_theta_mean           =   3.5921798808586E+00
(PID.TID 0000.0001) %MON dynstat_theta_sd             =   4.4421535446814E+00
(PID.TID 0000.0001) %MON dynstat_theta_del2           =   1.1887074920422E-04
(PID.TID 0000.0001) %MON dynstat_salt_max             =   4.0655995611762E+01
(PID.TID 0000.0001) %MON dynstat_salt_min             =   1.6217420221078E+01
(PID.TID 0000.0001) %MON dynstat_salt_mean            =   3.4724848399383E+01
(PID.TID 0000.0001) %MON dynstat_salt_sd              =   3.7958148970784E-01
(PID.TID 0000.0001) %MON dynstat_salt_del2            =   7.4132273161948E-05
(PID.TID 0000.0001) %MON dynstat_sst_max              =   3.2448084496528E+01
(PID.TID 0000.0001) %MON dynstat_sst_min              =  -2.0301890991383E+00
(PID.TID 0000.0001) %MON dynstat_sst_mean             =   1.8174228133656E+01
(PID.TID 0000.0001) %MON dynstat_sst_sd               =   1.0150920372211E+01
(PID.TID 0000.0001) %MON dynstat_sst_del2             =   1.1404356245836E-03
(PID.TID 0000.0001) %MON dynstat_sss_max              =   3.9474530281014E+01
(PID.TID 0000.0001) %MON dynstat_sss_min              =   1.6217420221078E+01
(PID.TID 0000.0001) %MON dynstat_sss_mean             =   3.4650861968403E+01
(PID.TID 0000.0001) %MON dynstat_sss_sd               =   1.2856218573095E+00
(PID.TID 0000.0001) %MON dynstat_sss_del2             =   1.4479931098573E-03
(PID.TID 0000.0001) %MON forcing_qnet_max             =   4.7853027385130E+03
(PID.TID 0000.0001) %MON forcing_qnet_min             =  -3.2960515136719E+03
(PID.TID 0000.0001) %MON forcing_qnet_mean            =   2.9597060885735E+00
(PID.TID 0000.0001) %MON forcing_qnet_sd              =   2.3213739863874E+02
(PID.TID 0000.0001) %MON forcing_qnet_del2            =   8.2252355166760E-01
(PID.TID 0000.0001) %MON forcing_qsw_max              =   0.0000000000000E+00
(PID.TID 0000.0001) %MON forcing_qsw_min              =  -1.1027844997511E+02
(PID.TID 0000.0001) %MON forcing_qsw_mean             =  -1.6122552793092E+01
(PID.TID 0000.0001) %MON forcing_qsw_sd               =   2.8132351713608E+01
(PID.TID 0000.0001) %MON forcing_qsw_del2             =   2.1778883677451E-02
(PID.TID 0000.0001) %MON forcing_empmr_max            =   2.5490710511804E-02
(PID.TID 0000.0001) %MON forcing_empmr_min            =  -4.4629860669374E-02
(PID.TID 0000.0001) %MON forcing_empmr_mean           =   1.0444272177754E-05
(PID.TID 0000.0001) %MON forcing_empmr_sd             =   4.1779179437840E-04
(PID.TID 0000.0001) %MON forcing_empmr_del2           =   4.7850155017134E-06
(PID.TID 0000.0001) %MON forcing_fu_max               =   7.5846797227860E-01
(PID.TID 0000.0001) %MON forcing_fu_min               =  -8.3446858865771E-01
(PID.TID 0000.0001) %MON forcing_fu_mean              =   8.7918636766409E-03
(PID.TID 0000.0001) %MON forcing_fu_sd                =   1.1717725639259E-01
(PID.TID 0000.0001) %MON forcing_fu_del2              =   1.4843533400591E-04
(PID.TID 0000.0001) %MON forcing_fv_max               =   8.3743323763480E-01
(PID.TID 0000.0001) %MON forcing_fv_min               =  -1.9527128163223E+00
(PID.TID 0000.0001) %MON forcing_fv_mean              =  -1.8804108224265E-03
(PID.TID 0000.0001) %MON forcing_fv_sd                =   1.0824282339485E-01
(PID.TID 0000.0001) %MON forcing_fv_del2              =   1.4578744413362E-04
(PID.TID 0000.0001) %MON trAdv_CFL_u_max              =   2.2215451556247E-02
(PID.TID 0000.0001) %MON trAdv_CFL_v_max              =   2.2673323445285E-02
(PID.TID 0000.0001) %MON trAdv_CFL_w_max              =   8.8910018936095E-02
(PID.TID 0000.0001) %MON advcfl_uvel_max              =   2.2512614167059E-02
(PID.TID 0000.0001) %MON advcfl_vvel_max              =   2.2754270211784E-02
(PID.TID 0000.0001) %MON advcfl_wvel_max              =   8.4674300514387E-02
(PID.TID 0000.0001) %MON advcfl_W_hf_max              =   8.8910018936095E-02
(PID.TID 0000.0001) %MON pe_b_mean                    =   1.8849404481361E-03
(PID.TID 0000.0001) %MON ke_max                       =   2.6179310040386E+00
(PID.TID 0000.0001) %MON ke_mean                      =   9.2265900371797E-04
(PID.TID 0000.0001) %MON ke_vol                       =   1.3350064351420E+18
(PID.TID 0000.0001) %MON vort_r_min                   =  -8.3040918007397E-05
(PID.TID 0000.0001) %MON vort_r_max                   =   8.1097905029532E-05
(PID.TID 0000.0001) %MON vort_a_mean                  =  -1.9725068440714E-05
(PID.TID 0000.0001) %MON vort_a_sd                    =   7.4539170335709E-05
(PID.TID 0000.0001) %MON vort_p_mean                  =  -2.1669072569107E-05
(PID.TID 0000.0001) %MON vort_p_sd                    =   9.3608126989634E-05
(PID.TID 0000.0001) %MON surfExpan_theta_mean         =   1.1110672157707E-05
(PID.TID 0000.0001) %MON surfExpan_salt_mean          =   9.0888039261284E-06
(PID.TID 0000.0001) // =======================================================
(PID.TID 0000.0001) // End MONITOR dynamic field statistics
(PID.TID 0000.0001) // =======================================================
(PID.TID 0000.0001) // =======================================================
(PID.TID 0000.0001) // Begin MONITOR SEAICE statistics
(PID.TID 0000.0001) // =======================================================
(PID.TID 0000.0001) %MON seaice_tsnumber              =                174687
(PID.TID 0000.0001) %MON seaice_time_sec              =   7.8609150000000E+07
(PID.TID 0000.0001) %MON seaice_uice_max              =   1.6735874657386E+00
(PID.TID 0000.0001) %MON seaice_uice_min              =  -1.6215988879679E+00
(PID.TID 0000.0001) %MON seaice_uice_mean             =   1.4391573349769E-03
(PID.TID 0000.0001) %MON seaice_uice_sd               =   1.6069034891320E-01
(PID.TID 0000.0001) %MON seaice_uice_del2             =   3.3698771164551E-04
(PID.TID 0000.0001) %MON seaice_vice_max              =   1.4783451195216E+00
(PID.TID 0000.0001) %MON seaice_vice_min              =  -1.9845615891212E+00
(PID.TID 0000.0001) %MON seaice_vice_mean             =  -2.4902809869952E-02
(PID.TID 0000.0001) %MON seaice_vice_sd               =   1.6737365419696E-01
(PID.TID 0000.0001) %MON seaice_vice_del2             =   3.2425254093343E-04
(PID.TID 0000.0001) %MON seaice_area_max              =   1.0060226297710E+00
(PID.TID 0000.0001) %MON seaice_area_min              =   0.0000000000000E+00
(PID.TID 0000.0001) %MON seaice_area_mean             =   5.7260156251547E-02
(PID.TID 0000.0001) %MON seaice_area_sd               =   2.2167708552937E-01
(PID.TID 0000.0001) %MON seaice_area_del2             =   3.2265620143492E-04
(PID.TID 0000.0001) %MON seaice_heff_max              =   9.9493017130534E+00
(PID.TID 0000.0001) %MON seaice_heff_min              =   0.0000000000000E+00
(PID.TID 0000.0001) %MON seaice_heff_mean             =   1.5008051841646E-01
(PID.TID 0000.0001) %MON seaice_heff_sd               =   7.2166884729441E-01
(PID.TID 0000.0001) %MON seaice_heff_del2             =   1.4967868775189E-03
(PID.TID 0000.0001) %MON seaice_hsnow_max             =   3.2862823458158E+00
(PID.TID 0000.0001) %MON seaice_hsnow_min             =   0.0000000000000E+00
(PID.TID 0000.0001) %MON seaice_hsnow_mean            =   1.2742138390436E-02
(PID.TID 0000.0001) %MON seaice_hsnow_sd              =   6.9269178036153E-02
(PID.TID 0000.0001) %MON seaice_hsnow_del2            =   4.1907613506325E-04
(PID.TID 0000.0001) // =======================================================
(PID.TID 0000.0001) // End MONITOR SEAICE statistics
(PID.TID 0000.0001) // =======================================================
(PID.TID 0000.0001) // =======================================================
(PID.TID 0000.0001) // Begin MONITOR dynamic field statistics
(PID.TID 0000.0001) // =======================================================
(PID.TID 0000.0001) %MON time_tsnumber                =                174688
(PID.TID 0000.0001) %MON time_secondsf                =   7.8609600000000E+07
(PID.TID 0000.0001) %MON dynstat_eta_max              =   3.0967406464844E+00
(PID.TID 0000.0001) %MON dynstat_eta_min              =  -1.1680624560029E+01
(PID.TID 0000.0001) %MON dynstat_eta_mean             =   6.5353023380674E-02
(PID.TID 0000.0001) %MON dynstat_eta_sd               =   8.3929719945021E-01
(PID.TID 0000.0001) %MON dynstat_eta_del2             =   2.0257596341091E-03
(PID.TID 0000.0001) %MON dynstat_uvel_max             =   1.7106470654510E+00
(PID.TID 0000.0001) %MON dynstat_uvel_min             =  -2.1710959889290E+00
(PID.TID 0000.0001) %MON dynstat_uvel_mean            =   1.8304521176251E-03
(PID.TID 0000.0001) %MON dynstat_uvel_sd              =   3.1231959193771E-02
(PID.TID 0000.0001) %MON dynstat_uvel_del2            =   2.8298735432871E-05
(PID.TID 0000.0001) %MON dynstat_vvel_max             =   1.5486991425529E+00
(PID.TID 0000.0001) %MON dynstat_vvel_min             =  -2.2680034501620E+00
(PID.TID 0000.0001) %MON dynstat_vvel_mean            =   9.1759343361607E-04
(PID.TID 0000.0001) %MON dynstat_vvel_sd              =   3.0575199499832E-02
(PID.TID 0000.0001) %MON dynstat_vvel_del2            =   2.7282946745106E-05
(PID.TID 0000.0001) %MON dynstat_wvel_max             =   9.0330505240024E-03
(PID.TID 0000.0001) %MON dynstat_wvel_min             =  -1.1025820587340E-02
(PID.TID 0000.0001) %MON dynstat_wvel_mean            =   2.4772601011070E-07
(PID.TID 0000.0001) %MON dynstat_wvel_sd              =   8.6409228627998E-05
(PID.TID 0000.0001) %MON dynstat_wvel_del2            =   1.8535389495337E-07
(PID.TID 0000.0001) %MON dynstat_theta_max            =   3.2451092965178E+01
(PID.TID 0000.0001) %MON dynstat_theta_min            =  -2.0302040961055E+00
(PID.TID 0000.0001) %MON dynstat_theta_mean           =   3.5921785313752E+00
(PID.TID 0000.0001) %MON dynstat_theta_sd             =   4.4421501138105E+00
(PID.TID 0000.0001) %MON dynstat_theta_del2           =   1.1891240652902E-04
(PID.TID 0000.0001) %MON dynstat_salt_max             =   4.0655995555892E+01
(PID.TID 0000.0001) %MON dynstat_salt_min             =   1.6215405889111E+01
(PID.TID 0000.0001) %MON dynstat_salt_mean            =   3.4724848165953E+01
(PID.TID 0000.0001) %MON dynstat_salt_sd              =   3.7958195255545E-01
(PID.TID 0000.0001) %MON dynstat_salt_del2            =   7.4012328968004E-05
(PID.TID 0000.0001) %MON dynstat_sst_max              =   3.2451092965178E+01
(PID.TID 0000.0001) %MON dynstat_sst_min              =  -2.0302040961055E+00
(PID.TID 0000.0001) %MON dynstat_sst_mean             =   1.8174207541867E+01
(PID.TID 0000.0001) %MON dynstat_sst_sd               =   1.0151157657903E+01
(PID.TID 0000.0001) %MON dynstat_sst_del2             =   1.1400546415245E-03
(PID.TID 0000.0001) %MON dynstat_sss_max              =   3.9474450812920E+01
(PID.TID 0000.0001) %MON dynstat_sss_min              =   1.6215405889111E+01
(PID.TID 0000.0001) %MON dynstat_sss_mean             =   3.4650775258727E+01
(PID.TID 0000.0001) %MON dynstat_sss_sd               =   1.2857711488421E+00
(PID.TID 0000.0001) %MON dynstat_sss_del2             =   1.4474707293387E-03
(PID.TID 0000.0001) %MON forcing_qnet_max             =   4.1542624247695E+03
(PID.TID 0000.0001) %MON forcing_qnet_min             =  -8.6514990234375E+03
(PID.TID 0000.0001) %MON forcing_qnet_mean            =   2.4158445767276E+00
(PID.TID 0000.0001) %MON forcing_qnet_sd              =   2.3525363252028E+02
(PID.TID 0000.0001) %MON forcing_qnet_del2            =   9.1400979381665E-01
(PID.TID 0000.0001) %MON forcing_qsw_max              =   0.0000000000000E+00
(PID.TID 0000.0001) %MON forcing_qsw_min              =  -1.1031522996499E+02
(PID.TID 0000.0001) %MON forcing_qsw_mean             =  -1.6182378502226E+01
(PID.TID 0000.0001) %MON forcing_qsw_sd               =   2.8298671607094E+01
(PID.TID 0000.0001) %MON forcing_qsw_del2             =   2.1833112569823E-02
(PID.TID 0000.0001) %MON forcing_empmr_max            =   2.6215566322207E-02
(PID.TID 0000.0001) %MON forcing_empmr_min            =  -4.4660024344921E-02
(PID.TID 0000.0001) %MON forcing_empmr_mean           =   1.0444395900322E-05
(PID.TID 0000.0001) %MON forcing_empmr_sd             =   4.1715896689795E-04
(PID.TID 0000.0001) %MON forcing_empmr_del2           =   4.7853965826265E-06
(PID.TID 0000.0001) %MON forcing_fu_max               =   7.6773080229760E-01
(PID.TID 0000.0001) %MON forcing_fu_min               =  -8.4029141550110E-01
(PID.TID 0000.0001) %MON forcing_fu_mean              =   8.8166664891960E-03
(PID.TID 0000.0001) %MON forcing_fu_sd                =   1.1725835020117E-01
(PID.TID 0000.0001) %MON forcing_fu_del2              =   1.4850942012823E-04
(PID.TID 0000.0001) %MON forcing_fv_max               =   8.3525874166272E-01
(PID.TID 0000.0001) %MON forcing_fv_min               =  -1.9404216792742E+00
(PID.TID 0000.0001) %MON forcing_fv_mean              =  -1.9029078650745E-03
(PID.TID 0000.0001) %MON forcing_fv_sd                =   1.0817613405110E-01
(PID.TID 0000.0001) %MON forcing_fv_del2              =   1.4617512933570E-04
(PID.TID 0000.0001) %MON trAdv_CFL_u_max              =   2.2394114639828E-02
(PID.TID 0000.0001) %MON trAdv_CFL_v_max              =   2.2398091589539E-02
(PID.TID 0000.0001) %MON trAdv_CFL_w_max              =   9.0913381951522E-02
(PID.TID 0000.0001) %MON advcfl_uvel_max              =   2.2693667118261E-02
(PID.TID 0000.0001) %MON advcfl_vvel_max              =   2.2478055741875E-02
(PID.TID 0000.0001) %MON advcfl_wvel_max              =   8.6573930864833E-02
(PID.TID 0000.0001) %MON advcfl_W_hf_max              =   9.0913381951522E-02
(PID.TID 0000.0001) %MON pe_b_mean                    =   1.8860371743248E-03
(PID.TID 0000.0001) %MON ke_max                       =   2.6125864176799E+00
(PID.TID 0000.0001) %MON ke_mean                      =   9.2313754381355E-04
(PID.TID 0000.0001) %MON ke_vol                       =   1.3350064351420E+18
(PID.TID 0000.0001) %MON vort_r_min                   =  -8.3431563776950E-05
(PID.TID 0000.0001) %MON vort_r_max                   =   8.1650301562271E-05
(PID.TID 0000.0001) %MON vort_a_mean                  =  -1.9725068735100E-05
(PID.TID 0000.0001) %MON vort_a_sd                    =   7.4539181085262E-05
(PID.TID 0000.0001) %MON vort_p_mean                  =  -2.1669072892506E-05
(PID.TID 0000.0001) %MON vort_p_sd                    =   9.3608100549393E-05
(PID.TID 0000.0001) %MON surfExpan_theta_mean         =   1.0470476232819E-05
(PID.TID 0000.0001) %MON surfExpan_salt_mean          =   9.2202732148409E-06
(PID.TID 0000.0001) // =======================================================
(PID.TID 0000.0001) // End MONITOR dynamic field statistics
(PID.TID 0000.0001) // =======================================================
(PID.TID 0000.0001) // =======================================================
(PID.TID 0000.0001) // Begin MONITOR SEAICE statistics
(PID.TID 0000.0001) // =======================================================
(PID.TID 0000.0001) %MON seaice_tsnumber              =                174688
(PID.TID 0000.0001) %MON seaice_time_sec              =   7.8609600000000E+07
(PID.TID 0000.0001) %MON seaice_uice_max              =   1.6597796526166E+00
(PID.TID 0000.0001) %MON seaice_uice_min              =  -1.6167421837945E+00
(PID.TID 0000.0001) %MON seaice_uice_mean             =   1.4372673082866E-03
(PID.TID 0000.0001) %MON seaice_uice_sd               =   1.6049373766348E-01
(PID.TID 0000.0001) %MON seaice_uice_del2             =   3.3696085922452E-04
(PID.TID 0000.0001) %MON seaice_vice_max              =   1.4971272809342E+00
(PID.TID 0000.0001) %MON seaice_vice_min              =  -1.9623092416352E+00
(PID.TID 0000.0001) %MON seaice_vice_mean             =  -2.4858249703930E-02
(PID.TID 0000.0001) %MON seaice_vice_sd               =   1.6714845809404E-01
(PID.TID 0000.0001) %MON seaice_vice_del2             =   3.2416951894181E-04
(PID.TID 0000.0001) %MON seaice_area_max              =   1.0059511973611E+00
(PID.TID 0000.0001) %MON seaice_area_min              =   0.0000000000000E+00
(PID.TID 0000.0001) %MON seaice_area_mean             =   5.7261132883674E-02
(PID.TID 0000.0001) %MON seaice_area_sd               =   2.2167045982952E-01
(PID.TID 0000.0001) %MON seaice_area_del2             =   3.2212233140047E-04
(PID.TID 0000.0001) %MON seaice_heff_max              =   9.9492950722939E+00
(PID.TID 0000.0001) %MON seaice_heff_min              =   0.0000000000000E+00
(PID.TID 0000.0001) %MON seaice_heff_mean             =   1.5007734444060E-01
(PID.TID 0000.0001) %MON seaice_heff_sd               =   7.2165904703365E-01
(PID.TID 0000.0001) %MON seaice_heff_del2             =   1.4950037662629E-03
(PID.TID 0000.0001) %MON seaice_hsnow_max             =   3.2862800308387E+00
(PID.TID 0000.0001) %MON seaice_hsnow_min             =   0.0000000000000E+00
(PID.TID 0000.0001) %MON seaice_hsnow_mean            =   1.2741451729776E-02
(PID.TID 0000.0001) %MON seaice_hsnow_sd              =   6.9258636997581E-02
(PID.TID 0000.0001) %MON seaice_hsnow_del2            =   4.1847710839953E-04
(PID.TID 0000.0001) // =======================================================
(PID.TID 0000.0001) // End MONITOR SEAICE statistics
(PID.TID 0000.0001) // =======================================================
(PID.TID 0000.0001) // =======================================================
(PID.TID 0000.0001) // Begin MONITOR dynamic field statistics
(PID.TID 0000.0001) // =======================================================
(PID.TID 0000.0001) %MON time_tsnumber                =                174689
(PID.TID 0000.0001) %MON time_secondsf                =   7.8610050000000E+07
(PID.TID 0000.0001) %MON dynstat_eta_max              =   2.9235062001384E+00
(PID.TID 0000.0001) %MON dynstat_eta_min              =  -1.1670361248409E+01
(PID.TID 0000.0001) %MON dynstat_eta_mean             =   6.5480573985281E-02
(PID.TID 0000.0001) %MON dynstat_eta_sd               =   8.3934060300585E-01
(PID.TID 0000.0001) %MON dynstat_eta_del2             =   2.0252383675937E-03
(PID.TID 0000.0001) %MON dynstat_uvel_max             =   1.6962309451628E+00
(PID.TID 0000.0001) %MON dynstat_uvel_min             =  -2.1878210201106E+00
(PID.TID 0000.0001) %MON dynstat_uvel_mean            =   1.8070055208973E-03
(PID.TID 0000.0001) %MON dynstat_uvel_sd              =   3.1222010984461E-02
(PID.TID 0000.0001) %MON dynstat_uvel_del2            =   2.8416615540954E-05
(PID.TID 0000.0001) %MON dynstat_vvel_max             =   1.5655156948257E+00
(PID.TID 0000.0001) %MON dynstat_vvel_min             =  -2.2694726625925E+00
(PID.TID 0000.0001) %MON dynstat_vvel_mean            =   8.9438313530054E-04
(PID.TID 0000.0001) %MON dynstat_vvel_sd              =   3.0598775718638E-02
(PID.TID 0000.0001) %MON dynstat_vvel_del2            =   2.7395682848935E-05
(PID.TID 0000.0001) %MON dynstat_wvel_max             =   9.0823231294204E-03
(PID.TID 0000.0001) %MON dynstat_wvel_min             =  -1.1069221713501E-02
(PID.TID 0000.0001) %MON dynstat_wvel_mean            =   2.5177668585700E-07
(PID.TID 0000.0001) %MON dynstat_wvel_sd              =   8.6664112650169E-05
(PID.TID 0000.0001) %MON dynstat_wvel_del2            =   1.8642854540172E-07
(PID.TID 0000.0001) %MON dynstat_theta_max            =   3.2454098403292E+01
(PID.TID 0000.0001) %MON dynstat_theta_min            =  -2.0300584888761E+00
(PID.TID 0000.0001) %MON dynstat_theta_mean           =   3.5921772533418E+00
(PID.TID 0000.0001) %MON dynstat_theta_sd             =   4.4421469163003E+00
(PID.TID 0000.0001) %MON dynstat_theta_del2           =   1.1895250854993E-04
(PID.TID 0000.0001) %MON dynstat_salt_max             =   4.0655995495849E+01
(PID.TID 0000.0001) %MON dynstat_salt_min             =   1.6213196637950E+01
(PID.TID 0000.0001) %MON dynstat_salt_mean            =   3.4724847932958E+01
(PID.TID 0000.0001) %MON dynstat_salt_sd              =   3.7958240947038E-01
(PID.TID 0000.0001) %MON dynstat_salt_del2            =   7.3894886990604E-05
(PID.TID 0000.0001) %MON dynstat_sst_max              =   3.2454098403292E+01
(PID.TID 0000.0001) %MON dynstat_sst_min              =  -2.0300584888761E+00
(PID.TID 0000.0001) %MON dynstat_sst_mean             =   1.8174191465897E+01
(PID.TID 0000.0001) %MON dynstat_sst_sd               =   1.0151398541870E+01
(PID.TID 0000.0001) %MON dynstat_sst_del2             =   1.1396321934694E-03
(PID.TID 0000.0001) %MON dynstat_sss_max              =   3.9474348062828E+01
(PID.TID 0000.0001) %MON dynstat_sss_min              =   1.6213196637950E+01
(PID.TID 0000.0001) %MON dynstat_sss_mean             =   3.4650688757906E+01
(PID.TID 0000.0001) %MON dynstat_sss_sd               =   1.2859180811791E+00
(PID.TID 0000.0001) %MON dynstat_sss_del2             =   1.4470207761209E-03
(PID.TID 0000.0001) %MON forcing_qnet_max             =   3.0771658608714E+03
(PID.TID 0000.0001) %MON forcing_qnet_min             =  -5.0401843791180E+03
(PID.TID 0000.0001) %MON forcing_qnet_mean            =   2.1813226820390E+00
(PID.TID 0000.0001) %MON forcing_qnet_sd              =   2.3159720191658E+02
(PID.TID 0000.0001) %MON forcing_qnet_del2            =   7.9105291823183E-01
(PID.TID 0000.0001) %MON forcing_qsw_max              =   0.0000000000000E+00
(PID.TID 0000.0001) %MON forcing_qsw_min              =  -1.1025202203718E+02
(PID.TID 0000.0001) %MON forcing_qsw_mean             =  -1.6234983697004E+01
(PID.TID 0000.0001) %MON forcing_qsw_sd               =   2.8450752992033E+01
(PID.TID 0000.0001) %MON forcing_qsw_del2             =   2.1878638929577E-02
(PID.TID 0000.0001) %MON forcing_empmr_max            =   2.7111480012536E-02
(PID.TID 0000.0001) %MON forcing_empmr_min            =  -4.5250080525875E-02
(PID.TID 0000.0001) %MON forcing_empmr_mean           =   1.0186572077233E-05
(PID.TID 0000.0001) %MON forcing_empmr_sd             =   4.1829824812215E-04
(PID.TID 0000.0001) %MON forcing_empmr_del2           =   4.8037569896352E-06
(PID.TID 0000.0001) %MON forcing_fu_max               =   7.6859733462334E-01
(PID.TID 0000.0001) %MON forcing_fu_min               =  -8.4954595020103E-01
(PID.TID 0000.0001) %MON forcing_fu_mean              =   8.8475772628926E-03
(PID.TID 0000.0001) %MON forcing_fu_sd                =   1.1735326494356E-01
(PID.TID 0000.0001) %MON forcing_fu_del2              =   1.4853847436610E-04
(PID.TID 0000.0001) %MON forcing_fv_max               =   8.3516185362043E-01
(PID.TID 0000.0001) %MON forcing_fv_min               =  -1.9064130888451E+00
(PID.TID 0000.0001) %MON forcing_fv_mean              =  -1.9206877576395E-03
(PID.TID 0000.0001) %MON forcing_fv_sd                =   1.0810356795834E-01
(PID.TID 0000.0001) %MON forcing_fv_del2              =   1.4650866414499E-04
(PID.TID 0000.0001) %MON trAdv_CFL_u_max              =   2.2566627632134E-02
(PID.TID 0000.0001) %MON trAdv_CFL_v_max              =   2.2100312336295E-02
(PID.TID 0000.0001) %MON trAdv_CFL_w_max              =   9.2874223969622E-02
(PID.TID 0000.0001) %MON advcfl_uvel_max              =   2.2868487712151E-02
(PID.TID 0000.0001) %MON advcfl_vvel_max              =   2.2179213377272E-02
(PID.TID 0000.0001) %MON advcfl_wvel_max              =   8.9035689149465E-02
(PID.TID 0000.0001) %MON advcfl_W_hf_max              =   9.2874223969622E-02
(PID.TID 0000.0001) %MON pe_b_mean                    =   1.8872758696781E-03
(PID.TID 0000.0001) %MON ke_max                       =   2.6034211111157E+00
(PID.TID 0000.0001) %MON ke_mean                      =   9.2347210919599E-04
(PID.TID 0000.0001) %MON ke_vol                       =   1.3350064351420E+18
(PID.TID 0000.0001) %MON vort_r_min                   =  -8.3789182960735E-05
(PID.TID 0000.0001) %MON vort_r_max                   =   8.2178980914439E-05
(PID.TID 0000.0001) %MON vort_a_mean                  =  -1.9725069003927E-05
(PID.TID 0000.0001) %MON vort_a_sd                    =   7.4539190484889E-05
(PID.TID 0000.0001) %MON vort_p_mean                  =  -2.1669073187827E-05
(PID.TID 0000.0001) %MON vort_p_sd                    =   9.3608071898503E-05
(PID.TID 0000.0001) %MON surfExpan_theta_mean         =   9.8763498688866E-06
(PID.TID 0000.0001) %MON surfExpan_salt_mean          =   9.3511499546879E-06
(PID.TID 0000.0001) // =======================================================
(PID.TID 0000.0001) // End MONITOR dynamic field statistics
(PID.TID 0000.0001) // =======================================================
(PID.TID 0000.0001) // =======================================================
(PID.TID 0000.0001) // Begin MONITOR SEAICE statistics
(PID.TID 0000.0001) // =======================================================
(PID.TID 0000.0001) %MON seaice_tsnumber              =                174689
(PID.TID 0000.0001) %MON seaice_time_sec              =   7.8610050000000E+07
(PID.TID 0000.0001) %MON seaice_uice_max              =   1.6457698339995E+00
(PID.TID 0000.0001) %MON seaice_uice_min              =  -1.6083581313016E+00
(PID.TID 0000.0001) %MON seaice_uice_mean             =   1.4297427498106E-03
(PID.TID 0000.0001) %MON seaice_uice_sd               =   1.6030322744019E-01
(PID.TID 0000.0001) %MON seaice_uice_del2             =   3.3685961067683E-04
(PID.TID 0000.0001) %MON seaice_vice_max              =   1.5152985431064E+00
(PID.TID 0000.0001) %MON seaice_vice_min              =  -1.9372970575198E+00
(PID.TID 0000.0001) %MON seaice_vice_mean             =  -2.4817177929876E-02
(PID.TID 0000.0001) %MON seaice_vice_sd               =   1.6692030143650E-01
(PID.TID 0000.0001) %MON seaice_vice_del2             =   3.2388411460128E-04
(PID.TID 0000.0001) %MON seaice_area_max              =   1.0058619289452E+00
(PID.TID 0000.0001) %MON seaice_area_min              =   0.0000000000000E+00
(PID.TID 0000.0001) %MON seaice_area_mean             =   5.7262154379607E-02
(PID.TID 0000.0001) %MON seaice_area_sd               =   2.2166398013457E-01
(PID.TID 0000.0001) %MON seaice_area_del2             =   3.2158367562155E-04
(PID.TID 0000.0001) %MON seaice_heff_max              =   9.9492779366107E+00
(PID.TID 0000.0001) %MON seaice_heff_min              =   0.0000000000000E+00
(PID.TID 0000.0001) %MON seaice_heff_mean             =   1.5007414875414E-01
(PID.TID 0000.0001) %MON seaice_heff_sd               =   7.2164909331904E-01
(PID.TID 0000.0001) %MON seaice_heff_del2             =   1.4932058742550E-03
(PID.TID 0000.0001) %MON seaice_hsnow_max             =   3.2862747257531E+00
(PID.TID 0000.0001) %MON seaice_hsnow_min             =   0.0000000000000E+00
(PID.TID 0000.0001) %MON seaice_hsnow_mean            =   1.2740760479212E-02
(PID.TID 0000.0001) %MON seaice_hsnow_sd              =   6.9248008754961E-02
(PID.TID 0000.0001) %MON seaice_hsnow_del2            =   4.1787211163031E-04
(PID.TID 0000.0001) // =======================================================
(PID.TID 0000.0001) // End MONITOR SEAICE statistics
(PID.TID 0000.0001) // =======================================================
(PID.TID 0000.0001) // =======================================================
(PID.TID 0000.0001) // Begin MONITOR dynamic field statistics
(PID.TID 0000.0001) // =======================================================
(PID.TID 0000.0001) %MON time_tsnumber                =                174690
(PID.TID 0000.0001) %MON time_secondsf                =   7.8610500000000E+07
(PID.TID 0000.0001) %MON dynstat_eta_max              =   2.9706228037194E+00
(PID.TID 0000.0001) %MON dynstat_eta_min              =  -1.1645575461873E+01
(PID.TID 0000.0001) %MON dynstat_eta_mean             =   6.5609427959373E-02
(PID.TID 0000.0001) %MON dynstat_eta_sd               =   8.3941953931906E-01
(PID.TID 0000.0001) %MON dynstat_eta_del2             =   2.0248160088377E-03
(PID.TID 0000.0001) %MON dynstat_uvel_max             =   1.6812800877364E+00
(PID.TID 0000.0001) %MON dynstat_uvel_min             =  -2.2040076462484E+00
(PID.TID 0000.0001) %MON dynstat_uvel_mean            =   1.7829998436595E-03
(PID.TID 0000.0001) %MON dynstat_uvel_sd              =   3.1206381868413E-02
(PID.TID 0000.0001) %MON dynstat_uvel_del2            =   2.8532220215463E-05
(PID.TID 0000.0001) %MON dynstat_vvel_max             =   1.5814983686410E+00
(PID.TID 0000.0001) %MON dynstat_vvel_min             =  -2.2694184737901E+00
(PID.TID 0000.0001) %MON dynstat_vvel_mean            =   8.6898638218630E-04
(PID.TID 0000.0001) %MON dynstat_vvel_sd              =   3.0622747041228E-02
(PID.TID 0000.0001) %MON dynstat_vvel_del2            =   2.7506578637152E-05
(PID.TID 0000.0001) %MON dynstat_wvel_max             =   9.1263721950331E-03
(PID.TID 0000.0001) %MON dynstat_wvel_min             =  -1.1105289655033E-02
(PID.TID 0000.0001) %MON dynstat_wvel_mean            =   2.5527502605699E-07
(PID.TID 0000.0001) %MON dynstat_wvel_sd              =   8.6893235609998E-05
(PID.TID 0000.0001) %MON dynstat_wvel_del2            =   1.8746619317917E-07
(PID.TID 0000.0001) %MON dynstat_theta_max            =   3.2457007212013E+01
(PID.TID 0000.0001) %MON dynstat_theta_min            =  -2.0296999115519E+00
(PID.TID 0000.0001) %MON dynstat_theta_mean           =   3.5921760421891E+00
(PID.TID 0000.0001) %MON dynstat_theta_sd             =   4.4421439571015E+00
(PID.TID 0000.0001) %MON dynstat_theta_del2           =   1.1899539107407E-04
(PID.TID 0000.0001) %MON dynstat_salt_max             =   4.0655995432047E+01
(PID.TID 0000.0001) %MON dynstat_salt_min             =   1.6210794435861E+01
(PID.TID 0000.0001) %MON dynstat_salt_mean            =   3.4724847698610E+01
(PID.TID 0000.0001) %MON dynstat_salt_sd              =   3.7958288958935E-01
(PID.TID 0000.0001) %MON dynstat_salt_del2            =   7.3779166396333E-05
(PID.TID 0000.0001) %MON dynstat_sst_max              =   3.2457007212013E+01
(PID.TID 0000.0001) %MON dynstat_sst_min              =  -2.0296999115519E+00
(PID.TID 0000.0001) %MON dynstat_sst_mean             =   1.8174182548083E+01
(PID.TID 0000.0001) %MON dynstat_sst_sd               =   1.0151640082035E+01
(PID.TID 0000.0001) %MON dynstat_sst_del2             =   1.1391899526105E-03
(PID.TID 0000.0001) %MON dynstat_sss_max              =   3.9474220826481E+01
(PID.TID 0000.0001) %MON dynstat_sss_min              =   1.6210794435861E+01
(PID.TID 0000.0001) %MON dynstat_sss_mean             =   3.4650601815419E+01
(PID.TID 0000.0001) %MON dynstat_sss_sd               =   1.2860659574602E+00
(PID.TID 0000.0001) %MON dynstat_sss_del2             =   1.4466122915194E-03
(PID.TID 0000.0001) %MON forcing_qnet_max             =   2.8827876151924E+03
(PID.TID 0000.0001) %MON forcing_qnet_min             =  -1.7188328857422E+03
(PID.TID 0000.0001) %MON forcing_qnet_mean            =   1.8836319226296E+00
(PID.TID 0000.0001) %MON forcing_qnet_sd              =   2.3090021482426E+02
(PID.TID 0000.0001) %MON forcing_qnet_del2            =   7.2639299058179E-01
(PID.TID 0000.0001) %MON forcing_qsw_max              =   0.0000000000000E+00
(PID.TID 0000.0001) %MON forcing_qsw_min              =  -1.1011690033273E+02
(PID.TID 0000.0001) %MON forcing_qsw_mean             =  -1.6280211792527E+01
(PID.TID 0000.0001) %MON forcing_qsw_sd               =   2.8588231950404E+01
(PID.TID 0000.0001) %MON forcing_qsw_del2             =   2.1915314876825E-02
(PID.TID 0000.0001) %MON forcing_empmr_max            =   2.8264639899135E-02
(PID.TID 0000.0001) %MON forcing_empmr_min            =  -4.4856399297714E-02
(PID.TID 0000.0001) %MON forcing_empmr_mean           =   1.0153186602645E-05
(PID.TID 0000.0001) %MON forcing_empmr_sd             =   4.1689450058935E-04
(PID.TID 0000.0001) %MON forcing_empmr_del2           =   4.8076697732078E-06
(PID.TID 0000.0001) %MON forcing_fu_max               =   7.5970286130906E-01
(PID.TID 0000.0001) %MON forcing_fu_min               =  -8.5629416804871E-01
(PID.TID 0000.0001) %MON forcing_fu_mean              =   8.8910931418505E-03
(PID.TID 0000.0001) %MON forcing_fu_sd                =   1.1748592048635E-01
(PID.TID 0000.0001) %MON forcing_fu_del2              =   1.4858850690317E-04
(PID.TID 0000.0001) %MON forcing_fv_max               =   8.4015195263292E-01
(PID.TID 0000.0001) %MON forcing_fv_min               =  -1.8589271291763E+00
(PID.TID 0000.0001) %MON forcing_fv_mean              =  -1.9204811755142E-03
(PID.TID 0000.0001) %MON forcing_fv_sd                =   1.0807408906271E-01
(PID.TID 0000.0001) %MON forcing_fv_del2              =   1.4686102712782E-04
(PID.TID 0000.0001) %MON trAdv_CFL_u_max              =   2.2733587160046E-02
(PID.TID 0000.0001) %MON trAdv_CFL_v_max              =   2.1778465463904E-02
(PID.TID 0000.0001) %MON trAdv_CFL_w_max              =   9.4788870823018E-02
(PID.TID 0000.0001) %MON advcfl_uvel_max              =   2.3037680556324E-02
(PID.TID 0000.0001) %MON advcfl_vvel_max              =   2.1856217468937E-02
(PID.TID 0000.0001) %MON advcfl_wvel_max              =   9.1659746935402E-02
(PID.TID 0000.0001) %MON advcfl_W_hf_max              =   9.4788870823018E-02
(PID.TID 0000.0001) %MON pe_b_mean                    =   1.8886676120808E-03
(PID.TID 0000.0001) %MON ke_max                       =   2.5907658043928E+00
(PID.TID 0000.0001) %MON ke_mean                      =   9.2364627279594E-04
(PID.TID 0000.0001) %MON ke_vol                       =   1.3350064351420E+18
(PID.TID 0000.0001) %MON vort_r_min                   =  -8.4116809292406E-05
(PID.TID 0000.0001) %MON vort_r_max                   =   8.2687014653857E-05
(PID.TID 0000.0001) %MON vort_a_mean                  =  -1.9725069203575E-05
(PID.TID 0000.0001) %MON vort_a_sd                    =   7.4539198510946E-05
(PID.TID 0000.0001) %MON vort_p_mean                  =  -2.1669073407151E-05
(PID.TID 0000.0001) %MON vort_p_sd                    =   9.3608041567891E-05
(PID.TID 0000.0001) %MON surfExpan_theta_mean         =   9.3410228772378E-06
(PID.TID 0000.0001) %MON surfExpan_salt_mean          =   9.4833031146057E-06
(PID.TID 0000.0001) // =======================================================
(PID.TID 0000.0001) // End MONITOR dynamic field statistics
(PID.TID 0000.0001) // =======================================================
(PID.TID 0000.0001) // =======================================================
(PID.TID 0000.0001) // Begin MONITOR SEAICE statistics
(PID.TID 0000.0001) // =======================================================
(PID.TID 0000.0001) %MON seaice_tsnumber              =                174690
(PID.TID 0000.0001) %MON seaice_time_sec              =   7.8610500000000E+07
(PID.TID 0000.0001) %MON seaice_uice_max              =   1.6310714435996E+00
(PID.TID 0000.0001) %MON seaice_uice_min              =  -1.5964720641430E+00
(PID.TID 0000.0001) %MON seaice_uice_mean             =   1.4197423567470E-03
(PID.TID 0000.0001) %MON seaice_uice_sd               =   1.6011570498848E-01
(PID.TID 0000.0001) %MON seaice_uice_del2             =   3.3669889137918E-04
(PID.TID 0000.0001) %MON seaice_vice_max              =   1.5327688230653E+00
(PID.TID 0000.0001) %MON seaice_vice_min              =  -1.9097560665171E+00
(PID.TID 0000.0001) %MON seaice_vice_mean             =  -2.4785370985569E-02
(PID.TID 0000.0001) %MON seaice_vice_sd               =   1.6669481438573E-01
(PID.TID 0000.0001) %MON seaice_vice_del2             =   3.2355091921101E-04
(PID.TID 0000.0001) %MON seaice_area_max              =   1.0064088470218E+00
(PID.TID 0000.0001) %MON seaice_area_min              =   0.0000000000000E+00
(PID.TID 0000.0001) %MON seaice_area_mean             =   5.7263255893257E-02
(PID.TID 0000.0001) %MON seaice_area_sd               =   2.2165775405947E-01
(PID.TID 0000.0001) %MON seaice_area_del2             =   3.2103585146455E-04
(PID.TID 0000.0001) %MON seaice_heff_max              =   9.9492731926347E+00
(PID.TID 0000.0001) %MON seaice_heff_min              =   0.0000000000000E+00
(PID.TID 0000.0001) %MON seaice_heff_mean             =   1.5007093559553E-01
(PID.TID 0000.0001) %MON seaice_heff_sd               =   7.2163894848885E-01
(PID.TID 0000.0001) %MON seaice_heff_del2             =   1.4913980951125E-03
(PID.TID 0000.0001) %MON seaice_hsnow_max             =   3.2862733707706E+00
(PID.TID 0000.0001) %MON seaice_hsnow_min             =   0.0000000000000E+00
(PID.TID 0000.0001) %MON seaice_hsnow_mean            =   1.2740055899011E-02
(PID.TID 0000.0001) %MON seaice_hsnow_sd              =   6.9237310324931E-02
(PID.TID 0000.0001) %MON seaice_hsnow_del2            =   4.1726328473950E-04
(PID.TID 0000.0001) // =======================================================
(PID.TID 0000.0001) // End MONITOR SEAICE statistics
(PID.TID 0000.0001) // =======================================================
(PID.TID 0000.0001) // =======================================================
(PID.TID 0000.0001) // Begin MONITOR dynamic field statistics
(PID.TID 0000.0001) // =======================================================
(PID.TID 0000.0001) %MON time_tsnumber                =                174691
(PID.TID 0000.0001) %MON time_secondsf                =   7.8610950000000E+07
(PID.TID 0000.0001) %MON dynstat_eta_max              =   3.0087800214490E+00
(PID.TID 0000.0001) %MON dynstat_eta_min              =  -1.1607003635309E+01
(PID.TID 0000.0001) %MON dynstat_eta_mean             =   6.5739294299587E-02
(PID.TID 0000.0001) %MON dynstat_eta_sd               =   8.3953886725783E-01
(PID.TID 0000.0001) %MON dynstat_eta_del2             =   2.0244944868742E-03
(PID.TID 0000.0001) %MON dynstat_uvel_max             =   1.6657705075436E+00
(PID.TID 0000.0001) %MON dynstat_uvel_min             =  -2.2197198653885E+00
(PID.TID 0000.0001) %MON dynstat_uvel_mean            =   1.7586734017063E-03
(PID.TID 0000.0001) %MON dynstat_uvel_sd              =   3.1185136156366E-02
(PID.TID 0000.0001) %MON dynstat_uvel_del2            =   2.8645598235941E-05
(PID.TID 0000.0001) %MON dynstat_vvel_max             =   1.5965383873677E+00
(PID.TID 0000.0001) %MON dynstat_vvel_min             =  -2.2679455607464E+00
(PID.TID 0000.0001) %MON dynstat_vvel_mean            =   8.4189402525196E-04
(PID.TID 0000.0001) %MON dynstat_vvel_sd              =   3.0646860834309E-02
(PID.TID 0000.0001) %MON dynstat_vvel_del2            =   2.7614010340679E-05
(PID.TID 0000.0001) %MON dynstat_wvel_max             =   9.1649496430881E-03
(PID.TID 0000.0001) %MON dynstat_wvel_min             =  -1.1134379340720E-02
(PID.TID 0000.0001) %MON dynstat_wvel_mean            =   2.5815586523719E-07
(PID.TID 0000.0001) %MON dynstat_wvel_sd              =   8.7098177364701E-05
(PID.TID 0000.0001) %MON dynstat_wvel_del2            =   1.8846528366078E-07
(PID.TID 0000.0001) %MON dynstat_theta_max            =   3.2459907183391E+01
(PID.TID 0000.0001) %MON dynstat_theta_min            =  -2.0290768377229E+00
(PID.TID 0000.0001) %MON dynstat_theta_mean           =   3.5921748919461E+00
(PID.TID 0000.0001) %MON dynstat_theta_sd             =   4.4421412539626E+00
(PID.TID 0000.0001) %MON dynstat_theta_del2           =   1.1903662989262E-04
(PID.TID 0000.0001) %MON dynstat_salt_max             =   4.0655995364898E+01
(PID.TID 0000.0001) %MON dynstat_salt_min             =   1.6208224523952E+01
(PID.TID 0000.0001) %MON dynstat_salt_mean            =   3.4724847461523E+01
(PID.TID 0000.0001) %MON dynstat_salt_sd              =   3.7958340492678E-01
(PID.TID 0000.0001) %MON dynstat_salt_del2            =   7.3665863901909E-05
(PID.TID 0000.0001) %MON dynstat_sst_max              =   3.2459907183391E+01
(PID.TID 0000.0001) %MON dynstat_sst_min              =  -2.0290768377229E+00
(PID.TID 0000.0001) %MON dynstat_sst_mean             =   1.8174179560700E+01
(PID.TID 0000.0001) %MON dynstat_sst_sd               =   1.0151885806543E+01
(PID.TID 0000.0001) %MON dynstat_sst_del2             =   1.1386911538779E-03
(PID.TID 0000.0001) %MON dynstat_sss_max              =   3.9474070338858E+01
(PID.TID 0000.0001) %MON dynstat_sss_min              =   1.6208224523952E+01
(PID.TID 0000.0001) %MON dynstat_sss_mean             =   3.4650515718706E+01
(PID.TID 0000.0001) %MON dynstat_sss_sd               =   1.2862124292598E+00
(PID.TID 0000.0001) %MON dynstat_sss_del2             =   1.4462765949686E-03
(PID.TID 0000.0001) %MON forcing_qnet_max             =   2.7404826866457E+03
(PID.TID 0000.0001) %MON forcing_qnet_min             =  -3.9053310546875E+03
(PID.TID 0000.0001) %MON forcing_qnet_mean            =   1.4948205492775E+00
(PID.TID 0000.0001) %MON forcing_qnet_sd              =   2.3177478764891E+02
(PID.TID 0000.0001) %MON forcing_qnet_del2            =   7.4430196166939E-01
(PID.TID 0000.0001) %MON forcing_qsw_max              =   0.0000000000000E+00
(PID.TID 0000.0001) %MON forcing_qsw_min              =  -1.1022483467990E+02
(PID.TID 0000.0001) %MON forcing_qsw_mean             =  -1.6317566334941E+01
(PID.TID 0000.0001) %MON forcing_qsw_sd               =   2.8710943525922E+01
(PID.TID 0000.0001) %MON forcing_qsw_del2             =   2.1943084085499E-02
(PID.TID 0000.0001) %MON forcing_empmr_max            =   2.9713427647948E-02
(PID.TID 0000.0001) %MON forcing_empmr_min            =  -4.6770248562098E-02
(PID.TID 0000.0001) %MON forcing_empmr_mean           =   9.9666348605266E-06
(PID.TID 0000.0001) %MON forcing_empmr_sd             =   4.1899587146983E-04
(PID.TID 0000.0001) %MON forcing_empmr_del2           =   4.8123708662445E-06
(PID.TID 0000.0001) %MON forcing_fu_max               =   7.9831871390343E-01
(PID.TID 0000.0001) %MON forcing_fu_min               =  -8.5555975395787E-01
(PID.TID 0000.0001) %MON forcing_fu_mean              =   8.9346783350169E-03
(PID.TID 0000.0001) %MON forcing_fu_sd                =   1.1761513148831E-01
(PID.TID 0000.0001) %MON forcing_fu_del2              =   1.4861211718256E-04
(PID.TID 0000.0001) %MON forcing_fv_max               =   8.3979448057738E-01
(PID.TID 0000.0001) %MON forcing_fv_min               =  -1.8084144820564E+00
(PID.TID 0000.0001) %MON forcing_fv_mean              =  -1.9319118140141E-03
(PID.TID 0000.0001) %MON forcing_fv_sd                =   1.0799665295794E-01
(PID.TID 0000.0001) %MON forcing_fv_del2              =   1.4706931991420E-04
(PID.TID 0000.0001) %MON trAdv_CFL_u_max              =   2.2895653341580E-02
(PID.TID 0000.0001) %MON trAdv_CFL_v_max              =   2.1391800136798E-02
(PID.TID 0000.0001) %MON trAdv_CFL_w_max              =   9.6655602164971E-02
(PID.TID 0000.0001) %MON advcfl_uvel_max              =   2.3201914598795E-02
(PID.TID 0000.0001) %MON advcfl_vvel_max              =   2.1468171695420E-02
(PID.TID 0000.0001) %MON advcfl_wvel_max              =   9.2986378385561E-02
(PID.TID 0000.0001) %MON advcfl_W_hf_max              =   9.6655602164971E-02
(PID.TID 0000.0001) %MON pe_b_mean                    =   1.8902204570252E-03
(PID.TID 0000.0001) %MON ke_max                       =   2.5749998417641E+00
(PID.TID 0000.0001) %MON ke_mean                      =   9.2365578759590E-04
(PID.TID 0000.0001) %MON ke_vol                       =   1.3350064351420E+18
(PID.TID 0000.0001) %MON vort_r_min                   =  -8.4417745548592E-05
(PID.TID 0000.0001) %MON vort_r_max                   =   8.3177897256268E-05
(PID.TID 0000.0001) %MON vort_a_mean                  =  -1.9725069380528E-05
(PID.TID 0000.0001) %MON vort_a_sd                    =   7.4539205055732E-05
(PID.TID 0000.0001) %MON vort_p_mean                  =  -2.1669073601544E-05
(PID.TID 0000.0001) %MON vort_p_sd                    =   9.3608009205934E-05
(PID.TID 0000.0001) %MON surfExpan_theta_mean         =   8.8765175926674E-06
(PID.TID 0000.0001) %MON surfExpan_salt_mean          =   9.6078776905624E-06
(PID.TID 0000.0001) // =======================================================
(PID.TID 0000.0001) // End MONITOR dynamic field statistics
(PID.TID 0000.0001) // =======================================================
(PID.TID 0000.0001) // =======================================================
(PID.TID 0000.0001) // Begin MONITOR SEAICE statistics
(PID.TID 0000.0001) // =======================================================
(PID.TID 0000.0001) %MON seaice_tsnumber              =                174691
(PID.TID 0000.0001) %MON seaice_time_sec              =   7.8610950000000E+07
(PID.TID 0000.0001) %MON seaice_uice_max              =   1.6156722392123E+00
(PID.TID 0000.0001) %MON seaice_uice_min              =  -1.5811333108826E+00
(PID.TID 0000.0001) %MON seaice_uice_mean             =   1.4073661865042E-03
(PID.TID 0000.0001) %MON seaice_uice_sd               =   1.5992853152980E-01
(PID.TID 0000.0001) %MON seaice_uice_del2             =   3.3645878378121E-04
(PID.TID 0000.0001) %MON seaice_vice_max              =   1.5494379221862E+00
(PID.TID 0000.0001) %MON seaice_vice_min              =  -1.8797223268094E+00
(PID.TID 0000.0001) %MON seaice_vice_mean             =  -2.4758797690961E-02
(PID.TID 0000.0001) %MON seaice_vice_sd               =   1.6647338633798E-01
(PID.TID 0000.0001) %MON seaice_vice_del2             =   3.2320320942054E-04
(PID.TID 0000.0001) %MON seaice_area_max              =   1.0128567832012E+00
(PID.TID 0000.0001) %MON seaice_area_min              =   0.0000000000000E+00
(PID.TID 0000.0001) %MON seaice_area_mean             =   5.7264387229746E-02
(PID.TID 0000.0001) %MON seaice_area_sd               =   2.2165152103779E-01
(PID.TID 0000.0001) %MON seaice_area_del2             =   3.2048068834843E-04
(PID.TID 0000.0001) %MON seaice_heff_max              =   9.9492627233768E+00
(PID.TID 0000.0001) %MON seaice_heff_min              =   0.0000000000000E+00
(PID.TID 0000.0001) %MON seaice_heff_mean             =   1.5006769718618E-01
(PID.TID 0000.0001) %MON seaice_heff_sd               =   7.2162862510607E-01
(PID.TID 0000.0001) %MON seaice_heff_del2             =   1.4895864520869E-03
(PID.TID 0000.0001) %MON seaice_hsnow_max             =   3.2862700328253E+00
(PID.TID 0000.0001) %MON seaice_hsnow_min             =   0.0000000000000E+00
(PID.TID 0000.0001) %MON seaice_hsnow_mean            =   1.2739341235276E-02
(PID.TID 0000.0001) %MON seaice_hsnow_sd              =   6.9226516157419E-02
(PID.TID 0000.0001) %MON seaice_hsnow_del2            =   4.1665331735749E-04
(PID.TID 0000.0001) // =======================================================
(PID.TID 0000.0001) // End MONITOR SEAICE statistics
(PID.TID 0000.0001) // =======================================================
(PID.TID 0000.0001) // =======================================================
(PID.TID 0000.0001) // Begin MONITOR dynamic field statistics
(PID.TID 0000.0001) // =======================================================
(PID.TID 0000.0001) %MON time_tsnumber                =                174692
(PID.TID 0000.0001) %MON time_secondsf                =   7.8611400000000E+07
(PID.TID 0000.0001) %MON dynstat_eta_max              =   3.0377399970369E+00
(PID.TID 0000.0001) %MON dynstat_eta_min              =  -1.1555844416089E+01
(PID.TID 0000.0001) %MON dynstat_eta_mean             =   6.5869705645679E-02
(PID.TID 0000.0001) %MON dynstat_eta_sd               =   8.3970091161338E-01
(PID.TID 0000.0001) %MON dynstat_eta_del2             =   2.0242686396987E-03
(PID.TID 0000.0001) %MON dynstat_uvel_max             =   1.6579821572302E+00
(PID.TID 0000.0001) %MON dynstat_uvel_min             =  -2.2350214224584E+00
(PID.TID 0000.0001) %MON dynstat_uvel_mean            =   1.7342159167308E-03
(PID.TID 0000.0001) %MON dynstat_uvel_sd              =   3.1158529531296E-02
(PID.TID 0000.0001) %MON dynstat_uvel_del2            =   2.8755826967491E-05
(PID.TID 0000.0001) %MON dynstat_vvel_max             =   1.6105129952896E+00
(PID.TID 0000.0001) %MON dynstat_vvel_min             =  -2.2651493527135E+00
(PID.TID 0000.0001) %MON dynstat_vvel_mean            =   8.1360453555120E-04
(PID.TID 0000.0001) %MON dynstat_vvel_sd              =   3.0670561337784E-02
(PID.TID 0000.0001) %MON dynstat_vvel_del2            =   2.7718737838001E-05
(PID.TID 0000.0001) %MON dynstat_wvel_max             =   9.1978267200914E-03
(PID.TID 0000.0001) %MON dynstat_wvel_min             =  -1.1156892878167E-02
(PID.TID 0000.0001) %MON dynstat_wvel_mean            =   2.6018430678249E-07
(PID.TID 0000.0001) %MON dynstat_wvel_sd              =   8.7282302210868E-05
(PID.TID 0000.0001) %MON dynstat_wvel_del2            =   1.8942597872533E-07
(PID.TID 0000.0001) %MON dynstat_theta_max            =   3.2462775944601E+01
(PID.TID 0000.0001) %MON dynstat_theta_min            =  -2.0280954689368E+00
(PID.TID 0000.0001) %MON dynstat_theta_mean           =   3.5921737865736E+00
(PID.TID 0000.0001) %MON dynstat_theta_sd             =   4.4421387787595E+00
(PID.TID 0000.0001) %MON dynstat_theta_del2           =   1.1907911616784E-04
(PID.TID 0000.0001) %MON dynstat_salt_max             =   4.0655995294805E+01
(PID.TID 0000.0001) %MON dynstat_salt_min             =   1.6205530939510E+01
(PID.TID 0000.0001) %MON dynstat_salt_mean            =   3.4724847217198E+01
(PID.TID 0000.0001) %MON dynstat_salt_sd              =   3.7958396859281E-01
(PID.TID 0000.0001) %MON dynstat_salt_del2            =   7.3554621811798E-05
(PID.TID 0000.0001) %MON dynstat_sst_max              =   3.2462775944601E+01
(PID.TID 0000.0001) %MON dynstat_sst_min              =  -2.0280954689368E+00
(PID.TID 0000.0001) %MON dynstat_sst_mean             =   1.8174183396488E+01
(PID.TID 0000.0001) %MON dynstat_sst_sd               =   1.0152133609445E+01
(PID.TID 0000.0001) %MON dynstat_sst_del2             =   1.1382675864312E-03
(PID.TID 0000.0001) %MON dynstat_sss_max              =   3.9473898420834E+01
(PID.TID 0000.0001) %MON dynstat_sss_min              =   1.6205530939510E+01
(PID.TID 0000.0001) %MON dynstat_sss_mean             =   3.4650429719675E+01
(PID.TID 0000.0001) %MON dynstat_sss_sd               =   1.2863589683010E+00
(PID.TID 0000.0001) %MON dynstat_sss_del2             =   1.4460121865847E-03
(PID.TID 0000.0001) %MON forcing_qnet_max             =   2.4784269595433E+03
(PID.TID 0000.0001) %MON forcing_qnet_min             =  -1.6832614746094E+03
(PID.TID 0000.0001) %MON forcing_qnet_mean            =   1.3580177109903E+00
(PID.TID 0000.0001) %MON forcing_qnet_sd              =   2.3123599691144E+02
(PID.TID 0000.0001) %MON forcing_qnet_del2            =   7.1514487776511E-01
(PID.TID 0000.0001) %MON forcing_qsw_max              =   0.0000000000000E+00
(PID.TID 0000.0001) %MON forcing_qsw_min              =  -1.1031193493123E+02
(PID.TID 0000.0001) %MON forcing_qsw_mean             =  -1.6346486304959E+01
(PID.TID 0000.0001) %MON forcing_qsw_sd               =   2.8818756673641E+01
(PID.TID 0000.0001) %MON forcing_qsw_del2             =   2.1961785171351E-02
(PID.TID 0000.0001) %MON forcing_empmr_max            =   3.1633138656616E-02
(PID.TID 0000.0001) %MON forcing_empmr_min            =  -4.5465376228094E-02
(PID.TID 0000.0001) %MON forcing_empmr_mean           =   9.8208600667639E-06
(PID.TID 0000.0001) %MON forcing_empmr_sd             =   4.1710902846618E-04
(PID.TID 0000.0001) %MON forcing_empmr_del2           =   4.8030191877094E-06
(PID.TID 0000.0001) %MON forcing_fu_max               =   9.0041864659077E-01
(PID.TID 0000.0001) %MON forcing_fu_min               =  -8.4730346243503E-01
(PID.TID 0000.0001) %MON forcing_fu_mean              =   8.9755258952035E-03
(PID.TID 0000.0001) %MON forcing_fu_sd                =   1.1772795845321E-01
(PID.TID 0000.0001) %MON forcing_fu_del2              =   1.4866218371509E-04
(PID.TID 0000.0001) %MON forcing_fv_max               =   8.3885763869321E-01
(PID.TID 0000.0001) %MON forcing_fv_min               =  -1.7633531706874E+00
(PID.TID 0000.0001) %MON forcing_fv_mean              =  -1.9490589060594E-03
(PID.TID 0000.0001) %MON forcing_fv_sd                =   1.0789645986730E-01
(PID.TID 0000.0001) %MON forcing_fv_del2              =   1.4734068821777E-04
(PID.TID 0000.0001) %MON trAdv_CFL_u_max              =   2.3053483683923E-02
(PID.TID 0000.0001) %MON trAdv_CFL_v_max              =   2.0924009357309E-02
(PID.TID 0000.0001) %MON trAdv_CFL_w_max              =   9.8471383193154E-02
(PID.TID 0000.0001) %MON advcfl_uvel_max              =   2.3361856141825E-02
(PID.TID 0000.0001) %MON advcfl_vvel_max              =   2.0998710840916E-02
(PID.TID 0000.0001) %MON advcfl_wvel_max              =   9.3712143649330E-02
(PID.TID 0000.0001) %MON advcfl_W_hf_max              =   9.8471383193154E-02
(PID.TID 0000.0001) %MON pe_b_mean                    =   1.8919309628859E-03
(PID.TID 0000.0001) %MON ke_max                       =   2.5565159382465E+00
(PID.TID 0000.0001) %MON ke_mean                      =   9.2349311389378E-04
(PID.TID 0000.0001) %MON ke_vol                       =   1.3350064351420E+18
(PID.TID 0000.0001) %MON vort_r_min                   =  -8.4695525898878E-05
(PID.TID 0000.0001) %MON vort_r_max                   =   8.3655307254303E-05
(PID.TID 0000.0001) %MON vort_a_mean                  =  -1.9725069504487E-05
(PID.TID 0000.0001) %MON vort_a_sd                    =   7.4539210114214E-05
(PID.TID 0000.0001) %MON vort_p_mean                  =  -2.1669073737720E-05
(PID.TID 0000.0001) %MON vort_p_sd                    =   9.3607975363162E-05
(PID.TID 0000.0001) %MON surfExpan_theta_mean         =   8.4874133572543E-06
(PID.TID 0000.0001) %MON surfExpan_salt_mean          =   9.7162648595568E-06
(PID.TID 0000.0001) // =======================================================
(PID.TID 0000.0001) // End MONITOR dynamic field statistics
(PID.TID 0000.0001) // =======================================================
(PID.TID 0000.0001) // =======================================================
(PID.TID 0000.0001) // Begin MONITOR SEAICE statistics
(PID.TID 0000.0001) // =======================================================
(PID.TID 0000.0001) %MON seaice_tsnumber              =                174692
(PID.TID 0000.0001) %MON seaice_time_sec              =   7.8611400000000E+07
(PID.TID 0000.0001) %MON seaice_uice_max              =   1.5996359751853E+00
(PID.TID 0000.0001) %MON seaice_uice_min              =  -1.5624060426871E+00
(PID.TID 0000.0001) %MON seaice_uice_mean             =   1.3895443644972E-03
(PID.TID 0000.0001) %MON seaice_uice_sd               =   1.5974580108755E-01
(PID.TID 0000.0001) %MON seaice_uice_del2             =   3.3612713994950E-04
(PID.TID 0000.0001) %MON seaice_vice_max              =   1.5651953631876E+00
(PID.TID 0000.0001) %MON seaice_vice_min              =  -1.8453129739106E+00
(PID.TID 0000.0001) %MON seaice_vice_mean             =  -2.4741213963831E-02
(PID.TID 0000.0001) %MON seaice_vice_sd               =   1.6625307329960E-01
(PID.TID 0000.0001) %MON seaice_vice_del2             =   3.2273676636316E-04
(PID.TID 0000.0001) %MON seaice_area_max              =   1.0123976606537E+00
(PID.TID 0000.0001) %MON seaice_area_min              =   0.0000000000000E+00
(PID.TID 0000.0001) %MON seaice_area_mean             =   5.7265554367499E-02
(PID.TID 0000.0001) %MON seaice_area_sd               =   2.2164540102066E-01
(PID.TID 0000.0001) %MON seaice_area_del2             =   3.1993037103185E-04
(PID.TID 0000.0001) %MON seaice_heff_max              =   9.9492589250346E+00
(PID.TID 0000.0001) %MON seaice_heff_min              =   0.0000000000000E+00
(PID.TID 0000.0001) %MON seaice_heff_mean             =   1.5006443721622E-01
(PID.TID 0000.0001) %MON seaice_heff_sd               =   7.2161817825481E-01
(PID.TID 0000.0001) %MON seaice_heff_del2             =   1.4877791562579E-03
(PID.TID 0000.0001) %MON seaice_hsnow_max             =   3.2862691538368E+00
(PID.TID 0000.0001) %MON seaice_hsnow_min             =   0.0000000000000E+00
(PID.TID 0000.0001) %MON seaice_hsnow_mean            =   1.2738610583320E-02
(PID.TID 0000.0001) %MON seaice_hsnow_sd              =   6.9215703960361E-02
(PID.TID 0000.0001) %MON seaice_hsnow_del2            =   4.1604475357665E-04
(PID.TID 0000.0001) // =======================================================
(PID.TID 0000.0001) // End MONITOR SEAICE statistics
(PID.TID 0000.0001) // =======================================================
(PID.TID 0000.0001) // =======================================================
(PID.TID 0000.0001) // Begin MONITOR dynamic field statistics
(PID.TID 0000.0001) // =======================================================
(PID.TID 0000.0001) %MON time_tsnumber                =                174693
(PID.TID 0000.0001) %MON time_secondsf                =   7.8611850000000E+07
(PID.TID 0000.0001) %MON dynstat_eta_max              =   3.0573455008654E+00
(PID.TID 0000.0001) %MON dynstat_eta_min              =  -1.1493598427491E+01
(PID.TID 0000.0001) %MON dynstat_eta_mean             =   6.5999987794180E-02
(PID.TID 0000.0001) %MON dynstat_eta_sd               =   8.3990545570900E-01
(PID.TID 0000.0001) %MON dynstat_eta_del2             =   2.0241350035625E-03
(PID.TID 0000.0001) %MON dynstat_uvel_max             =   1.6524610594145E+00
(PID.TID 0000.0001) %MON dynstat_uvel_min             =  -2.2499918503812E+00
(PID.TID 0000.0001) %MON dynstat_uvel_mean            =   1.7097733654730E-03
(PID.TID 0000.0001) %MON dynstat_uvel_sd              =   3.1126941670906E-02
(PID.TID 0000.0001) %MON dynstat_uvel_del2            =   2.8862935068638E-05
(PID.TID 0000.0001) %MON dynstat_vvel_max             =   1.6233537887531E+00
(PID.TID 0000.0001) %MON dynstat_vvel_min             =  -2.2611403437110E+00
(PID.TID 0000.0001) %MON dynstat_vvel_mean            =   7.8461588790356E-04
(PID.TID 0000.0001) %MON dynstat_vvel_sd              =   3.0693711268272E-02
(PID.TID 0000.0001) %MON dynstat_vvel_del2            =   2.7820432140060E-05
(PID.TID 0000.0001) %MON dynstat_wvel_max             =   9.2247998325417E-03
(PID.TID 0000.0001) %MON dynstat_wvel_min             =  -1.1173248016253E-02
(PID.TID 0000.0001) %MON dynstat_wvel_mean            =   2.6111442768063E-07
(PID.TID 0000.0001) %MON dynstat_wvel_sd              =   8.7449631291418E-05
(PID.TID 0000.0001) %MON dynstat_wvel_del2            =   1.9034985139942E-07
(PID.TID 0000.0001) %MON dynstat_theta_max            =   3.2465597905981E+01
(PID.TID 0000.0001) %MON dynstat_theta_min            =  -2.0265941365427E+00
(PID.TID 0000.0001) %MON dynstat_theta_mean           =   3.5921727902781E+00
(PID.TID 0000.0001) %MON dynstat_theta_sd             =   4.4421368217750E+00
(PID.TID 0000.0001) %MON dynstat_theta_del2           =   1.1912201962488E-04
(PID.TID 0000.0001) %MON dynstat_salt_max             =   4.0655995222155E+01
(PID.TID 0000.0001) %MON dynstat_salt_min             =   1.6202762211818E+01
(PID.TID 0000.0001) %MON dynstat_salt_mean            =   3.4724846966583E+01
(PID.TID 0000.0001) %MON dynstat_salt_sd              =   3.7958459012848E-01
(PID.TID 0000.0001) %MON dynstat_salt_del2            =   7.3445557693069E-05
(PID.TID 0000.0001) %MON dynstat_sst_max              =   3.2465597905981E+01
(PID.TID 0000.0001) %MON dynstat_sst_min              =  -2.0265941365427E+00
(PID.TID 0000.0001) %MON dynstat_sst_mean             =   1.8174202140692E+01
(PID.TID 0000.0001) %MON dynstat_sst_sd               =   1.0152383001928E+01
(PID.TID 0000.0001) %MON dynstat_sst_del2             =   1.1377644715604E-03
(PID.TID 0000.0001) %MON dynstat_sss_max              =   3.9473707455023E+01
(PID.TID 0000.0001) %MON dynstat_sss_min              =   1.6202762211818E+01
(PID.TID 0000.0001) %MON dynstat_sss_mean             =   3.4650344902988E+01
(PID.TID 0000.0001) %MON dynstat_sss_sd               =   1.2865034478083E+00
(PID.TID 0000.0001) %MON dynstat_sss_del2             =   1.4457777676195E-03
(PID.TID 0000.0001) %MON forcing_qnet_max             =   2.5364189453125E+03
(PID.TID 0000.0001) %MON forcing_qnet_min             =  -2.4109731445312E+03
(PID.TID 0000.0001) %MON forcing_qnet_mean            =  -1.2140476756906E+00
(PID.TID 0000.0001) %MON forcing_qnet_sd              =   2.3231627295024E+02
(PID.TID 0000.0001) %MON forcing_qnet_del2            =   7.1773999094011E-01
(PID.TID 0000.0001) %MON forcing_qsw_max              =   0.0000000000000E+00
(PID.TID 0000.0001) %MON forcing_qsw_min              =  -1.0998188694754E+02
(PID.TID 0000.0001) %MON forcing_qsw_mean             =  -1.6633505304491E+01
(PID.TID 0000.0001) %MON forcing_qsw_sd               =   2.9351327696985E+01
(PID.TID 0000.0001) %MON forcing_qsw_del2             =   2.1981751252423E-02
(PID.TID 0000.0001) %MON forcing_empmr_max            =   3.4566618502140E-02
(PID.TID 0000.0001) %MON forcing_empmr_min            =  -4.5234128832817E-02
(PID.TID 0000.0001) %MON forcing_empmr_mean           =   9.7418330725436E-06
(PID.TID 0000.0001) %MON forcing_empmr_sd             =   4.1658382491818E-04
(PID.TID 0000.0001) %MON forcing_empmr_del2           =   4.8084995422465E-06
(PID.TID 0000.0001) %MON forcing_fu_max               =   9.7166756841431E-01
(PID.TID 0000.0001) %MON forcing_fu_min               =  -8.3250556191415E-01
(PID.TID 0000.0001) %MON forcing_fu_mean              =   9.0084139940401E-03
(PID.TID 0000.0001) %MON forcing_fu_sd                =   1.1780097030013E-01
(PID.TID 0000.0001) %MON forcing_fu_del2              =   1.4881509411389E-04
(PID.TID 0000.0001) %MON forcing_fv_max               =   8.3887147562113E-01
(PID.TID 0000.0001) %MON forcing_fv_min               =  -1.7281806790526E+00
(PID.TID 0000.0001) %MON forcing_fv_mean              =  -1.9623390176661E-03
(PID.TID 0000.0001) %MON forcing_fv_sd                =   1.0782213698241E-01
(PID.TID 0000.0001) %MON forcing_fv_del2              =   1.4752174239303E-04
(PID.TID 0000.0001) %MON trAdv_CFL_u_max              =   2.3207898542049E-02
(PID.TID 0000.0001) %MON trAdv_CFL_v_max              =   2.0409715083838E-02
(PID.TID 0000.0001) %MON trAdv_CFL_w_max              =   1.0023254129521E-01
(PID.TID 0000.0001) %MON advcfl_uvel_max              =   2.3518336513780E-02
(PID.TID 0000.0001) %MON advcfl_vvel_max              =   2.0482580468800E-02
(PID.TID 0000.0001) %MON advcfl_wvel_max              =   1.0100666432438E-01
(PID.TID 0000.0001) %MON advcfl_W_hf_max              =   1.0023254129521E-01
(PID.TID 0000.0001) %MON pe_b_mean                    =   1.8937843631425E-03
(PID.TID 0000.0001) %MON ke_max                       =   2.5357204858412E+00
(PID.TID 0000.0001) %MON ke_mean                      =   9.2316669237758E-04
(PID.TID 0000.0001) %MON ke_vol                       =   1.3350064351420E+18
(PID.TID 0000.0001) %MON vort_r_min                   =  -8.4954271179254E-05
(PID.TID 0000.0001) %MON vort_r_max                   =   8.4123419376373E-05
(PID.TID 0000.0001) %MON vort_a_mean                  =  -1.9725069553821E-05
(PID.TID 0000.0001) %MON vort_a_sd                    =   7.4539213680269E-05
(PID.TID 0000.0001) %MON vort_p_mean                  =  -2.1669073791915E-05
(PID.TID 0000.0001) %MON vort_p_sd                    =   9.3607939860056E-05
(PID.TID 0000.0001) %MON surfExpan_theta_mean         =   8.1606350331672E-06
(PID.TID 0000.0001) %MON surfExpan_salt_mean          =   9.7912440864993E-06
(PID.TID 0000.0001) // =======================================================
(PID.TID 0000.0001) // End MONITOR dynamic field statistics
(PID.TID 0000.0001) // =======================================================
(PID.TID 0000.0001) // =======================================================
(PID.TID 0000.0001) // Begin MONITOR SEAICE statistics
(PID.TID 0000.0001) // =======================================================
(PID.TID 0000.0001) %MON seaice_tsnumber              =                174693
(PID.TID 0000.0001) %MON seaice_time_sec              =   7.8611850000000E+07
(PID.TID 0000.0001) %MON seaice_uice_max              =   1.5832129929236E+00
(PID.TID 0000.0001) %MON seaice_uice_min              =  -1.5403757227460E+00
(PID.TID 0000.0001) %MON seaice_uice_mean             =   1.3689882285856E-03
(PID.TID 0000.0001) %MON seaice_uice_sd               =   1.5956223162765E-01
(PID.TID 0000.0001) %MON seaice_uice_del2             =   3.3580486746666E-04
(PID.TID 0000.0001) %MON seaice_vice_max              =   1.5799092087704E+00
(PID.TID 0000.0001) %MON seaice_vice_min              =  -1.8049060799592E+00
(PID.TID 0000.0001) %MON seaice_vice_mean             =  -2.4727967676024E-02
(PID.TID 0000.0001) %MON seaice_vice_sd               =   1.6603835050705E-01
(PID.TID 0000.0001) %MON seaice_vice_del2             =   3.2229517786818E-04
(PID.TID 0000.0001) %MON seaice_area_max              =   1.0119970754284E+00
(PID.TID 0000.0001) %MON seaice_area_min              =   0.0000000000000E+00
(PID.TID 0000.0001) %MON seaice_area_mean             =   5.7266800682008E-02
(PID.TID 0000.0001) %MON seaice_area_sd               =   2.2163953258357E-01
(PID.TID 0000.0001) %MON seaice_area_del2             =   3.1937942476667E-04
(PID.TID 0000.0001) %MON seaice_heff_max              =   9.9492474926538E+00
(PID.TID 0000.0001) %MON seaice_heff_min              =   0.0000000000000E+00
(PID.TID 0000.0001) %MON seaice_heff_mean             =   1.5006116011749E-01
(PID.TID 0000.0001) %MON seaice_heff_sd               =   7.2160762604474E-01
(PID.TID 0000.0001) %MON seaice_heff_del2             =   1.4859813339501E-03
(PID.TID 0000.0001) %MON seaice_hsnow_max             =   3.2862657914843E+00
(PID.TID 0000.0001) %MON seaice_hsnow_min             =   0.0000000000000E+00
(PID.TID 0000.0001) %MON seaice_hsnow_mean            =   1.2737881599479E-02
(PID.TID 0000.0001) %MON seaice_hsnow_sd              =   6.9204941767427E-02
(PID.TID 0000.0001) %MON seaice_hsnow_del2            =   4.1543992476642E-04
(PID.TID 0000.0001) // =======================================================
(PID.TID 0000.0001) // End MONITOR SEAICE statistics
(PID.TID 0000.0001) // =======================================================
(PID.TID 0000.0001) // =======================================================
(PID.TID 0000.0001) // Begin MONITOR dynamic field statistics
(PID.TID 0000.0001) // =======================================================
(PID.TID 0000.0001) %MON time_tsnumber                =                174694
(PID.TID 0000.0001) %MON time_secondsf                =   7.8612300000000E+07
(PID.TID 0000.0001) %MON dynstat_eta_max              =   3.1164055564656E+00
(PID.TID 0000.0001) %MON dynstat_eta_min              =  -1.1421976455647E+01
(PID.TID 0000.0001) %MON dynstat_eta_mean             =   6.6129466606974E-02
(PID.TID 0000.0001) %MON dynstat_eta_sd               =   8.4015051526899E-01
(PID.TID 0000.0001) %MON dynstat_eta_del2             =   2.0240904739306E-03
(PID.TID 0000.0001) %MON dynstat_uvel_max             =   1.6464461400845E+00
(PID.TID 0000.0001) %MON dynstat_uvel_min             =  -2.2647261097940E+00
(PID.TID 0000.0001) %MON dynstat_uvel_mean            =   1.6854524853067E-03
(PID.TID 0000.0001) %MON dynstat_uvel_sd              =   3.1091080085602E-02
(PID.TID 0000.0001) %MON dynstat_uvel_del2            =   2.8966903654261E-05
(PID.TID 0000.0001) %MON dynstat_vvel_max             =   1.6349651003465E+00
(PID.TID 0000.0001) %MON dynstat_vvel_min             =  -2.2560498748835E+00
(PID.TID 0000.0001) %MON dynstat_vvel_mean            =   7.5541904593949E-04
(PID.TID 0000.0001) %MON dynstat_vvel_sd              =   3.0715856881454E-02
(PID.TID 0000.0001) %MON dynstat_vvel_del2            =   2.7920279622573E-05
(PID.TID 0000.0001) %MON dynstat_wvel_max             =   9.2456749949290E-03
(PID.TID 0000.0001) %MON dynstat_wvel_min             =  -1.1183836843961E-02
(PID.TID 0000.0001) %MON dynstat_wvel_mean            =   2.6081425671996E-07
(PID.TID 0000.0001) %MON dynstat_wvel_sd              =   8.7604768754944E-05
(PID.TID 0000.0001) %MON dynstat_wvel_del2            =   1.9123949239582E-07
(PID.TID 0000.0001) %MON dynstat_theta_max            =   3.2468319163794E+01
(PID.TID 0000.0001) %MON dynstat_theta_min            =  -2.0242305487081E+00
(PID.TID 0000.0001) %MON dynstat_theta_mean           =   3.5921718373476E+00
(PID.TID 0000.0001) %MON dynstat_theta_sd             =   4.4421351718406E+00
(PID.TID 0000.0001) %MON dynstat_theta_del2           =   1.1916614147449E-04
(PID.TID 0000.0001) %MON dynstat_salt_max             =   4.0655995147319E+01
(PID.TID 0000.0001) %MON dynstat_salt_min             =   1.6199966473509E+01
(PID.TID 0000.0001) %MON dynstat_salt_mean            =   3.4724846706949E+01
(PID.TID 0000.0001) %MON dynstat_salt_sd              =   3.7958527501312E-01
(PID.TID 0000.0001) %MON dynstat_salt_del2            =   7.3338428673379E-05
(PID.TID 0000.0001) %MON dynstat_sst_max              =   3.2468319163794E+01
(PID.TID 0000.0001) %MON dynstat_sst_min              =  -2.0242305487081E+00
(PID.TID 0000.0001) %MON dynstat_sst_mean             =   1.8174239640192E+01
(PID.TID 0000.0001) %MON dynstat_sst_sd               =   1.0152644489281E+01
(PID.TID 0000.0001) %MON dynstat_sst_del2             =   1.1373090614672E-03
(PID.TID 0000.0001) %MON dynstat_sss_max              =   3.9473501733039E+01
(PID.TID 0000.0001) %MON dynstat_sss_min              =   1.6199966473509E+01
(PID.TID 0000.0001) %MON dynstat_sss_mean             =   3.4650261181224E+01
(PID.TID 0000.0001) %MON dynstat_sss_sd               =   1.2866467753586E+00
(PID.TID 0000.0001) %MON dynstat_sss_del2             =   1.4456457078496E-03
(PID.TID 0000.0001) %MON forcing_qnet_max             =   2.6104392089844E+03
(PID.TID 0000.0001) %MON forcing_qnet_min             =  -5.1447695312500E+03
(PID.TID 0000.0001) %MON forcing_qnet_mean            =  -1.8599987861725E+00
(PID.TID 0000.0001) %MON forcing_qnet_sd              =   2.3274645250859E+02
(PID.TID 0000.0001) %MON forcing_qnet_del2            =   7.3865835235586E-01
(PID.TID 0000.0001) %MON forcing_qsw_max              =   0.0000000000000E+00
(PID.TID 0000.0001) %MON forcing_qsw_min              =  -1.0983325806800E+02
(PID.TID 0000.0001) %MON forcing_qsw_mean             =  -1.6731542149056E+01
(PID.TID 0000.0001) %MON forcing_qsw_sd               =   2.9485908450772E+01
(PID.TID 0000.0001) %MON forcing_qsw_del2             =   2.2044139607441E-02
(PID.TID 0000.0001) %MON forcing_empmr_max            =   3.9277754724026E-02
(PID.TID 0000.0001) %MON forcing_empmr_min            =  -4.5700639486313E-02
(PID.TID 0000.0001) %MON forcing_empmr_mean           =   9.5554529576985E-06
(PID.TID 0000.0001) %MON forcing_empmr_sd             =   4.1828397122363E-04
(PID.TID 0000.0001) %MON forcing_empmr_del2           =   4.8567981235123E-06
(PID.TID 0000.0001) %MON forcing_fu_max               =   1.0106419759530E+00
(PID.TID 0000.0001) %MON forcing_fu_min               =  -8.1219878046374E-01
(PID.TID 0000.0001) %MON forcing_fu_mean              =   9.0503517419895E-03
(PID.TID 0000.0001) %MON forcing_fu_sd                =   1.1791900849654E-01
(PID.TID 0000.0001) %MON forcing_fu_del2              =   1.4894111029035E-04
(PID.TID 0000.0001) %MON forcing_fv_max               =   8.3845194662383E-01
(PID.TID 0000.0001) %MON forcing_fv_min               =  -1.7045452731495E+00
(PID.TID 0000.0001) %MON forcing_fv_mean              =  -1.9723551355444E-03
(PID.TID 0000.0001) %MON forcing_fv_sd                =   1.0776441672115E-01
(PID.TID 0000.0001) %MON forcing_fv_del2              =   1.4774814009340E-04
(PID.TID 0000.0001) %MON trAdv_CFL_u_max              =   2.3359877402544E-02
(PID.TID 0000.0001) %MON trAdv_CFL_v_max              =   2.0023934983559E-02
(PID.TID 0000.0001) %MON trAdv_CFL_w_max              =   1.0193760521819E-01
(PID.TID 0000.0001) %MON advcfl_uvel_max              =   2.3672348303242E-02
(PID.TID 0000.0001) %MON advcfl_vvel_max              =   2.0023462565634E-02
(PID.TID 0000.0001) %MON advcfl_wvel_max              =   1.0863132950424E-01
(PID.TID 0000.0001) %MON advcfl_W_hf_max              =   1.0193760521819E-01
(PID.TID 0000.0001) %MON pe_b_mean                    =   1.8957614516607E-03
(PID.TID 0000.0001) %MON ke_max                       =   2.5130544730839E+00
(PID.TID 0000.0001) %MON ke_mean                      =   9.2268529807307E-04
(PID.TID 0000.0001) %MON ke_vol                       =   1.3350064351420E+18
(PID.TID 0000.0001) %MON vort_r_min                   =  -8.5198534406504E-05
(PID.TID 0000.0001) %MON vort_r_max                   =   8.4586844655505E-05
(PID.TID 0000.0001) %MON vort_a_mean                  =  -1.9725069581035E-05
(PID.TID 0000.0001) %MON vort_a_sd                    =   7.4539215698924E-05
(PID.TID 0000.0001) %MON vort_p_mean                  =  -2.1669073821812E-05
(PID.TID 0000.0001) %MON vort_p_sd                    =   9.3607902779314E-05
(PID.TID 0000.0001) %MON surfExpan_theta_mean         =   7.9069632429302E-06
(PID.TID 0000.0001) %MON surfExpan_salt_mean          =   9.8276389496822E-06
(PID.TID 0000.0001) // =======================================================
(PID.TID 0000.0001) // End MONITOR dynamic field statistics
(PID.TID 0000.0001) // =======================================================
(PID.TID 0000.0001) // =======================================================
(PID.TID 0000.0001) // Begin MONITOR SEAICE statistics
(PID.TID 0000.0001) // =======================================================
(PID.TID 0000.0001) %MON seaice_tsnumber              =                174694
(PID.TID 0000.0001) %MON seaice_time_sec              =   7.8612300000000E+07
(PID.TID 0000.0001) %MON seaice_uice_max              =   1.5663258492765E+00
(PID.TID 0000.0001) %MON seaice_uice_min              =  -1.5305156197519E+00
(PID.TID 0000.0001) %MON seaice_uice_mean             =   1.3522100100578E-03
(PID.TID 0000.0001) %MON seaice_uice_sd               =   1.5937606189560E-01
(PID.TID 0000.0001) %MON seaice_uice_del2             =   3.3536755984702E-04
(PID.TID 0000.0001) %MON seaice_vice_max              =   1.5935129180510E+00
(PID.TID 0000.0001) %MON seaice_vice_min              =  -1.7626361604692E+00
(PID.TID 0000.0001) %MON seaice_vice_mean             =  -2.4734391988424E-02
(PID.TID 0000.0001) %MON seaice_vice_sd               =   1.6582925951519E-01
(PID.TID 0000.0001) %MON seaice_vice_del2             =   3.2175214447477E-04
(PID.TID 0000.0001) %MON seaice_area_max              =   1.0115113449345E+00
(PID.TID 0000.0001) %MON seaice_area_min              =   0.0000000000000E+00
(PID.TID 0000.0001) %MON seaice_area_mean             =   5.7268161775275E-02
(PID.TID 0000.0001) %MON seaice_area_sd               =   2.2163402148497E-01
(PID.TID 0000.0001) %MON seaice_area_del2             =   3.1882789041874E-04
(PID.TID 0000.0001) %MON seaice_heff_max              =   9.9492389157278E+00
(PID.TID 0000.0001) %MON seaice_heff_min              =   0.0000000000000E+00
(PID.TID 0000.0001) %MON seaice_heff_mean             =   1.5005787673022E-01
(PID.TID 0000.0001) %MON seaice_heff_sd               =   7.2159699630434E-01
(PID.TID 0000.0001) %MON seaice_heff_del2             =   1.4841975593245E-03
(PID.TID 0000.0001) %MON seaice_hsnow_max             =   3.2862631764269E+00
(PID.TID 0000.0001) %MON seaice_hsnow_min             =   0.0000000000000E+00
(PID.TID 0000.0001) %MON seaice_hsnow_mean            =   1.2737141508661E-02
(PID.TID 0000.0001) %MON seaice_hsnow_sd              =   6.9194197124888E-02
(PID.TID 0000.0001) %MON seaice_hsnow_del2            =   4.1484103365438E-04
(PID.TID 0000.0001) // =======================================================
(PID.TID 0000.0001) // End MONITOR SEAICE statistics
(PID.TID 0000.0001) // =======================================================
(PID.TID 0000.0001) // =======================================================
(PID.TID 0000.0001) // Begin MONITOR dynamic field statistics
(PID.TID 0000.0001) // =======================================================
(PID.TID 0000.0001) %MON time_tsnumber                =                174695
(PID.TID 0000.0001) %MON time_secondsf                =   7.8612750000000E+07
(PID.TID 0000.0001) %MON dynstat_eta_max              =   3.1788632215884E+00
(PID.TID 0000.0001) %MON dynstat_eta_min              =  -1.1342871458298E+01
(PID.TID 0000.0001) %MON dynstat_eta_mean             =   6.6257129271023E-02
(PID.TID 0000.0001) %MON dynstat_eta_sd               =   8.4043246290287E-01
(PID.TID 0000.0001) %MON dynstat_eta_del2             =   2.0241273407680E-03
(PID.TID 0000.0001) %MON dynstat_uvel_max             =   1.6399734369442E+00
(PID.TID 0000.0001) %MON dynstat_uvel_min             =  -2.2793141028529E+00
(PID.TID 0000.0001) %MON dynstat_uvel_mean            =   1.6613063555385E-03
(PID.TID 0000.0001) %MON dynstat_uvel_sd              =   3.1051583595464E-02
(PID.TID 0000.0001) %MON dynstat_uvel_del2            =   2.9068033189864E-05
(PID.TID 0000.0001) %MON dynstat_vvel_max             =   1.6452548844734E+00
(PID.TID 0000.0001) %MON dynstat_vvel_min             =  -2.2500112283271E+00
(PID.TID 0000.0001) %MON dynstat_vvel_mean            =   7.2648670840981E-04
(PID.TID 0000.0001) %MON dynstat_vvel_sd              =   3.0736644086999E-02
(PID.TID 0000.0001) %MON dynstat_vvel_del2            =   2.8017199399501E-05
(PID.TID 0000.0001) %MON dynstat_wvel_max             =   9.2602935981940E-03
(PID.TID 0000.0001) %MON dynstat_wvel_min             =  -1.1189034064989E-02
(PID.TID 0000.0001) %MON dynstat_wvel_mean            =   2.5904906193138E-07
(PID.TID 0000.0001) %MON dynstat_wvel_sd              =   8.7753151455060E-05
(PID.TID 0000.0001) %MON dynstat_wvel_del2            =   1.9209832134997E-07
(PID.TID 0000.0001) %MON dynstat_theta_max            =   3.2471007880862E+01
(PID.TID 0000.0001) %MON dynstat_theta_min            =  -2.0200879692648E+00
(PID.TID 0000.0001) %MON dynstat_theta_mean           =   3.5921709075971E+00
(PID.TID 0000.0001) %MON dynstat_theta_sd             =   4.4421337550895E+00
(PID.TID 0000.0001) %MON dynstat_theta_del2           =   1.1920924580971E-04
(PID.TID 0000.0001) %MON dynstat_salt_max             =   4.0655995070643E+01
(PID.TID 0000.0001) %MON dynstat_salt_min             =   1.6197186711457E+01
(PID.TID 0000.0001) %MON dynstat_salt_mean            =   3.4724846435257E+01
(PID.TID 0000.0001) %MON dynstat_salt_sd              =   3.7958604544557E-01
(PID.TID 0000.0001) %MON dynstat_salt_del2            =   7.3232068454010E-05
(PID.TID 0000.0001) %MON dynstat_sst_max              =   3.2471007880862E+01
(PID.TID 0000.0001) %MON dynstat_sst_min              =  -2.0200879692648E+00
(PID.TID 0000.0001) %MON dynstat_sst_mean             =   1.8174277433654E+01
(PID.TID 0000.0001) %MON dynstat_sst_sd               =   1.0152904055995E+01
(PID.TID 0000.0001) %MON dynstat_sst_del2             =   1.1366164269448E-03
(PID.TID 0000.0001) %MON dynstat_sss_max              =   3.9473286820217E+01
(PID.TID 0000.0001) %MON dynstat_sss_min              =   1.6197186711457E+01
(PID.TID 0000.0001) %MON dynstat_sss_mean             =   3.4650177566676E+01
(PID.TID 0000.0001) %MON dynstat_sss_sd               =   1.2867885274604E+00
(PID.TID 0000.0001) %MON dynstat_sss_del2             =   1.4454413174803E-03
(PID.TID 0000.0001) %MON forcing_qnet_max             =   2.6877866210938E+03
(PID.TID 0000.0001) %MON forcing_qnet_min             =  -2.6519943847656E+03
(PID.TID 0000.0001) %MON forcing_qnet_mean            =  -2.0949629462251E+00
(PID.TID 0000.0001) %MON forcing_qnet_sd              =   2.3224375585759E+02
(PID.TID 0000.0001) %MON forcing_qnet_del2            =   6.9264473642838E-01
(PID.TID 0000.0001) %MON forcing_qsw_max              =   0.0000000000000E+00
(PID.TID 0000.0001) %MON forcing_qsw_min              =  -1.0968277597412E+02
(PID.TID 0000.0001) %MON forcing_qsw_mean             =  -1.6821483980888E+01
(PID.TID 0000.0001) %MON forcing_qsw_sd               =   2.9603252348805E+01
(PID.TID 0000.0001) %MON forcing_qsw_del2             =   2.2097816970972E-02
(PID.TID 0000.0001) %MON forcing_empmr_max            =   4.9290511757135E-02
(PID.TID 0000.0001) %MON forcing_empmr_min            =  -4.5538309961557E-02
(PID.TID 0000.0001) %MON forcing_empmr_mean           =   9.5161797441229E-06
(PID.TID 0000.0001) %MON forcing_empmr_sd             =   4.2250566918670E-04
(PID.TID 0000.0001) %MON forcing_empmr_del2           =   4.9882794653340E-06
(PID.TID 0000.0001) %MON forcing_fu_max               =   1.0334092496973E+00
(PID.TID 0000.0001) %MON forcing_fu_min               =  -7.8688383007680E-01
(PID.TID 0000.0001) %MON forcing_fu_mean              =   9.0860492020309E-03
(PID.TID 0000.0001) %MON forcing_fu_sd                =   1.1799018121538E-01
(PID.TID 0000.0001) %MON forcing_fu_del2              =   1.4906207523203E-04
(PID.TID 0000.0001) %MON forcing_fv_max               =   8.3847093566905E-01
(PID.TID 0000.0001) %MON forcing_fv_min               =  -1.6948880712079E+00
(PID.TID 0000.0001) %MON forcing_fv_mean              =  -1.9821349644111E-03
(PID.TID 0000.0001) %MON forcing_fv_sd                =   1.0769664760567E-01
(PID.TID 0000.0001) %MON forcing_fv_del2              =   1.4788205078483E-04
(PID.TID 0000.0001) %MON trAdv_CFL_u_max              =   2.3510347575486E-02
(PID.TID 0000.0001) %MON trAdv_CFL_v_max              =   1.9970338000894E-02
(PID.TID 0000.0001) %MON trAdv_CFL_w_max              =   1.0358475781912E-01
(PID.TID 0000.0001) %MON advcfl_uvel_max              =   2.3824831224352E-02
(PID.TID 0000.0001) %MON advcfl_vvel_max              =   1.9969866847465E-02
(PID.TID 0000.0001) %MON advcfl_wvel_max              =   1.1460189770635E-01
(PID.TID 0000.0001) %MON advcfl_W_hf_max              =   1.0358475781912E-01
(PID.TID 0000.0001) %MON pe_b_mean                    =   1.8978286892003E-03
(PID.TID 0000.0001) %MON ke_max                       =   2.4889557851290E+00
(PID.TID 0000.0001) %MON ke_mean                      =   9.2205836479787E-04
(PID.TID 0000.0001) %MON ke_vol                       =   1.3350064351420E+18
(PID.TID 0000.0001) %MON vort_r_min                   =  -8.5432741161285E-05
(PID.TID 0000.0001) %MON vort_r_max                   =   8.5050012603978E-05
(PID.TID 0000.0001) %MON vort_a_mean                  =  -1.9725069537871E-05
(PID.TID 0000.0001) %MON vort_a_sd                    =   7.4539216227080E-05
(PID.TID 0000.0001) %MON vort_p_mean                  =  -2.1669073774394E-05
(PID.TID 0000.0001) %MON vort_p_sd                    =   9.3607864144066E-05
(PID.TID 0000.0001) %MON surfExpan_theta_mean         =   7.7219792021332E-06
(PID.TID 0000.0001) %MON surfExpan_salt_mean          =   9.8064138072405E-06
(PID.TID 0000.0001) // =======================================================
(PID.TID 0000.0001) // End MONITOR dynamic field statistics
(PID.TID 0000.0001) // =======================================================
(PID.TID 0000.0001) // =======================================================
(PID.TID 0000.0001) // Begin MONITOR SEAICE statistics
(PID.TID 0000.0001) // =======================================================
(PID.TID 0000.0001) %MON seaice_tsnumber              =                174695
(PID.TID 0000.0001) %MON seaice_time_sec              =   7.8612750000000E+07
(PID.TID 0000.0001) %MON seaice_uice_max              =   1.5490347627663E+00
(PID.TID 0000.0001) %MON seaice_uice_min              =  -1.5321848906436E+00
(PID.TID 0000.0001) %MON seaice_uice_mean             =   1.3303370371033E-03
(PID.TID 0000.0001) %MON seaice_uice_sd               =   1.5919711756137E-01
(PID.TID 0000.0001) %MON seaice_uice_del2             =   3.3489526479415E-04
(PID.TID 0000.0001) %MON seaice_vice_max              =   1.6059320775836E+00
(PID.TID 0000.0001) %MON seaice_vice_min              =  -1.7498626879195E+00
(PID.TID 0000.0001) %MON seaice_vice_mean             =  -2.4743261956433E-02
(PID.TID 0000.0001) %MON seaice_vice_sd               =   1.6562882073812E-01
(PID.TID 0000.0001) %MON seaice_vice_del2             =   3.2124840311071E-04
(PID.TID 0000.0001) %MON seaice_area_max              =   1.0109610151354E+00
(PID.TID 0000.0001) %MON seaice_area_min              =   0.0000000000000E+00
(PID.TID 0000.0001) %MON seaice_area_mean             =   5.7269613586552E-02
(PID.TID 0000.0001) %MON seaice_area_sd               =   2.2162883914924E-01
(PID.TID 0000.0001) %MON seaice_area_del2             =   3.1828907436733E-04
(PID.TID 0000.0001) %MON seaice_heff_max              =   9.9492265208710E+00
(PID.TID 0000.0001) %MON seaice_heff_min              =   0.0000000000000E+00
(PID.TID 0000.0001) %MON seaice_heff_mean             =   1.5005457711621E-01
(PID.TID 0000.0001) %MON seaice_heff_sd               =   7.2158628730283E-01
(PID.TID 0000.0001) %MON seaice_heff_del2             =   1.4824327475587E-03
(PID.TID 0000.0001) %MON seaice_hsnow_max             =   3.2862595572527E+00
(PID.TID 0000.0001) %MON seaice_hsnow_min             =   0.0000000000000E+00
(PID.TID 0000.0001) %MON seaice_hsnow_mean            =   1.2736387875859E-02
(PID.TID 0000.0001) %MON seaice_hsnow_sd              =   6.9183448730845E-02
(PID.TID 0000.0001) %MON seaice_hsnow_del2            =   4.1424968757442E-04
(PID.TID 0000.0001) // =======================================================
(PID.TID 0000.0001) // End MONITOR SEAICE statistics
(PID.TID 0000.0001) // =======================================================
(PID.TID 0000.0001) // =======================================================
(PID.TID 0000.0001) // Begin MONITOR dynamic field statistics
(PID.TID 0000.0001) // =======================================================
(PID.TID 0000.0001) %MON time_tsnumber                =                174696
(PID.TID 0000.0001) %MON time_secondsf                =   7.8613200000000E+07
(PID.TID 0000.0001) %MON dynstat_eta_max              =   3.2147517901924E+00
(PID.TID 0000.0001) %MON dynstat_eta_min              =  -1.1258270636694E+01
(PID.TID 0000.0001) %MON dynstat_eta_mean             =   6.6382166580725E-02
(PID.TID 0000.0001) %MON dynstat_eta_sd               =   8.4074661583553E-01
(PID.TID 0000.0001) %MON dynstat_eta_del2             =   2.0242341409161E-03
(PID.TID 0000.0001) %MON dynstat_uvel_max             =   1.6331172506535E+00
(PID.TID 0000.0001) %MON dynstat_uvel_min             =  -2.2938228913461E+00
(PID.TID 0000.0001) %MON dynstat_uvel_mean            =   1.6373400685359E-03
(PID.TID 0000.0001) %MON dynstat_uvel_sd              =   3.1009343165451E-02
(PID.TID 0000.0001) %MON dynstat_uvel_del2            =   2.9165953833638E-05
(PID.TID 0000.0001) %MON dynstat_vvel_max             =   1.6541735568091E+00
(PID.TID 0000.0001) %MON dynstat_vvel_min             =  -2.2431598817315E+00
(PID.TID 0000.0001) %MON dynstat_vvel_mean            =   6.9825950729538E-04
(PID.TID 0000.0001) %MON dynstat_vvel_sd              =   3.0755682310971E-02
(PID.TID 0000.0001) %MON dynstat_vvel_del2            =   2.8112731257827E-05
(PID.TID 0000.0001) %MON dynstat_wvel_max             =   9.2685519388365E-03
(PID.TID 0000.0001) %MON dynstat_wvel_min             =  -1.1189251343950E-02
(PID.TID 0000.0001) %MON dynstat_wvel_mean            =   2.5612556884002E-07
(PID.TID 0000.0001) %MON dynstat_wvel_sd              =   8.7899450646145E-05
(PID.TID 0000.0001) %MON dynstat_wvel_del2            =   1.9293080176399E-07
(PID.TID 0000.0001) %MON dynstat_theta_max            =   3.2473563033367E+01
(PID.TID 0000.0001) %MON dynstat_theta_min            =  -2.0147921845092E+00
(PID.TID 0000.0001) %MON dynstat_theta_mean           =   3.5921699989326E+00
(PID.TID 0000.0001) %MON dynstat_theta_sd             =   4.4421326162438E+00
(PID.TID 0000.0001) %MON dynstat_theta_del2           =   1.1925376190980E-04
(PID.TID 0000.0001) %MON dynstat_salt_max             =   4.0655994992446E+01
(PID.TID 0000.0001) %MON dynstat_salt_min             =   1.6194488261583E+01
(PID.TID 0000.0001) %MON dynstat_salt_mean            =   3.4724846151669E+01
(PID.TID 0000.0001) %MON dynstat_salt_sd              =   3.7958690631169E-01
(PID.TID 0000.0001) %MON dynstat_salt_del2            =   7.3127813415166E-05
(PID.TID 0000.0001) %MON dynstat_sst_max              =   3.2473563033367E+01
(PID.TID 0000.0001) %MON dynstat_sst_min              =  -2.0147921845092E+00
(PID.TID 0000.0001) %MON dynstat_sst_mean             =   1.8174328059196E+01
(PID.TID 0000.0001) %MON dynstat_sst_sd               =   1.0153174277707E+01
(PID.TID 0000.0001) %MON dynstat_sst_del2             =   1.1359886308847E-03
(PID.TID 0000.0001) %MON dynstat_sss_max              =   3.9473068681358E+01
(PID.TID 0000.0001) %MON dynstat_sss_min              =   1.6194488261583E+01
(PID.TID 0000.0001) %MON dynstat_sss_mean             =   3.4650095103512E+01
(PID.TID 0000.0001) %MON dynstat_sss_sd               =   1.2869301593319E+00
(PID.TID 0000.0001) %MON dynstat_sss_del2             =   1.4453402636838E-03
(PID.TID 0000.0001) %MON forcing_qnet_max             =   2.7684790039062E+03
(PID.TID 0000.0001) %MON forcing_qnet_min             =  -1.7536238214912E+03
(PID.TID 0000.0001) %MON forcing_qnet_mean            =  -2.5701459490821E+00
(PID.TID 0000.0001) %MON forcing_qnet_sd              =   2.3235061685286E+02
(PID.TID 0000.0001) %MON forcing_qnet_del2            =   6.8328028125720E-01
(PID.TID 0000.0001) %MON forcing_qsw_max              =   0.0000000000000E+00
(PID.TID 0000.0001) %MON forcing_qsw_min              =  -1.0992736373483E+02
(PID.TID 0000.0001) %MON forcing_qsw_mean             =  -1.6903761131931E+01
(PID.TID 0000.0001) %MON forcing_qsw_sd               =   2.9702917095263E+01
(PID.TID 0000.0001) %MON forcing_qsw_del2             =   2.2142617354871E-02
(PID.TID 0000.0001) %MON forcing_empmr_max            =   8.9959576725960E-02
(PID.TID 0000.0001) %MON forcing_empmr_min            =  -4.7769546508789E-02
(PID.TID 0000.0001) %MON forcing_empmr_mean           =   9.7625100598779E-06
(PID.TID 0000.0001) %MON forcing_empmr_sd             =   4.5949627387591E-04
(PID.TID 0000.0001) %MON forcing_empmr_del2           =   5.9417253626283E-06
(PID.TID 0000.0001) %MON forcing_fu_max               =   1.0498596284789E+00
(PID.TID 0000.0001) %MON forcing_fu_min               =  -7.5742940311933E-01
(PID.TID 0000.0001) %MON forcing_fu_mean              =   9.1291303404817E-03
(PID.TID 0000.0001) %MON forcing_fu_sd                =   1.1810190764790E-01
(PID.TID 0000.0001) %MON forcing_fu_del2              =   1.4929572522851E-04
(PID.TID 0000.0001) %MON forcing_fv_max               =   8.4003386292989E-01
(PID.TID 0000.0001) %MON forcing_fv_min               =  -1.6922235476141E+00
(PID.TID 0000.0001) %MON forcing_fv_mean              =  -1.9884661531885E-03
(PID.TID 0000.0001) %MON forcing_fv_sd                =   1.0764478366674E-01
(PID.TID 0000.0001) %MON forcing_fv_del2              =   1.4812317489234E-04
(PID.TID 0000.0001) %MON trAdv_CFL_u_max              =   2.3660000780346E-02
(PID.TID 0000.0001) %MON trAdv_CFL_v_max              =   1.9909527767793E-02
(PID.TID 0000.0001) %MON trAdv_CFL_w_max              =   1.0517279377820E-01
(PID.TID 0000.0001) %MON advcfl_uvel_max              =   2.3976486249295E-02
(PID.TID 0000.0001) %MON advcfl_vvel_max              =   1.9909058049038E-02
(PID.TID 0000.0001) %MON advcfl_wvel_max              =   1.1883670955821E-01
(PID.TID 0000.0001) %MON advcfl_W_hf_max              =   1.0517279377820E-01
(PID.TID 0000.0001) %MON pe_b_mean                    =   1.8999550745522E-03
(PID.TID 0000.0001) %MON ke_max                       =   2.4638461312981E+00
(PID.TID 0000.0001) %MON ke_mean                      =   9.2130155042414E-04
(PID.TID 0000.0001) %MON ke_vol                       =   1.3350064351420E+18
(PID.TID 0000.0001) %MON vort_r_min                   =  -8.5660753556556E-05
(PID.TID 0000.0001) %MON vort_r_max                   =   8.5516634189831E-05
(PID.TID 0000.0001) %MON vort_a_mean                  =  -1.9725069459190E-05
(PID.TID 0000.0001) %MON vort_a_sd                    =   7.4539215271767E-05
(PID.TID 0000.0001) %MON vort_p_mean                  =  -2.1669073687959E-05
(PID.TID 0000.0001) %MON vort_p_sd                    =   9.3607824013833E-05
(PID.TID 0000.0001) %MON surfExpan_theta_mean         =   7.6173062957407E-06
(PID.TID 0000.0001) %MON surfExpan_salt_mean          =   9.7454786964336E-06
(PID.TID 0000.0001) // =======================================================
(PID.TID 0000.0001) // End MONITOR dynamic field statistics
(PID.TID 0000.0001) // =======================================================
(PID.TID 0000.0001) // =======================================================
(PID.TID 0000.0001) // Begin MONITOR SEAICE statistics
(PID.TID 0000.0001) // =======================================================
(PID.TID 0000.0001) %MON seaice_tsnumber              =                174696
(PID.TID 0000.0001) %MON seaice_time_sec              =   7.8613200000000E+07
(PID.TID 0000.0001) %MON seaice_uice_max              =   1.5314200540248E+00
(PID.TID 0000.0001) %MON seaice_uice_min              =  -1.5329486463823E+00
(PID.TID 0000.0001) %MON seaice_uice_mean             =   1.3039873402124E-03
(PID.TID 0000.0001) %MON seaice_uice_sd               =   1.5901429643928E-01
(PID.TID 0000.0001) %MON seaice_uice_del2             =   3.3437805345701E-04
(PID.TID 0000.0001) %MON seaice_vice_max              =   1.6170569117262E+00
(PID.TID 0000.0001) %MON seaice_vice_min              =  -1.7365705043007E+00
(PID.TID 0000.0001) %MON seaice_vice_mean             =  -2.4758727900840E-02
(PID.TID 0000.0001) %MON seaice_vice_sd               =   1.6542766948733E-01
(PID.TID 0000.0001) %MON seaice_vice_del2             =   3.2067220504968E-04
(PID.TID 0000.0001) %MON seaice_area_max              =   1.0104667715477E+00
(PID.TID 0000.0001) %MON seaice_area_min              =   0.0000000000000E+00
(PID.TID 0000.0001) %MON seaice_area_mean             =   5.7271097496914E-02
(PID.TID 0000.0001) %MON seaice_area_sd               =   2.2162377300554E-01
(PID.TID 0000.0001) %MON seaice_area_del2             =   3.1775736763440E-04
(PID.TID 0000.0001) %MON seaice_heff_max              =   9.9492093538746E+00
(PID.TID 0000.0001) %MON seaice_heff_min              =   0.0000000000000E+00
(PID.TID 0000.0001) %MON seaice_heff_mean             =   1.5005125710340E-01
(PID.TID 0000.0001) %MON seaice_heff_sd               =   7.2157552185528E-01
(PID.TID 0000.0001) %MON seaice_heff_del2             =   1.4806899977200E-03
(PID.TID 0000.0001) %MON seaice_hsnow_max             =   3.2862537318370E+00
(PID.TID 0000.0001) %MON seaice_hsnow_min             =   0.0000000000000E+00
(PID.TID 0000.0001) %MON seaice_hsnow_mean            =   1.2735627020625E-02
(PID.TID 0000.0001) %MON seaice_hsnow_sd              =   6.9172737323104E-02
(PID.TID 0000.0001) %MON seaice_hsnow_del2            =   4.1366662221817E-04
(PID.TID 0000.0001) // =======================================================
(PID.TID 0000.0001) // End MONITOR SEAICE statistics
(PID.TID 0000.0001) // =======================================================
(PID.TID 0000.0001) // =======================================================
(PID.TID 0000.0001) // Begin MONITOR dynamic field statistics
(PID.TID 0000.0001) // =======================================================
(PID.TID 0000.0001) %MON time_tsnumber                =                174697
(PID.TID 0000.0001) %MON time_secondsf                =   7.8613650000000E+07
(PID.TID 0000.0001) %MON dynstat_eta_max              =   3.2223973884537E+00
(PID.TID 0000.0001) %MON dynstat_eta_min              =  -1.1170266069670E+01
(PID.TID 0000.0001) %MON dynstat_eta_mean             =   6.6504279492101E-02
(PID.TID 0000.0001) %MON dynstat_eta_sd               =   8.4108732189206E-01
(PID.TID 0000.0001) %MON dynstat_eta_del2             =   2.0243874912030E-03
(PID.TID 0000.0001) %MON dynstat_uvel_max             =   1.6259236070074E+00
(PID.TID 0000.0001) %MON dynstat_uvel_min             =  -2.3083174999343E+00
(PID.TID 0000.0001) %MON dynstat_uvel_mean            =   1.6135141884215E-03
(PID.TID 0000.0001) %MON dynstat_uvel_sd              =   3.0965192943471E-02
(PID.TID 0000.0001) %MON dynstat_uvel_del2            =   2.9261434201409E-05
(PID.TID 0000.0001) %MON dynstat_vvel_max             =   1.6616710255141E+00
(PID.TID 0000.0001) %MON dynstat_vvel_min             =  -2.2376215444510E+00
(PID.TID 0000.0001) %MON dynstat_vvel_mean            =   6.7115773958611E-04
(PID.TID 0000.0001) %MON dynstat_vvel_sd              =   3.0772699187190E-02
(PID.TID 0000.0001) %MON dynstat_vvel_del2            =   2.8205985349057E-05
(PID.TID 0000.0001) %MON dynstat_wvel_max             =   9.2703877743343E-03
(PID.TID 0000.0001) %MON dynstat_wvel_min             =  -1.1184879560711E-02
(PID.TID 0000.0001) %MON dynstat_wvel_mean            =   2.5229568653748E-07
(PID.TID 0000.0001) %MON dynstat_wvel_sd              =   8.8048312727526E-05
(PID.TID 0000.0001) %MON dynstat_wvel_del2            =   1.9374190449281E-07
(PID.TID 0000.0001) %MON dynstat_theta_max            =   3.2476075861957E+01
(PID.TID 0000.0001) %MON dynstat_theta_min            =  -2.0152684685219E+00
(PID.TID 0000.0001) %MON dynstat_theta_mean           =   3.5921691007100E+00
(PID.TID 0000.0001) %MON dynstat_theta_sd             =   4.4421317323466E+00
(PID.TID 0000.0001) %MON dynstat_theta_del2           =   1.1929907881885E-04
(PID.TID 0000.0001) %MON dynstat_salt_max             =   4.0655994913015E+01
(PID.TID 0000.0001) %MON dynstat_salt_min             =   1.6191901489666E+01
(PID.TID 0000.0001) %MON dynstat_salt_mean            =   3.4724845855322E+01
(PID.TID 0000.0001) %MON dynstat_salt_sd              =   3.7958786875456E-01
(PID.TID 0000.0001) %MON dynstat_salt_del2            =   7.3025283701606E-05
(PID.TID 0000.0001) %MON dynstat_sst_max              =   3.2476075861957E+01
(PID.TID 0000.0001) %MON dynstat_sst_min              =  -2.0152684685219E+00
(PID.TID 0000.0001) %MON dynstat_sst_mean             =   1.8174382011698E+01
(PID.TID 0000.0001) %MON dynstat_sst_sd               =   1.0153446840095E+01
(PID.TID 0000.0001) %MON dynstat_sst_del2             =   1.1353448506616E-03
(PID.TID 0000.0001) %MON dynstat_sss_max              =   3.9472852864653E+01
(PID.TID 0000.0001) %MON dynstat_sss_min              =   1.6191901489666E+01
(PID.TID 0000.0001) %MON dynstat_sss_mean             =   3.4650013907124E+01
(PID.TID 0000.0001) %MON dynstat_sss_sd               =   1.2870700188676E+00
(PID.TID 0000.0001) %MON dynstat_sss_del2             =   1.4452476376292E-03
(PID.TID 0000.0001) %MON forcing_qnet_max             =   2.8593395996094E+03
(PID.TID 0000.0001) %MON forcing_qnet_min             =  -4.5337045898438E+03
(PID.TID 0000.0001) %MON forcing_qnet_mean            =  -3.0440278159093E+00
(PID.TID 0000.0001) %MON forcing_qnet_sd              =   2.3444982347569E+02
(PID.TID 0000.0001) %MON forcing_qnet_del2            =   7.3908268887398E-01
(PID.TID 0000.0001) %MON forcing_qsw_max              =   0.0000000000000E+00
(PID.TID 0000.0001) %MON forcing_qsw_min              =  -1.1005434940656E+02
(PID.TID 0000.0001) %MON forcing_qsw_mean             =  -1.6978581174977E+01
(PID.TID 0000.0001) %MON forcing_qsw_sd               =   2.9784545872283E+01
(PID.TID 0000.0001) %MON forcing_qsw_del2             =   2.2178478524210E-02
(PID.TID 0000.0001) %MON forcing_empmr_max            =   7.9502470791340E-02
(PID.TID 0000.0001) %MON forcing_empmr_min            =  -4.6252917498350E-02
(PID.TID 0000.0001) %MON forcing_empmr_mean           =   9.4381921683024E-06
(PID.TID 0000.0001) %MON forcing_empmr_sd             =   4.4627163784503E-04
(PID.TID 0000.0001) %MON forcing_empmr_del2           =   5.6302467543438E-06
(PID.TID 0000.0001) %MON forcing_fu_max               =   1.0638333308853E+00
(PID.TID 0000.0001) %MON forcing_fu_min               =  -7.2954605173455E-01
(PID.TID 0000.0001) %MON forcing_fu_mean              =   9.1672002223381E-03
(PID.TID 0000.0001) %MON forcing_fu_sd                =   1.1816008528973E-01
(PID.TID 0000.0001) %MON forcing_fu_del2              =   1.4954970824145E-04
(PID.TID 0000.0001) %MON forcing_fv_max               =   8.4092484508176E-01
(PID.TID 0000.0001) %MON forcing_fv_min               =  -1.6941246465593E+00
(PID.TID 0000.0001) %MON forcing_fv_mean              =  -1.9986984150915E-03
(PID.TID 0000.0001) %MON forcing_fv_sd                =   1.0758448260787E-01
(PID.TID 0000.0001) %MON forcing_fv_del2              =   1.4836825280096E-04
(PID.TID 0000.0001) %MON trAdv_CFL_u_max              =   2.3809507724322E-02
(PID.TID 0000.0001) %MON trAdv_CFL_v_max              =   1.9860371360899E-02
(PID.TID 0000.0001) %MON trAdv_CFL_w_max              =   1.0670227275442E-01
(PID.TID 0000.0001) %MON advcfl_uvel_max              =   2.4127993056910E-02
(PID.TID 0000.0001) %MON advcfl_vvel_max              =   1.9859902801875E-02
(PID.TID 0000.0001) %MON advcfl_wvel_max              =   1.2127901927227E-01
(PID.TID 0000.0001) %MON advcfl_W_hf_max              =   1.0670227275442E-01
(PID.TID 0000.0001) %MON pe_b_mean                    =   1.9021208186096E-03
(PID.TID 0000.0001) %MON ke_max                       =   2.4381322161138E+00
(PID.TID 0000.0001) %MON ke_mean                      =   9.2043205602823E-04
(PID.TID 0000.0001) %MON ke_vol                       =   1.3350064351420E+18
(PID.TID 0000.0001) %MON vort_r_min                   =  -8.6589250729740E-05
(PID.TID 0000.0001) %MON vort_r_max                   =   8.5990195175566E-05
(PID.TID 0000.0001) %MON vort_a_mean                  =  -1.9725069339549E-05
(PID.TID 0000.0001) %MON vort_a_sd                    =   7.4539212888289E-05
(PID.TID 0000.0001) %MON vort_p_mean                  =  -2.1669073556527E-05
(PID.TID 0000.0001) %MON vort_p_sd                    =   9.3607782189432E-05
(PID.TID 0000.0001) %MON surfExpan_theta_mean         =   7.5994239213021E-06
(PID.TID 0000.0001) %MON surfExpan_salt_mean          =   9.6529177468265E-06
(PID.TID 0000.0001) // =======================================================
(PID.TID 0000.0001) // End MONITOR dynamic field statistics
(PID.TID 0000.0001) // =======================================================
(PID.TID 0000.0001) // =======================================================
(PID.TID 0000.0001) // Begin MONITOR SEAICE statistics
(PID.TID 0000.0001) // =======================================================
(PID.TID 0000.0001) %MON seaice_tsnumber              =                174697
(PID.TID 0000.0001) %MON seaice_time_sec              =   7.8613650000000E+07
(PID.TID 0000.0001) %MON seaice_uice_max              =   1.5135858733108E+00
(PID.TID 0000.0001) %MON seaice_uice_min              =  -1.5889953478402E+00
(PID.TID 0000.0001) %MON seaice_uice_mean             =   1.2774264506691E-03
(PID.TID 0000.0001) %MON seaice_uice_sd               =   1.5883630564022E-01
(PID.TID 0000.0001) %MON seaice_uice_del2             =   3.3385886082498E-04
(PID.TID 0000.0001) %MON seaice_vice_max              =   1.6268321122069E+00
(PID.TID 0000.0001) %MON seaice_vice_min              =  -1.7231855194809E+00
(PID.TID 0000.0001) %MON seaice_vice_mean             =  -2.4776820888542E-02
(PID.TID 0000.0001) %MON seaice_vice_sd               =   1.6523383279429E-01
(PID.TID 0000.0001) %MON seaice_vice_del2             =   3.2014473758267E-04
(PID.TID 0000.0001) %MON seaice_area_max              =   1.0100925946020E+00
(PID.TID 0000.0001) %MON seaice_area_min              =   0.0000000000000E+00
(PID.TID 0000.0001) %MON seaice_area_mean             =   5.7272613823673E-02
(PID.TID 0000.0001) %MON seaice_area_sd               =   2.2161883127032E-01
(PID.TID 0000.0001) %MON seaice_area_del2             =   3.1724131764861E-04
(PID.TID 0000.0001) %MON seaice_heff_max              =   9.9491988640109E+00
(PID.TID 0000.0001) %MON seaice_heff_min              =   0.0000000000000E+00
(PID.TID 0000.0001) %MON seaice_heff_mean             =   1.5004791559990E-01
(PID.TID 0000.0001) %MON seaice_heff_sd               =   7.2156472262546E-01
(PID.TID 0000.0001) %MON seaice_heff_del2             =   1.4789801818693E-03
(PID.TID 0000.0001) %MON seaice_hsnow_max             =   3.2862503378557E+00
(PID.TID 0000.0001) %MON seaice_hsnow_min             =   0.0000000000000E+00
(PID.TID 0000.0001) %MON seaice_hsnow_mean            =   1.2734873319357E-02
(PID.TID 0000.0001) %MON seaice_hsnow_sd              =   6.9162190980681E-02
(PID.TID 0000.0001) %MON seaice_hsnow_del2            =   4.1309649540753E-04
(PID.TID 0000.0001) // =======================================================
(PID.TID 0000.0001) // End MONITOR SEAICE statistics
(PID.TID 0000.0001) // =======================================================
(PID.TID 0000.0001) // =======================================================
(PID.TID 0000.0001) // Begin MONITOR dynamic field statistics
(PID.TID 0000.0001) // =======================================================
(PID.TID 0000.0001) %MON time_tsnumber                =                174698
(PID.TID 0000.0001) %MON time_secondsf                =   7.8614100000000E+07
(PID.TID 0000.0001) %MON dynstat_eta_max              =   3.2006677479641E+00
(PID.TID 0000.0001) %MON dynstat_eta_min              =  -1.1080969865595E+01
(PID.TID 0000.0001) %MON dynstat_eta_mean             =   6.6622598242270E-02
(PID.TID 0000.0001) %MON dynstat_eta_sd               =   8.4144913521889E-01
(PID.TID 0000.0001) %MON dynstat_eta_del2             =   2.0245641291911E-03
(PID.TID 0000.0001) %MON dynstat_uvel_max             =   1.6184114046476E+00
(PID.TID 0000.0001) %MON dynstat_uvel_min             =  -2.3228697152616E+00
(PID.TID 0000.0001) %MON dynstat_uvel_mean            =   1.5897517170041E-03
(PID.TID 0000.0001) %MON dynstat_uvel_sd              =   3.0920034066829E-02
(PID.TID 0000.0001) %MON dynstat_uvel_del2            =   2.9355240023703E-05
(PID.TID 0000.0001) %MON dynstat_vvel_max             =   1.6677121166762E+00
(PID.TID 0000.0001) %MON dynstat_vvel_min             =  -2.2338810139299E+00
(PID.TID 0000.0001) %MON dynstat_vvel_mean            =   6.4556735755301E-04
(PID.TID 0000.0001) %MON dynstat_vvel_sd              =   3.0787186783651E-02
(PID.TID 0000.0001) %MON dynstat_vvel_del2            =   2.8298232573435E-05
(PID.TID 0000.0001) %MON dynstat_wvel_max             =   9.2658198221025E-03
(PID.TID 0000.0001) %MON dynstat_wvel_min             =  -1.1176256548962E-02
(PID.TID 0000.0001) %MON dynstat_wvel_mean            =   2.4709093903749E-07
(PID.TID 0000.0001) %MON dynstat_wvel_sd              =   8.8203335084476E-05
(PID.TID 0000.0001) %MON dynstat_wvel_del2            =   1.9453761324412E-07
(PID.TID 0000.0001) %MON dynstat_theta_max            =   3.2478464636123E+01
(PID.TID 0000.0001) %MON dynstat_theta_min            =  -2.0157428606596E+00
(PID.TID 0000.0001) %MON dynstat_theta_mean           =   3.5921681957657E+00
(PID.TID 0000.0001) %MON dynstat_theta_sd             =   4.4421310579807E+00
(PID.TID 0000.0001) %MON dynstat_theta_del2           =   1.1934548241936E-04
(PID.TID 0000.0001) %MON dynstat_salt_max             =   4.0655994832605E+01
(PID.TID 0000.0001) %MON dynstat_salt_min             =   1.6189427414740E+01
(PID.TID 0000.0001) %MON dynstat_salt_mean            =   3.4724845541301E+01
(PID.TID 0000.0001) %MON dynstat_salt_sd              =   3.7958892625194E-01
(PID.TID 0000.0001) %MON dynstat_salt_del2            =   7.2924002844779E-05
(PID.TID 0000.0001) %MON dynstat_sst_max              =   3.2478464636123E+01
(PID.TID 0000.0001) %MON dynstat_sst_min              =  -2.0157428606596E+00
(PID.TID 0000.0001) %MON dynstat_sst_mean             =   1.8174444260722E+01
(PID.TID 0000.0001) %MON dynstat_sst_sd               =   1.0153726202854E+01
(PID.TID 0000.0001) %MON dynstat_sst_del2             =   1.1347094439154E-03
(PID.TID 0000.0001) %MON dynstat_sss_max              =   3.9472647515559E+01
(PID.TID 0000.0001) %MON dynstat_sss_min              =   1.6189427414740E+01
(PID.TID 0000.0001) %MON dynstat_sss_mean             =   3.4649932382603E+01
(PID.TID 0000.0001) %MON dynstat_sss_sd               =   1.2872095422015E+00
(PID.TID 0000.0001) %MON dynstat_sss_del2             =   1.4451928720858E-03
(PID.TID 0000.0001) %MON forcing_qnet_max             =   2.9319641113281E+03
(PID.TID 0000.0001) %MON forcing_qnet_min             =  -3.9901245117188E+03
(PID.TID 0000.0001) %MON forcing_qnet_mean            =  -3.2307723677355E+00
(PID.TID 0000.0001) %MON forcing_qnet_sd              =   2.3341859162299E+02
(PID.TID 0000.0001) %MON forcing_qnet_del2            =   7.0699866738038E-01
(PID.TID 0000.0001) %MON forcing_qsw_max              =   0.0000000000000E+00
(PID.TID 0000.0001) %MON forcing_qsw_min              =  -1.1025108986235E+02
(PID.TID 0000.0001) %MON forcing_qsw_mean             =  -1.7045687061331E+01
(PID.TID 0000.0001) %MON forcing_qsw_sd               =   2.9848042835244E+01
(PID.TID 0000.0001) %MON forcing_qsw_del2             =   2.2205311583713E-02
(PID.TID 0000.0001) %MON forcing_empmr_max            =   2.6797417551279E-02
(PID.TID 0000.0001) %MON forcing_empmr_min            =  -4.5620620250702E-02
(PID.TID 0000.0001) %MON forcing_empmr_mean           =   8.9709960815133E-06
(PID.TID 0000.0001) %MON forcing_empmr_sd             =   4.0633829838762E-04
(PID.TID 0000.0001) %MON forcing_empmr_del2           =   4.5619390527565E-06
(PID.TID 0000.0001) %MON forcing_fu_max               =   1.0751542756047E+00
(PID.TID 0000.0001) %MON forcing_fu_min               =  -7.4318101838216E-01
(PID.TID 0000.0001) %MON forcing_fu_mean              =   9.2073079862727E-03
(PID.TID 0000.0001) %MON forcing_fu_sd                =   1.1825966165926E-01
(PID.TID 0000.0001) %MON forcing_fu_del2              =   1.4994708051883E-04
(PID.TID 0000.0001) %MON forcing_fv_max               =   8.4220615403143E-01
(PID.TID 0000.0001) %MON forcing_fv_min               =  -1.6982155810844E+00
(PID.TID 0000.0001) %MON forcing_fv_mean              =  -2.0071323139166E-03
(PID.TID 0000.0001) %MON forcing_fv_sd                =   1.0750495132999E-01
(PID.TID 0000.0001) %MON forcing_fv_del2              =   1.4882091309618E-04
(PID.TID 0000.0001) %MON trAdv_CFL_u_max              =   2.3959608862164E-02
(PID.TID 0000.0001) %MON trAdv_CFL_v_max              =   1.9827171678219E-02
(PID.TID 0000.0001) %MON trAdv_CFL_w_max              =   1.0817392393855E-01
(PID.TID 0000.0001) %MON advcfl_uvel_max              =   2.4280102006564E-02
(PID.TID 0000.0001) %MON advcfl_vvel_max              =   1.9826703902464E-02
(PID.TID 0000.0001) %MON advcfl_wvel_max              =   1.2189438490125E-01
(PID.TID 0000.0001) %MON advcfl_W_hf_max              =   1.0817392393855E-01
(PID.TID 0000.0001) %MON pe_b_mean                    =   1.9042919048540E-03
(PID.TID 0000.0001) %MON ke_max                       =   2.4122037183485E+00
(PID.TID 0000.0001) %MON ke_mean                      =   9.1946183364032E-04
(PID.TID 0000.0001) %MON ke_vol                       =   1.3350064351420E+18
(PID.TID 0000.0001) %MON vort_r_min                   =  -8.8915034894642E-05
(PID.TID 0000.0001) %MON vort_r_max                   =   8.6474168929898E-05
(PID.TID 0000.0001) %MON vort_a_mean                  =  -1.9725069184050E-05
(PID.TID 0000.0001) %MON vort_a_sd                    =   7.4539209156205E-05
(PID.TID 0000.0001) %MON vort_p_mean                  =  -2.1669073385702E-05
(PID.TID 0000.0001) %MON vort_p_sd                    =   9.3607738927394E-05
(PID.TID 0000.0001) %MON surfExpan_theta_mean         =   7.6582208034429E-06
(PID.TID 0000.0001) %MON surfExpan_salt_mean          =   9.4973623242552E-06
(PID.TID 0000.0001) // =======================================================
(PID.TID 0000.0001) // End MONITOR dynamic field statistics
(PID.TID 0000.0001) // =======================================================
(PID.TID 0000.0001) // =======================================================
(PID.TID 0000.0001) // Begin MONITOR SEAICE statistics
(PID.TID 0000.0001) // =======================================================
(PID.TID 0000.0001) %MON seaice_tsnumber              =                174698
(PID.TID 0000.0001) %MON seaice_time_sec              =   7.8614100000000E+07
(PID.TID 0000.0001) %MON seaice_uice_max              =   1.4956039666490E+00
(PID.TID 0000.0001) %MON seaice_uice_min              =  -1.6528506251617E+00
(PID.TID 0000.0001) %MON seaice_uice_mean             =   1.2471807013915E-03
(PID.TID 0000.0001) %MON seaice_uice_sd               =   1.5865627839068E-01
(PID.TID 0000.0001) %MON seaice_uice_del2             =   3.3329169665688E-04
(PID.TID 0000.0001) %MON seaice_vice_max              =   1.6352098719669E+00
(PID.TID 0000.0001) %MON seaice_vice_min              =  -1.7098739776884E+00
(PID.TID 0000.0001) %MON seaice_vice_mean             =  -2.4800057218391E-02
(PID.TID 0000.0001) %MON seaice_vice_sd               =   1.6503877648998E-01
(PID.TID 0000.0001) %MON seaice_vice_del2             =   3.1956982273982E-04
(PID.TID 0000.0001) %MON seaice_area_max              =   1.0098379263050E+00
(PID.TID 0000.0001) %MON seaice_area_min              =   0.0000000000000E+00
(PID.TID 0000.0001) %MON seaice_area_mean             =   5.7274109435329E-02
(PID.TID 0000.0001) %MON seaice_area_sd               =   2.2161380325401E-01
(PID.TID 0000.0001) %MON seaice_area_del2             =   3.1673327414416E-04
(PID.TID 0000.0001) %MON seaice_heff_max              =   9.9491845798606E+00
(PID.TID 0000.0001) %MON seaice_heff_min              =   0.0000000000000E+00
(PID.TID 0000.0001) %MON seaice_heff_mean             =   1.5004454598587E-01
(PID.TID 0000.0001) %MON seaice_heff_sd               =   7.2155385534607E-01
(PID.TID 0000.0001) %MON seaice_heff_del2             =   1.4773082380200E-03
(PID.TID 0000.0001) %MON seaice_hsnow_max             =   3.2862456444575E+00
(PID.TID 0000.0001) %MON seaice_hsnow_min             =   0.0000000000000E+00
(PID.TID 0000.0001) %MON seaice_hsnow_mean            =   1.2734095673727E-02
(PID.TID 0000.0001) %MON seaice_hsnow_sd              =   6.9151664792264E-02
(PID.TID 0000.0001) %MON seaice_hsnow_del2            =   4.1254096609292E-04
(PID.TID 0000.0001) // =======================================================
(PID.TID 0000.0001) // End MONITOR SEAICE statistics
(PID.TID 0000.0001) // =======================================================
(PID.TID 0000.0001) // =======================================================
(PID.TID 0000.0001) // Begin MONITOR dynamic field statistics
(PID.TID 0000.0001) // =======================================================
(PID.TID 0000.0001) %MON time_tsnumber                =                174699
(PID.TID 0000.0001) %MON time_secondsf                =   7.8614550000000E+07
(PID.TID 0000.0001) %MON dynstat_eta_max              =   3.1490323911044E+00
(PID.TID 0000.0001) %MON dynstat_eta_min              =  -1.0992472034292E+01
(PID.TID 0000.0001) %MON dynstat_eta_mean             =   6.6736275073627E-02
(PID.TID 0000.0001) %MON dynstat_eta_sd               =   8.4182724756940E-01
(PID.TID 0000.0001) %MON dynstat_eta_del2             =   2.0247496877488E-03
(PID.TID 0000.0001) %MON dynstat_uvel_max             =   1.6168611566157E+00
(PID.TID 0000.0001) %MON dynstat_uvel_min             =  -2.3375356900001E+00
(PID.TID 0000.0001) %MON dynstat_uvel_mean            =   1.5659397374010E-03
(PID.TID 0000.0001) %MON dynstat_uvel_sd              =   3.0874681199247E-02
(PID.TID 0000.0001) %MON dynstat_uvel_del2            =   2.9447916800013E-05
(PID.TID 0000.0001) %MON dynstat_vvel_max             =   1.6722626362991E+00
(PID.TID 0000.0001) %MON dynstat_vvel_min             =  -2.2297709410102E+00
(PID.TID 0000.0001) %MON dynstat_vvel_mean            =   6.2184072935694E-04
(PID.TID 0000.0001) %MON dynstat_vvel_sd              =   3.0799035540931E-02
(PID.TID 0000.0001) %MON dynstat_vvel_del2            =   2.8389444002143E-05
(PID.TID 0000.0001) %MON dynstat_wvel_max             =   9.2549411121428E-03
(PID.TID 0000.0001) %MON dynstat_wvel_min             =  -1.1163689619905E-02
(PID.TID 0000.0001) %MON dynstat_wvel_mean            =   2.4097199575487E-07
(PID.TID 0000.0001) %MON dynstat_wvel_sd              =   8.8367437846714E-05
(PID.TID 0000.0001) %MON dynstat_wvel_del2            =   1.9532290669620E-07
(PID.TID 0000.0001) %MON dynstat_theta_max            =   3.2480877306655E+01
(PID.TID 0000.0001) %MON dynstat_theta_min            =  -2.0162154332643E+00
(PID.TID 0000.0001) %MON dynstat_theta_mean           =   3.5921672748120E+00
(PID.TID 0000.0001) %MON dynstat_theta_sd             =   4.4421305696563E+00
(PID.TID 0000.0001) %MON dynstat_theta_del2           =   1.1939242208444E-04
(PID.TID 0000.0001) %MON dynstat_salt_max             =   4.0655994751434E+01
(PID.TID 0000.0001) %MON dynstat_salt_min             =   1.6187065173189E+01
(PID.TID 0000.0001) %MON dynstat_salt_mean            =   3.4724845210794E+01
(PID.TID 0000.0001) %MON dynstat_salt_sd              =   3.7959007689353E-01
(PID.TID 0000.0001) %MON dynstat_salt_del2            =   7.2824292270004E-05
(PID.TID 0000.0001) %MON dynstat_sst_max              =   3.2480877306655E+01
(PID.TID 0000.0001) %MON dynstat_sst_min              =  -2.0162154332643E+00
(PID.TID 0000.0001) %MON dynstat_sst_mean             =   1.8174508001235E+01
(PID.TID 0000.0001) %MON dynstat_sst_sd               =   1.0154006503264E+01
(PID.TID 0000.0001) %MON dynstat_sst_del2             =   1.1340586890276E-03
(PID.TID 0000.0001) %MON dynstat_sss_max              =   3.9472459837573E+01
(PID.TID 0000.0001) %MON dynstat_sss_min              =   1.6187065173189E+01
(PID.TID 0000.0001) %MON dynstat_sss_mean             =   3.4649851248361E+01
(PID.TID 0000.0001) %MON dynstat_sss_sd               =   1.2873456917017E+00
(PID.TID 0000.0001) %MON dynstat_sss_del2             =   1.4451309561012E-03
(PID.TID 0000.0001) %MON forcing_qnet_max             =   3.0049606933594E+03
(PID.TID 0000.0001) %MON forcing_qnet_min             =  -3.2513686523438E+03
(PID.TID 0000.0001) %MON forcing_qnet_mean            =  -3.3740058966361E+00
(PID.TID 0000.0001) %MON forcing_qnet_sd              =   2.3296240183275E+02
(PID.TID 0000.0001) %MON forcing_qnet_del2            =   6.9584668250826E-01
(PID.TID 0000.0001) %MON forcing_qsw_max              =   0.0000000000000E+00
(PID.TID 0000.0001) %MON forcing_qsw_min              =  -1.1039278532608E+02
(PID.TID 0000.0001) %MON forcing_qsw_mean             =  -1.7104941840283E+01
(PID.TID 0000.0001) %MON forcing_qsw_sd               =   2.9893256258759E+01
(PID.TID 0000.0001) %MON forcing_qsw_del2             =   2.2223001368580E-02
(PID.TID 0000.0001) %MON forcing_empmr_max            =   2.7002457529306E-02
(PID.TID 0000.0001) %MON forcing_empmr_min            =  -4.4606503099203E-02
(PID.TID 0000.0001) %MON forcing_empmr_mean           =   8.9699399871721E-06
(PID.TID 0000.0001) %MON forcing_empmr_sd             =   4.0344123296961E-04
(PID.TID 0000.0001) %MON forcing_empmr_del2           =   4.5194073360205E-06
(PID.TID 0000.0001) %MON forcing_fu_max               =   1.0844261097149E+00
(PID.TID 0000.0001) %MON forcing_fu_min               =  -7.5702206639624E-01
(PID.TID 0000.0001) %MON forcing_fu_mean              =   9.2433134811396E-03
(PID.TID 0000.0001) %MON forcing_fu_sd                =   1.1833794816626E-01
(PID.TID 0000.0001) %MON forcing_fu_del2              =   1.5029227608989E-04
(PID.TID 0000.0001) %MON forcing_fv_max               =   8.4042445454585E-01
(PID.TID 0000.0001) %MON forcing_fv_min               =  -1.7006252777981E+00
(PID.TID 0000.0001) %MON forcing_fv_mean              =  -2.0180427883789E-03
(PID.TID 0000.0001) %MON forcing_fv_sd                =   1.0740863373318E-01
(PID.TID 0000.0001) %MON forcing_fv_del2              =   1.4934335872979E-04
(PID.TID 0000.0001) %MON trAdv_CFL_u_max              =   2.4110883389534E-02
(PID.TID 0000.0001) %MON trAdv_CFL_v_max              =   1.9790692062303E-02
(PID.TID 0000.0001) %MON trAdv_CFL_w_max              =   1.0958851406557E-01
(PID.TID 0000.0001) %MON advcfl_uvel_max              =   2.4433400041463E-02
(PID.TID 0000.0001) %MON advcfl_vvel_max              =   1.9790225147199E-02
(PID.TID 0000.0001) %MON advcfl_wvel_max              =   1.2067683349731E-01
(PID.TID 0000.0001) %MON advcfl_W_hf_max              =   1.0958851406557E-01
(PID.TID 0000.0001) %MON pe_b_mean                    =   1.9064327152398E-03
(PID.TID 0000.0001) %MON ke_max                       =   2.3851194852254E+00
(PID.TID 0000.0001) %MON ke_mean                      =   9.1841183159497E-04
(PID.TID 0000.0001) %MON ke_vol                       =   1.3350064351420E+18
(PID.TID 0000.0001) %MON vort_r_min                   =  -9.0083091578837E-05
(PID.TID 0000.0001) %MON vort_r_max                   =   8.6971417713247E-05
(PID.TID 0000.0001) %MON vort_a_mean                  =  -1.9725068996478E-05
(PID.TID 0000.0001) %MON vort_a_sd                    =   7.4539204176904E-05
(PID.TID 0000.0001) %MON vort_p_mean                  =  -2.1669073179644E-05
(PID.TID 0000.0001) %MON vort_p_sd                    =   9.3607694571578E-05
(PID.TID 0000.0001) %MON surfExpan_theta_mean         =   7.7849311669329E-06
(PID.TID 0000.0001) %MON surfExpan_salt_mean          =   9.2977644255000E-06
(PID.TID 0000.0001) // =======================================================
(PID.TID 0000.0001) // End MONITOR dynamic field statistics
(PID.TID 0000.0001) // =======================================================
(PID.TID 0000.0001) // =======================================================
(PID.TID 0000.0001) // Begin MONITOR SEAICE statistics
(PID.TID 0000.0001) // =======================================================
(PID.TID 0000.0001) %MON seaice_tsnumber              =                174699
(PID.TID 0000.0001) %MON seaice_time_sec              =   7.8614550000000E+07
(PID.TID 0000.0001) %MON seaice_uice_max              =   1.4775544424253E+00
(PID.TID 0000.0001) %MON seaice_uice_min              =  -1.6942666191925E+00
(PID.TID 0000.0001) %MON seaice_uice_mean             =   1.2163810626370E-03
(PID.TID 0000.0001) %MON seaice_uice_sd               =   1.5847841542436E-01
(PID.TID 0000.0001) %MON seaice_uice_del2             =   3.3269483611958E-04
(PID.TID 0000.0001) %MON seaice_vice_max              =   1.6421238682976E+00
(PID.TID 0000.0001) %MON seaice_vice_min              =  -1.6968406806578E+00
(PID.TID 0000.0001) %MON seaice_vice_mean             =  -2.4824151775878E-02
(PID.TID 0000.0001) %MON seaice_vice_sd               =   1.6484723748281E-01
(PID.TID 0000.0001) %MON seaice_vice_del2             =   3.1903809551506E-04
(PID.TID 0000.0001) %MON seaice_area_max              =   1.0096759760214E+00
(PID.TID 0000.0001) %MON seaice_area_min              =   0.0000000000000E+00
(PID.TID 0000.0001) %MON seaice_area_mean             =   5.7275584043869E-02
(PID.TID 0000.0001) %MON seaice_area_sd               =   2.2160868196628E-01
(PID.TID 0000.0001) %MON seaice_area_del2             =   3.1623415614496E-04
(PID.TID 0000.0001) %MON seaice_heff_max              =   9.9491884946678E+00
(PID.TID 0000.0001) %MON seaice_heff_min              =   0.0000000000000E+00
(PID.TID 0000.0001) %MON seaice_heff_mean             =   1.5004115408251E-01
(PID.TID 0000.0001) %MON seaice_heff_sd               =   7.2154294664166E-01
(PID.TID 0000.0001) %MON seaice_heff_del2             =   1.4756761561136E-03
(PID.TID 0000.0001) %MON seaice_hsnow_max             =   3.2862471272690E+00
(PID.TID 0000.0001) %MON seaice_hsnow_min             =   0.0000000000000E+00
(PID.TID 0000.0001) %MON seaice_hsnow_mean            =   1.2733301496351E-02
(PID.TID 0000.0001) %MON seaice_hsnow_sd              =   6.9141254510200E-02
(PID.TID 0000.0001) %MON seaice_hsnow_del2            =   4.1200061944130E-04
(PID.TID 0000.0001) // =======================================================
(PID.TID 0000.0001) // End MONITOR SEAICE statistics
(PID.TID 0000.0001) // =======================================================
(PID.TID 0000.0001) // =======================================================
(PID.TID 0000.0001) // Begin MONITOR dynamic field statistics
(PID.TID 0000.0001) // =======================================================
(PID.TID 0000.0001) %MON time_tsnumber                =                174700
(PID.TID 0000.0001) %MON time_secondsf                =   7.8615000000000E+07
(PID.TID 0000.0001) %MON dynstat_eta_max              =   3.0675490604388E+00
(PID.TID 0000.0001) %MON dynstat_eta_min              =  -1.1137683206716E+01
(PID.TID 0000.0001) %MON dynstat_eta_mean             =   6.6844279536756E-02
(PID.TID 0000.0001) %MON dynstat_eta_sd               =   8.4221727462630E-01
(PID.TID 0000.0001) %MON dynstat_eta_del2             =   2.0249145101517E-03
(PID.TID 0000.0001) %MON dynstat_uvel_max             =   1.6153135669118E+00
(PID.TID 0000.0001) %MON dynstat_uvel_min             =  -2.3523690783305E+00
(PID.TID 0000.0001) %MON dynstat_uvel_mean            =   1.5419315278720E-03
(PID.TID 0000.0001) %MON dynstat_uvel_sd              =   3.0829914617616E-02
(PID.TID 0000.0001) %MON dynstat_uvel_del2            =   2.9540754386674E-05
(PID.TID 0000.0001) %MON dynstat_vvel_max             =   1.6752972640143E+00
(PID.TID 0000.0001) %MON dynstat_vvel_min             =  -2.2254077238778E+00
(PID.TID 0000.0001) %MON dynstat_vvel_mean            =   6.0026828619821E-04
(PID.TID 0000.0001) %MON dynstat_vvel_sd              =   3.0807767142518E-02
(PID.TID 0000.0001) %MON dynstat_vvel_del2            =   2.8481251258694E-05
(PID.TID 0000.0001) %MON dynstat_wvel_max             =   9.2378715161816E-03
(PID.TID 0000.0001) %MON dynstat_wvel_min             =  -1.1147492463542E-02
(PID.TID 0000.0001) %MON dynstat_wvel_mean            =   2.3336730834698E-07
(PID.TID 0000.0001) %MON dynstat_wvel_sd              =   8.8542635675775E-05
(PID.TID 0000.0001) %MON dynstat_wvel_del2            =   1.9610227159130E-07
(PID.TID 0000.0001) %MON dynstat_theta_max            =   3.2483157051477E+01
(PID.TID 0000.0001) %MON dynstat_theta_min            =  -2.0166862280815E+00
(PID.TID 0000.0001) %MON dynstat_theta_mean           =   3.5921663317434E+00
(PID.TID 0000.0001) %MON dynstat_theta_sd             =   4.4421302671310E+00
(PID.TID 0000.0001) %MON dynstat_theta_del2           =   1.1944114214698E-04
(PID.TID 0000.0001) %MON dynstat_salt_max             =   4.0655994669686E+01
(PID.TID 0000.0001) %MON dynstat_salt_min             =   1.6184843154812E+01
(PID.TID 0000.0001) %MON dynstat_salt_mean            =   3.4724844862491E+01
(PID.TID 0000.0001) %MON dynstat_salt_sd              =   3.7959134356361E-01
(PID.TID 0000.0001) %MON dynstat_salt_del2            =   7.2726238457323E-05
(PID.TID 0000.0001) %MON dynstat_sst_max              =   3.2483157051477E+01
(PID.TID 0000.0001) %MON dynstat_sst_min              =  -2.0166862280815E+00
(PID.TID 0000.0001) %MON dynstat_sst_mean             =   1.8174578241178E+01
(PID.TID 0000.0001) %MON dynstat_sst_sd               =   1.0154292474333E+01
(PID.TID 0000.0001) %MON dynstat_sst_del2             =   1.1335061746059E-03
(PID.TID 0000.0001) %MON dynstat_sss_max              =   3.9472296556037E+01
(PID.TID 0000.0001) %MON dynstat_sss_min              =   1.6184843154812E+01
(PID.TID 0000.0001) %MON dynstat_sss_mean             =   3.4649769873397E+01
(PID.TID 0000.0001) %MON dynstat_sss_sd               =   1.2874831702839E+00
(PID.TID 0000.0001) %MON dynstat_sss_del2             =   1.4451360154493E-03
(PID.TID 0000.0001) %MON forcing_qnet_max             =   3.0694980468750E+03
(PID.TID 0000.0001) %MON forcing_qnet_min             =  -2.1399677309940E+03
(PID.TID 0000.0001) %MON forcing_qnet_mean            =  -3.5342539548627E+00
(PID.TID 0000.0001) %MON forcing_qnet_sd              =   2.3228985933745E+02
(PID.TID 0000.0001) %MON forcing_qnet_del2            =   6.5110296736045E-01
(PID.TID 0000.0001) %MON forcing_qsw_max              =   0.0000000000000E+00
(PID.TID 0000.0001) %MON forcing_qsw_min              =  -1.1041656511940E+02
(PID.TID 0000.0001) %MON forcing_qsw_mean             =  -1.7156303712820E+01
(PID.TID 0000.0001) %MON forcing_qsw_sd               =   2.9919967966892E+01
(PID.TID 0000.0001) %MON forcing_qsw_del2             =   2.2231493743713E-02
(PID.TID 0000.0001) %MON forcing_empmr_max            =   2.7171170338988E-02
(PID.TID 0000.0001) %MON forcing_empmr_min            =  -4.5552290976048E-02
(PID.TID 0000.0001) %MON forcing_empmr_mean           =   8.8581604372358E-06
(PID.TID 0000.0001) %MON forcing_empmr_sd             =   4.0534883884690E-04
(PID.TID 0000.0001) %MON forcing_empmr_del2           =   4.5275406613587E-06
(PID.TID 0000.0001) %MON forcing_fu_max               =   1.0923573997675E+00
(PID.TID 0000.0001) %MON forcing_fu_min               =  -7.7138697168558E-01
(PID.TID 0000.0001) %MON forcing_fu_mean              =   9.2708782414172E-03
(PID.TID 0000.0001) %MON forcing_fu_sd                =   1.1835049149786E-01
(PID.TID 0000.0001) %MON forcing_fu_del2              =   1.5042216873390E-04
(PID.TID 0000.0001) %MON forcing_fv_max               =   8.4240867420018E-01
(PID.TID 0000.0001) %MON forcing_fv_min               =  -1.6966465332146E+00
(PID.TID 0000.0001) %MON forcing_fv_mean              =  -2.0322021219602E-03
(PID.TID 0000.0001) %MON forcing_fv_sd                =   1.0732016832610E-01
(PID.TID 0000.0001) %MON forcing_fv_del2              =   1.4974595771122E-04
(PID.TID 0000.0001) %MON trAdv_CFL_u_max              =   2.4263884731005E-02
(PID.TID 0000.0001) %MON trAdv_CFL_v_max              =   1.9751965624048E-02
(PID.TID 0000.0001) %MON trAdv_CFL_w_max              =   1.1094562704712E-01
(PID.TID 0000.0001) %MON advcfl_uvel_max              =   2.4588447989007E-02
(PID.TID 0000.0001) %MON advcfl_vvel_max              =   1.9751499622605E-02
(PID.TID 0000.0001) %MON advcfl_wvel_max              =   1.1764388410385E-01
(PID.TID 0000.0001) %MON advcfl_W_hf_max              =   1.1094562704712E-01
(PID.TID 0000.0001) %MON pe_b_mean                    =   1.9085036873729E-03
(PID.TID 0000.0001) %MON ke_max                       =   2.3582917377950E+00
(PID.TID 0000.0001) %MON ke_mean                      =   9.1729079227979E-04
(PID.TID 0000.0001) %MON ke_vol                       =   1.3350064351420E+18
(PID.TID 0000.0001) %MON vort_r_min                   =  -9.0061191249962E-05
(PID.TID 0000.0001) %MON vort_r_max                   =   8.7484569963983E-05
(PID.TID 0000.0001) %MON vort_a_mean                  =  -1.9725068782188E-05
(PID.TID 0000.0001) %MON vort_a_sd                    =   7.4539198058472E-05
(PID.TID 0000.0001) %MON vort_p_mean                  =  -2.1669072944234E-05
(PID.TID 0000.0001) %MON vort_p_sd                    =   9.3607649149951E-05
(PID.TID 0000.0001) %MON surfExpan_theta_mean         =   7.9638430321285E-06
(PID.TID 0000.0001) %MON surfExpan_salt_mean          =   9.0180831003011E-06
(PID.TID 0000.0001) // =======================================================
(PID.TID 0000.0001) // End MONITOR dynamic field statistics
(PID.TID 0000.0001) // =======================================================
(PID.TID 0000.0001) // =======================================================
(PID.TID 0000.0001) // Begin MONITOR SEAICE statistics
(PID.TID 0000.0001) // =======================================================
(PID.TID 0000.0001) %MON seaice_tsnumber              =                174700
(PID.TID 0000.0001) %MON seaice_time_sec              =   7.8615000000000E+07
(PID.TID 0000.0001) %MON seaice_uice_max              =   1.4596893587197E+00
(PID.TID 0000.0001) %MON seaice_uice_min              =  -1.7123281975593E+00
(PID.TID 0000.0001) %MON seaice_uice_mean             =   1.1828030288864E-03
(PID.TID 0000.0001) %MON seaice_uice_sd               =   1.5829974737408E-01
(PID.TID 0000.0001) %MON seaice_uice_del2             =   3.3208081691036E-04
(PID.TID 0000.0001) %MON seaice_vice_max              =   1.6475227464620E+00
(PID.TID 0000.0001) %MON seaice_vice_min              =  -1.6841562935721E+00
(PID.TID 0000.0001) %MON seaice_vice_mean             =  -2.4851293883459E-02
(PID.TID 0000.0001) %MON seaice_vice_sd               =   1.6466184455966E-01
(PID.TID 0000.0001) %MON seaice_vice_del2             =   3.1850062043392E-04
(PID.TID 0000.0001) %MON seaice_area_max              =   1.0095728551835E+00
(PID.TID 0000.0001) %MON seaice_area_min              =   0.0000000000000E+00
(PID.TID 0000.0001) %MON seaice_area_mean             =   5.7277066235095E-02
(PID.TID 0000.0001) %MON seaice_area_sd               =   2.2160356585918E-01
(PID.TID 0000.0001) %MON seaice_area_del2             =   3.1573936331977E-04
(PID.TID 0000.0001) %MON seaice_heff_max              =   9.9491847521711E+00
(PID.TID 0000.0001) %MON seaice_heff_min              =   0.0000000000000E+00
(PID.TID 0000.0001) %MON seaice_heff_mean             =   1.5003774288669E-01
(PID.TID 0000.0001) %MON seaice_heff_sd               =   7.2153199463769E-01
(PID.TID 0000.0001) %MON seaice_heff_del2             =   1.4740850242553E-03
(PID.TID 0000.0001) %MON seaice_hsnow_max             =   3.2862457288625E+00
(PID.TID 0000.0001) %MON seaice_hsnow_min             =   0.0000000000000E+00
(PID.TID 0000.0001) %MON seaice_hsnow_mean            =   1.2732526871547E-02
(PID.TID 0000.0001) %MON seaice_hsnow_sd              =   6.9130987306678E-02
(PID.TID 0000.0001) %MON seaice_hsnow_del2            =   4.1147602498071E-04
(PID.TID 0000.0001) // =======================================================
(PID.TID 0000.0001) // End MONITOR SEAICE statistics
(PID.TID 0000.0001) // =======================================================
(PID.TID 0000.0001) // =======================================================
(PID.TID 0000.0001) // Begin MONITOR dynamic field statistics
(PID.TID 0000.0001) // =======================================================
(PID.TID 0000.0001) %MON time_tsnumber                =                174701
(PID.TID 0000.0001) %MON time_secondsf                =   7.8615450000000E+07
(PID.TID 0000.0001) %MON dynstat_eta_max              =   2.9747675232945E+00
(PID.TID 0000.0001) %MON dynstat_eta_min              =  -1.1290111112748E+01
(PID.TID 0000.0001) %MON dynstat_eta_mean             =   6.6945509826758E-02
(PID.TID 0000.0001) %MON dynstat_eta_sd               =   8.4261528107763E-01
(PID.TID 0000.0001) %MON dynstat_eta_del2             =   2.0250314989745E-03
(PID.TID 0000.0001) %MON dynstat_uvel_max             =   1.6137239417913E+00
(PID.TID 0000.0001) %MON dynstat_uvel_min             =  -2.3674029804667E+00
(PID.TID 0000.0001) %MON dynstat_uvel_mean            =   1.5175631095574E-03
(PID.TID 0000.0001) %MON dynstat_uvel_sd              =   3.0786378791955E-02
(PID.TID 0000.0001) %MON dynstat_uvel_del2            =   2.9634622288973E-05
(PID.TID 0000.0001) %MON dynstat_vvel_max             =   1.6767974096686E+00
(PID.TID 0000.0001) %MON dynstat_vvel_min             =  -2.2208790935813E+00
(PID.TID 0000.0001) %MON dynstat_vvel_mean            =   5.8111277073847E-04
(PID.TID 0000.0001) %MON dynstat_vvel_sd              =   3.0813224857618E-02
(PID.TID 0000.0001) %MON dynstat_vvel_del2            =   2.8573087965420E-05
(PID.TID 0000.0001) %MON dynstat_wvel_max             =   9.2147540794955E-03
(PID.TID 0000.0001) %MON dynstat_wvel_min             =  -1.1127948851982E-02
(PID.TID 0000.0001) %MON dynstat_wvel_mean            =   2.2422149121690E-07
(PID.TID 0000.0001) %MON dynstat_wvel_sd              =   8.8729607937256E-05
(PID.TID 0000.0001) %MON dynstat_wvel_del2            =   1.9688024708073E-07
(PID.TID 0000.0001) %MON dynstat_theta_max            =   3.2485390850602E+01
(PID.TID 0000.0001) %MON dynstat_theta_min            =  -2.0171512269323E+00
(PID.TID 0000.0001) %MON dynstat_theta_mean           =   3.5921654258874E+00
(PID.TID 0000.0001) %MON dynstat_theta_sd             =   4.4421303919458E+00
(PID.TID 0000.0001) %MON dynstat_theta_del2           =   1.1949074069413E-04
(PID.TID 0000.0001) %MON dynstat_salt_max             =   4.0655994587506E+01
(PID.TID 0000.0001) %MON dynstat_salt_min             =   1.6182791838105E+01
(PID.TID 0000.0001) %MON dynstat_salt_mean            =   3.4724844496440E+01
(PID.TID 0000.0001) %MON dynstat_salt_sd              =   3.7959272184322E-01
(PID.TID 0000.0001) %MON dynstat_salt_del2            =   7.2629908219958E-05
(PID.TID 0000.0001) %MON dynstat_sst_max              =   3.2485390850602E+01
(PID.TID 0000.0001) %MON dynstat_sst_min              =  -2.0171512269323E+00
(PID.TID 0000.0001) %MON dynstat_sst_mean             =   1.8174664956782E+01
(PID.TID 0000.0001) %MON dynstat_sst_sd               =   1.0154583354293E+01
(PID.TID 0000.0001) %MON dynstat_sst_del2             =   1.1329213109091E-03
(PID.TID 0000.0001) %MON dynstat_sss_max              =   3.9472164080577E+01
(PID.TID 0000.0001) %MON dynstat_sss_min              =   1.6182791838105E+01
(PID.TID 0000.0001) %MON dynstat_sss_mean             =   3.4649689645686E+01
(PID.TID 0000.0001) %MON dynstat_sss_sd               =   1.2876193713338E+00
(PID.TID 0000.0001) %MON dynstat_sss_del2             =   1.4451626790319E-03
(PID.TID 0000.0001) %MON forcing_qnet_max             =   3.1177634277344E+03
(PID.TID 0000.0001) %MON forcing_qnet_min             =  -2.1441511230469E+03
(PID.TID 0000.0001) %MON forcing_qnet_mean            =  -5.9066038787357E+00
(PID.TID 0000.0001) %MON forcing_qnet_sd              =   2.3305857884883E+02
(PID.TID 0000.0001) %MON forcing_qnet_del2            =   6.5560128710680E-01
(PID.TID 0000.0001) %MON forcing_qsw_max              =   0.0000000000000E+00
(PID.TID 0000.0001) %MON forcing_qsw_min              =  -1.1085074588725E+02
(PID.TID 0000.0001) %MON forcing_qsw_mean             =  -1.7547972974188E+01
(PID.TID 0000.0001) %MON forcing_qsw_sd               =   3.0178063435449E+01
(PID.TID 0000.0001) %MON forcing_qsw_del2             =   2.2159880120465E-02
(PID.TID 0000.0001) %MON forcing_empmr_max            =   2.7433257550001E-02
(PID.TID 0000.0001) %MON forcing_empmr_min            =  -4.5301374047995E-02
(PID.TID 0000.0001) %MON forcing_empmr_mean           =   8.6983945356855E-06
(PID.TID 0000.0001) %MON forcing_empmr_sd             =   4.0829245459884E-04
(PID.TID 0000.0001) %MON forcing_empmr_del2           =   4.5925042751383E-06
(PID.TID 0000.0001) %MON forcing_fu_max               =   1.0994208468289E+00
(PID.TID 0000.0001) %MON forcing_fu_min               =  -7.8299451310988E-01
(PID.TID 0000.0001) %MON forcing_fu_mean              =   9.3144953603658E-03
(PID.TID 0000.0001) %MON forcing_fu_sd                =   1.1845224496193E-01
(PID.TID 0000.0001) %MON forcing_fu_del2              =   1.5072231286697E-04
(PID.TID 0000.0001) %MON forcing_fv_max               =   8.4841763446985E-01
(PID.TID 0000.0001) %MON forcing_fv_min               =  -1.6835227862577E+00
(PID.TID 0000.0001) %MON forcing_fv_mean              =  -2.0370826619587E-03
(PID.TID 0000.0001) %MON forcing_fv_sd                =   1.0725671085147E-01
(PID.TID 0000.0001) %MON forcing_fv_del2              =   1.5028190504396E-04
(PID.TID 0000.0001) %MON trAdv_CFL_u_max              =   2.4418954303994E-02
(PID.TID 0000.0001) %MON trAdv_CFL_v_max              =   1.9711771034545E-02
(PID.TID 0000.0001) %MON trAdv_CFL_w_max              =   1.1224543661564E-01
(PID.TID 0000.0001) %MON advcfl_uvel_max              =   2.4745591833548E-02
(PID.TID 0000.0001) %MON advcfl_vvel_max              =   1.9711305981398E-02
(PID.TID 0000.0001) %MON advcfl_wvel_max              =   1.1285045806467E-01
(PID.TID 0000.0001) %MON advcfl_W_hf_max              =   1.1224543661564E-01
(PID.TID 0000.0001) %MON pe_b_mean                    =   1.9104639786925E-03
(PID.TID 0000.0001) %MON ke_max                       =   2.3320350315944E+00
(PID.TID 0000.0001) %MON ke_mean                      =   9.1611282035213E-04
(PID.TID 0000.0001) %MON ke_vol                       =   1.3350064351420E+18
(PID.TID 0000.0001) %MON vort_r_min                   =  -8.8843000997540E-05
(PID.TID 0000.0001) %MON vort_r_max                   =   8.8015377156028E-05
(PID.TID 0000.0001) %MON vort_a_mean                  =  -1.9725068547074E-05
(PID.TID 0000.0001) %MON vort_a_sd                    =   7.4539190918851E-05
(PID.TID 0000.0001) %MON vort_p_mean                  =  -2.1669072685949E-05
(PID.TID 0000.0001) %MON vort_p_sd                    =   9.3607602791830E-05
(PID.TID 0000.0001) %MON surfExpan_theta_mean         =   8.1784881915288E-06
(PID.TID 0000.0001) %MON surfExpan_salt_mean          =   8.6534782311547E-06
(PID.TID 0000.0001) // =======================================================
(PID.TID 0000.0001) // End MONITOR dynamic field statistics
(PID.TID 0000.0001) // =======================================================
(PID.TID 0000.0001) // =======================================================
(PID.TID 0000.0001) // Begin MONITOR SEAICE statistics
(PID.TID 0000.0001) // =======================================================
(PID.TID 0000.0001) %MON seaice_tsnumber              =                174701
(PID.TID 0000.0001) %MON seaice_time_sec              =   7.8615450000000E+07
(PID.TID 0000.0001) %MON seaice_uice_max              =   1.4418971542470E+00
(PID.TID 0000.0001) %MON seaice_uice_min              =  -1.7066001032325E+00
(PID.TID 0000.0001) %MON seaice_uice_mean             =   1.1483120352203E-03
(PID.TID 0000.0001) %MON seaice_uice_sd               =   1.5812609678526E-01
(PID.TID 0000.0001) %MON seaice_uice_del2             =   3.3151191427135E-04
(PID.TID 0000.0001) %MON seaice_vice_max              =   1.6514097850582E+00
(PID.TID 0000.0001) %MON seaice_vice_min              =  -1.6718557971341E+00
(PID.TID 0000.0001) %MON seaice_vice_mean             =  -2.4878954889174E-02
(PID.TID 0000.0001) %MON seaice_vice_sd               =   1.6447974590485E-01
(PID.TID 0000.0001) %MON seaice_vice_del2             =   3.1801351645647E-04
(PID.TID 0000.0001) %MON seaice_area_max              =   1.0094943120616E+00
(PID.TID 0000.0001) %MON seaice_area_min              =   0.0000000000000E+00
(PID.TID 0000.0001) %MON seaice_area_mean             =   5.7278538487823E-02
(PID.TID 0000.0001) %MON seaice_area_sd               =   2.2159837206549E-01
(PID.TID 0000.0001) %MON seaice_area_del2             =   3.1525543123049E-04
(PID.TID 0000.0001) %MON seaice_heff_max              =   9.9491752646335E+00
(PID.TID 0000.0001) %MON seaice_heff_min              =   0.0000000000000E+00
(PID.TID 0000.0001) %MON seaice_heff_mean             =   1.5003432434911E-01
(PID.TID 0000.0001) %MON seaice_heff_sd               =   7.2152103988214E-01
(PID.TID 0000.0001) %MON seaice_heff_del2             =   1.4725377648750E-03
(PID.TID 0000.0001) %MON seaice_hsnow_max             =   3.2862424040180E+00
(PID.TID 0000.0001) %MON seaice_hsnow_min             =   0.0000000000000E+00
(PID.TID 0000.0001) %MON seaice_hsnow_mean            =   1.2731747990763E-02
(PID.TID 0000.0001) %MON seaice_hsnow_sd              =   6.9120872152107E-02
(PID.TID 0000.0001) %MON seaice_hsnow_del2            =   4.1096742208850E-04
(PID.TID 0000.0001) // =======================================================
(PID.TID 0000.0001) // End MONITOR SEAICE statistics
(PID.TID 0000.0001) // =======================================================
(PID.TID 0000.0001) // =======================================================
(PID.TID 0000.0001) // Begin MONITOR dynamic field statistics
(PID.TID 0000.0001) // =======================================================
(PID.TID 0000.0001) %MON time_tsnumber                =                174702
(PID.TID 0000.0001) %MON time_secondsf                =   7.8615900000000E+07
(PID.TID 0000.0001) %MON dynstat_eta_max              =   2.9850048401137E+00
(PID.TID 0000.0001) %MON dynstat_eta_min              =  -1.1423634887412E+01
(PID.TID 0000.0001) %MON dynstat_eta_mean             =   6.7039196990184E-02
(PID.TID 0000.0001) %MON dynstat_eta_sd               =   8.4301778355777E-01
(PID.TID 0000.0001) %MON dynstat_eta_del2             =   2.0250750335950E-03
(PID.TID 0000.0001) %MON dynstat_uvel_max             =   1.6120376075094E+00
(PID.TID 0000.0001) %MON dynstat_uvel_min             =  -2.3826621622095E+00
(PID.TID 0000.0001) %MON dynstat_uvel_mean            =   1.4926613275788E-03
(PID.TID 0000.0001) %MON dynstat_uvel_sd              =   3.0744667093872E-02
(PID.TID 0000.0001) %MON dynstat_uvel_del2            =   2.9730537971650E-05
(PID.TID 0000.0001) %MON dynstat_vvel_max             =   1.6767506416382E+00
(PID.TID 0000.0001) %MON dynstat_vvel_min             =  -2.2162781533361E+00
(PID.TID 0000.0001) %MON dynstat_vvel_mean            =   5.6459386777845E-04
(PID.TID 0000.0001) %MON dynstat_vvel_sd              =   3.0815227167453E-02
(PID.TID 0000.0001) %MON dynstat_vvel_del2            =   2.8667019557751E-05
(PID.TID 0000.0001) %MON dynstat_wvel_max             =   9.1857800935617E-03
(PID.TID 0000.0001) %MON dynstat_wvel_min             =  -1.1105338267960E-02
(PID.TID 0000.0001) %MON dynstat_wvel_mean            =   2.1392067184344E-07
(PID.TID 0000.0001) %MON dynstat_wvel_sd              =   8.8928109079979E-05
(PID.TID 0000.0001) %MON dynstat_wvel_del2            =   1.9766101887871E-07
(PID.TID 0000.0001) %MON dynstat_theta_max            =   3.2487497021935E+01
(PID.TID 0000.0001) %MON dynstat_theta_min            =  -2.0176183750413E+00
(PID.TID 0000.0001) %MON dynstat_theta_mean           =   3.5921644970499E+00
(PID.TID 0000.0001) %MON dynstat_theta_sd             =   4.4421306970567E+00
(PID.TID 0000.0001) %MON dynstat_theta_del2           =   1.1954217192413E-04
(PID.TID 0000.0001) %MON dynstat_salt_max             =   4.0655994505007E+01
(PID.TID 0000.0001) %MON dynstat_salt_min             =   1.6180912836183E+01
(PID.TID 0000.0001) %MON dynstat_salt_mean            =   3.4724844109523E+01
(PID.TID 0000.0001) %MON dynstat_salt_sd              =   3.7959420578089E-01
(PID.TID 0000.0001) %MON dynstat_salt_del2            =   7.2534869909734E-05
(PID.TID 0000.0001) %MON dynstat_sst_max              =   3.2487497021935E+01
(PID.TID 0000.0001) %MON dynstat_sst_min              =  -2.0176183750413E+00
(PID.TID 0000.0001) %MON dynstat_sst_mean             =   1.8174763793629E+01
(PID.TID 0000.0001) %MON dynstat_sst_sd               =   1.0154881144152E+01
(PID.TID 0000.0001) %MON dynstat_sst_del2             =   1.1324350337875E-03
(PID.TID 0000.0001) %MON dynstat_sss_max              =   3.9472070173320E+01
(PID.TID 0000.0001) %MON dynstat_sss_min              =   1.6180912836183E+01
(PID.TID 0000.0001) %MON dynstat_sss_mean             =   3.4649608341187E+01
(PID.TID 0000.0001) %MON dynstat_sss_sd               =   1.2877552520999E+00
(PID.TID 0000.0001) %MON dynstat_sss_del2             =   1.4452646972331E-03
(PID.TID 0000.0001) %MON forcing_qnet_max             =   3.3772387695312E+03
(PID.TID 0000.0001) %MON forcing_qnet_min             =  -1.8263437694894E+03
(PID.TID 0000.0001) %MON forcing_qnet_mean            =  -6.4222987393083E+00
(PID.TID 0000.0001) %MON forcing_qnet_sd              =   2.3352544806000E+02
(PID.TID 0000.0001) %MON forcing_qnet_del2            =   6.6308135850441E-01
(PID.TID 0000.0001) %MON forcing_qsw_max              =   0.0000000000000E+00
(PID.TID 0000.0001) %MON forcing_qsw_min              =  -1.1082885748121E+02
(PID.TID 0000.0001) %MON forcing_qsw_mean             =  -1.7669072516014E+01
(PID.TID 0000.0001) %MON forcing_qsw_sd               =   3.0222466312325E+01
(PID.TID 0000.0001) %MON forcing_qsw_del2             =   2.2213646002483E-02
(PID.TID 0000.0001) %MON forcing_empmr_max            =   2.7645122259855E-02
(PID.TID 0000.0001) %MON forcing_empmr_min            =  -4.6240016818047E-02
(PID.TID 0000.0001) %MON forcing_empmr_mean           =   8.3863842048399E-06
(PID.TID 0000.0001) %MON forcing_empmr_sd             =   4.1376825813207E-04
(PID.TID 0000.0001) %MON forcing_empmr_del2           =   4.5402117440231E-06
(PID.TID 0000.0001) %MON forcing_fu_max               =   1.1063125981173E+00
(PID.TID 0000.0001) %MON forcing_fu_min               =  -7.9324123395811E-01
(PID.TID 0000.0001) %MON forcing_fu_mean              =   9.3588418676193E-03
(PID.TID 0000.0001) %MON forcing_fu_sd                =   1.1853436609689E-01
(PID.TID 0000.0001) %MON forcing_fu_del2              =   1.5098594519266E-04
(PID.TID 0000.0001) %MON forcing_fv_max               =   8.4631213156734E-01
(PID.TID 0000.0001) %MON forcing_fv_min               =  -1.6621443980649E+00
(PID.TID 0000.0001) %MON forcing_fv_mean              =  -2.0450713749526E-03
(PID.TID 0000.0001) %MON forcing_fv_sd                =   1.0718096345428E-01
(PID.TID 0000.0001) %MON forcing_fv_del2              =   1.5102063041469E-04
(PID.TID 0000.0001) %MON trAdv_CFL_u_max              =   2.4576347559289E-02
(PID.TID 0000.0001) %MON trAdv_CFL_v_max              =   1.9670934646413E-02
(PID.TID 0000.0001) %MON trAdv_CFL_w_max              =   1.1348984005844E-01
(PID.TID 0000.0001) %MON advcfl_uvel_max              =   2.4905090442883E-02
(PID.TID 0000.0001) %MON advcfl_vvel_max              =   1.9670470556706E-02
(PID.TID 0000.0001) %MON advcfl_wvel_max              =   1.0781481454974E-01
(PID.TID 0000.0001) %MON advcfl_W_hf_max              =   1.1348984005844E-01
(PID.TID 0000.0001) %MON pe_b_mean                    =   1.9122816930487E-03
(PID.TID 0000.0001) %MON ke_max                       =   2.3065840332767E+00
(PID.TID 0000.0001) %MON ke_mean                      =   9.1488966601851E-04
(PID.TID 0000.0001) %MON ke_vol                       =   1.3350064351420E+18
(PID.TID 0000.0001) %MON vort_r_min                   =  -8.7091728915205E-05
(PID.TID 0000.0001) %MON vort_r_max                   =   8.8564989450980E-05
(PID.TID 0000.0001) %MON vort_a_mean                  =  -1.9725068297468E-05
(PID.TID 0000.0001) %MON vort_a_sd                    =   7.4539182902832E-05
(PID.TID 0000.0001) %MON vort_p_mean                  =  -2.1669072411743E-05
(PID.TID 0000.0001) %MON vort_p_sd                    =   9.3607555859753E-05
(PID.TID 0000.0001) %MON surfExpan_theta_mean         =   8.4408330565830E-06
(PID.TID 0000.0001) %MON surfExpan_salt_mean          =   8.2251750206392E-06
(PID.TID 0000.0001) // =======================================================
(PID.TID 0000.0001) // End MONITOR dynamic field statistics
(PID.TID 0000.0001) // =======================================================
(PID.TID 0000.0001) // =======================================================
(PID.TID 0000.0001) // Begin MONITOR SEAICE statistics
(PID.TID 0000.0001) // =======================================================
(PID.TID 0000.0001) %MON seaice_tsnumber              =                174702
(PID.TID 0000.0001) %MON seaice_time_sec              =   7.8615900000000E+07
(PID.TID 0000.0001) %MON seaice_uice_max              =   1.4242443349172E+00
(PID.TID 0000.0001) %MON seaice_uice_min              =  -1.6771901898221E+00
(PID.TID 0000.0001) %MON seaice_uice_mean             =   1.1076229294312E-03
(PID.TID 0000.0001) %MON seaice_uice_sd               =   1.5795403272123E-01
(PID.TID 0000.0001) %MON seaice_uice_del2             =   3.3091855766637E-04
(PID.TID 0000.0001) %MON seaice_vice_max              =   1.6537510028698E+00
(PID.TID 0000.0001) %MON seaice_vice_min              =  -1.6603452846485E+00
(PID.TID 0000.0001) %MON seaice_vice_mean             =  -2.4919826401216E-02
(PID.TID 0000.0001) %MON seaice_vice_sd               =   1.6430199188586E-01
(PID.TID 0000.0001) %MON seaice_vice_del2             =   3.1753749126524E-04
(PID.TID 0000.0001) %MON seaice_area_max              =   1.0094103727884E+00
(PID.TID 0000.0001) %MON seaice_area_min              =   0.0000000000000E+00
(PID.TID 0000.0001) %MON seaice_area_mean             =   5.7280000326881E-02
(PID.TID 0000.0001) %MON seaice_area_sd               =   2.2159313043956E-01
(PID.TID 0000.0001) %MON seaice_area_del2             =   3.1478350934480E-04
(PID.TID 0000.0001) %MON seaice_heff_max              =   9.9491715187895E+00
(PID.TID 0000.0001) %MON seaice_heff_min              =   0.0000000000000E+00
(PID.TID 0000.0001) %MON seaice_heff_mean             =   1.5003089689580E-01
(PID.TID 0000.0001) %MON seaice_heff_sd               =   7.2151006505499E-01
(PID.TID 0000.0001) %MON seaice_heff_del2             =   1.4710303383823E-03
(PID.TID 0000.0001) %MON seaice_hsnow_max             =   3.2862414741568E+00
(PID.TID 0000.0001) %MON seaice_hsnow_min             =   0.0000000000000E+00
(PID.TID 0000.0001) %MON seaice_hsnow_mean            =   1.2730966012809E-02
(PID.TID 0000.0001) %MON seaice_hsnow_sd              =   6.9110875260200E-02
(PID.TID 0000.0001) %MON seaice_hsnow_del2            =   4.1047344531599E-04
(PID.TID 0000.0001) // =======================================================
(PID.TID 0000.0001) // End MONITOR SEAICE statistics
(PID.TID 0000.0001) // =======================================================
(PID.TID 0000.0001) // =======================================================
(PID.TID 0000.0001) // Begin MONITOR dynamic field statistics
(PID.TID 0000.0001) // =======================================================
(PID.TID 0000.0001) %MON time_tsnumber                =                174703
(PID.TID 0000.0001) %MON time_secondsf                =   7.8616350000000E+07
(PID.TID 0000.0001) %MON dynstat_eta_max              =   3.0143930423985E+00
(PID.TID 0000.0001) %MON dynstat_eta_min              =  -1.1536247244410E+01
(PID.TID 0000.0001) %MON dynstat_eta_mean             =   6.7124535888957E-02
(PID.TID 0000.0001) %MON dynstat_eta_sd               =   8.4342241520472E-01
(PID.TID 0000.0001) %MON dynstat_eta_del2             =   2.0250299188268E-03
(PID.TID 0000.0001) %MON dynstat_uvel_max             =   1.6102334021517E+00
(PID.TID 0000.0001) %MON dynstat_uvel_min             =  -2.3981632578993E+00
(PID.TID 0000.0001) %MON dynstat_uvel_mean            =   1.4670730147462E-03
(PID.TID 0000.0001) %MON dynstat_uvel_sd              =   3.0705140507959E-02
(PID.TID 0000.0001) %MON dynstat_uvel_del2            =   2.9828653174018E-05
(PID.TID 0000.0001) %MON dynstat_vvel_max             =   1.6751509990709E+00
(PID.TID 0000.0001) %MON dynstat_vvel_min             =  -2.2116861573609E+00
(PID.TID 0000.0001) %MON dynstat_vvel_mean            =   5.5087570446388E-04
(PID.TID 0000.0001) %MON dynstat_vvel_sd              =   3.0813736907711E-02
(PID.TID 0000.0001) %MON dynstat_vvel_del2            =   2.8762404312259E-05
(PID.TID 0000.0001) %MON dynstat_wvel_max             =   9.1512855523274E-03
(PID.TID 0000.0001) %MON dynstat_wvel_min             =  -1.1079915294625E-02
(PID.TID 0000.0001) %MON dynstat_wvel_mean            =   2.0315506449885E-07
(PID.TID 0000.0001) %MON dynstat_wvel_sd              =   8.9137434037734E-05
(PID.TID 0000.0001) %MON dynstat_wvel_del2            =   1.9844803532776E-07
(PID.TID 0000.0001) %MON dynstat_theta_max            =   3.2489595988566E+01
(PID.TID 0000.0001) %MON dynstat_theta_min            =  -2.0180835925649E+00
(PID.TID 0000.0001) %MON dynstat_theta_mean           =   3.5921635441912E+00
(PID.TID 0000.0001) %MON dynstat_theta_sd             =   4.4421311958342E+00
(PID.TID 0000.0001) %MON dynstat_theta_del2           =   1.1959405691635E-04
(PID.TID 0000.0001) %MON dynstat_salt_max             =   4.0655994422269E+01
(PID.TID 0000.0001) %MON dynstat_salt_min             =   1.6179219519090E+01
(PID.TID 0000.0001) %MON dynstat_salt_mean            =   3.4724843707657E+01
(PID.TID 0000.0001) %MON dynstat_salt_sd              =   3.7959579510489E-01
(PID.TID 0000.0001) %MON dynstat_salt_del2            =   7.2441078779499E-05
(PID.TID 0000.0001) %MON dynstat_sst_max              =   3.2489595988566E+01
(PID.TID 0000.0001) %MON dynstat_sst_min              =  -2.0180835925649E+00
(PID.TID 0000.0001) %MON dynstat_sst_mean             =   1.8174869280250E+01
(PID.TID 0000.0001) %MON dynstat_sst_sd               =   1.0155182133635E+01
(PID.TID 0000.0001) %MON dynstat_sst_del2             =   1.1319172635084E-03
(PID.TID 0000.0001) %MON dynstat_sss_max              =   3.9472020232935E+01
(PID.TID 0000.0001) %MON dynstat_sss_min              =   1.6179219519090E+01
(PID.TID 0000.0001) %MON dynstat_sss_mean             =   3.4649528016919E+01
(PID.TID 0000.0001) %MON dynstat_sss_sd               =   1.2878906189367E+00
(PID.TID 0000.0001) %MON dynstat_sss_del2             =   1.4453190333346E-03
(PID.TID 0000.0001) %MON forcing_qnet_max             =   3.1610649414062E+03
(PID.TID 0000.0001) %MON forcing_qnet_min             =  -1.7034722579365E+03
(PID.TID 0000.0001) %MON forcing_qnet_mean            =  -7.0763336478921E+00
(PID.TID 0000.0001) %MON forcing_qnet_sd              =   2.3283127046699E+02
(PID.TID 0000.0001) %MON forcing_qnet_del2            =   6.3051033141666E-01
(PID.TID 0000.0001) %MON forcing_qsw_max              =   0.0000000000000E+00
(PID.TID 0000.0001) %MON forcing_qsw_min              =  -1.1069302704771E+02
(PID.TID 0000.0001) %MON forcing_qsw_mean             =  -1.7782568048237E+01
(PID.TID 0000.0001) %MON forcing_qsw_sd               =   3.0249512548531E+01
(PID.TID 0000.0001) %MON forcing_qsw_del2             =   2.2257739990569E-02
(PID.TID 0000.0001) %MON forcing_empmr_max            =   2.7823586016893E-02
(PID.TID 0000.0001) %MON forcing_empmr_min            =  -4.5127473771572E-02
(PID.TID 0000.0001) %MON forcing_empmr_mean           =   8.8762586050438E-06
(PID.TID 0000.0001) %MON forcing_empmr_sd             =   4.2352308588397E-04
(PID.TID 0000.0001) %MON forcing_empmr_del2           =   4.5067034586221E-06
(PID.TID 0000.0001) %MON forcing_fu_max               =   1.1129868020001E+00
(PID.TID 0000.0001) %MON forcing_fu_min               =  -8.0155819844262E-01
(PID.TID 0000.0001) %MON forcing_fu_mean              =   9.4007383259645E-03
(PID.TID 0000.0001) %MON forcing_fu_sd                =   1.1861532894570E-01
(PID.TID 0000.0001) %MON forcing_fu_del2              =   1.5123042995802E-04
(PID.TID 0000.0001) %MON forcing_fv_max               =   8.4472276441351E-01
(PID.TID 0000.0001) %MON forcing_fv_min               =  -1.6353139272111E+00
(PID.TID 0000.0001) %MON forcing_fv_mean              =  -2.0515614811795E-03
(PID.TID 0000.0001) %MON forcing_fv_sd                =   1.0712667327123E-01
(PID.TID 0000.0001) %MON forcing_fv_del2              =   1.5162163151094E-04
(PID.TID 0000.0001) %MON trAdv_CFL_u_max              =   2.4736236074441E-02
(PID.TID 0000.0001) %MON trAdv_CFL_v_max              =   1.9630177644596E-02
(PID.TID 0000.0001) %MON trAdv_CFL_w_max              =   1.1467852198363E-01
(PID.TID 0000.0001) %MON advcfl_uvel_max              =   2.5067117689651E-02
(PID.TID 0000.0001) %MON advcfl_vvel_max              =   1.9629714516455E-02
(PID.TID 0000.0001) %MON advcfl_wvel_max              =   1.0893263941732E-01
(PID.TID 0000.0001) %MON advcfl_W_hf_max              =   1.1467852198363E-01
(PID.TID 0000.0001) %MON pe_b_mean                    =   1.9139255661469E-03
(PID.TID 0000.0001) %MON ke_max                       =   2.2821300840486E+00
(PID.TID 0000.0001) %MON ke_mean                      =   9.1363045478489E-04
(PID.TID 0000.0001) %MON ke_vol                       =   1.3350064351420E+18
(PID.TID 0000.0001) %MON vort_r_min                   =  -8.7364124836275E-05
(PID.TID 0000.0001) %MON vort_r_max                   =   8.9134032901587E-05
(PID.TID 0000.0001) %MON vort_a_mean                  =  -1.9725068040083E-05
(PID.TID 0000.0001) %MON vort_a_sd                    =   7.4539174143711E-05
(PID.TID 0000.0001) %MON vort_p_mean                  =  -2.1669072128992E-05
(PID.TID 0000.0001) %MON vort_p_sd                    =   9.3607508474941E-05
(PID.TID 0000.0001) %MON surfExpan_theta_mean         =   8.7677147664458E-06
(PID.TID 0000.0001) %MON surfExpan_salt_mean          =   7.7607547783085E-06
(PID.TID 0000.0001) // =======================================================
(PID.TID 0000.0001) // End MONITOR dynamic field statistics
(PID.TID 0000.0001) // =======================================================
(PID.TID 0000.0001) // =======================================================
(PID.TID 0000.0001) // Begin MONITOR SEAICE statistics
(PID.TID 0000.0001) // =======================================================
(PID.TID 0000.0001) %MON seaice_tsnumber              =                174703
(PID.TID 0000.0001) %MON seaice_time_sec              =   7.8616350000000E+07
(PID.TID 0000.0001) %MON seaice_uice_max              =   1.4065174874285E+00
(PID.TID 0000.0001) %MON seaice_uice_min              =  -1.6247192600242E+00
(PID.TID 0000.0001) %MON seaice_uice_mean             =   1.0699029065523E-03
(PID.TID 0000.0001) %MON seaice_uice_sd               =   1.5778931421653E-01
(PID.TID 0000.0001) %MON seaice_uice_del2             =   3.3041438516603E-04
(PID.TID 0000.0001) %MON seaice_vice_max              =   1.6545217503989E+00
(PID.TID 0000.0001) %MON seaice_vice_min              =  -1.6491681369799E+00
(PID.TID 0000.0001) %MON seaice_vice_mean             =  -2.4955599551571E-02
(PID.TID 0000.0001) %MON seaice_vice_sd               =   1.6413997090668E-01
(PID.TID 0000.0001) %MON seaice_vice_del2             =   3.1721199095616E-04
(PID.TID 0000.0001) %MON seaice_area_max              =   1.0092954841423E+00
(PID.TID 0000.0001) %MON seaice_area_min              =   0.0000000000000E+00
(PID.TID 0000.0001) %MON seaice_area_mean             =   5.7281460046135E-02
(PID.TID 0000.0001) %MON seaice_area_sd               =   2.2158781364928E-01
(PID.TID 0000.0001) %MON seaice_area_del2             =   3.1432285459564E-04
(PID.TID 0000.0001) %MON seaice_heff_max              =   9.9491668203065E+00
(PID.TID 0000.0001) %MON seaice_heff_min              =   0.0000000000000E+00
(PID.TID 0000.0001) %MON seaice_heff_mean             =   1.5002745652361E-01
(PID.TID 0000.0001) %MON seaice_heff_sd               =   7.2149907006963E-01
(PID.TID 0000.0001) %MON seaice_heff_del2             =   1.4695638517049E-03
(PID.TID 0000.0001) %MON seaice_hsnow_max             =   3.2862398265343E+00
(PID.TID 0000.0001) %MON seaice_hsnow_min             =   0.0000000000000E+00
(PID.TID 0000.0001) %MON seaice_hsnow_mean            =   1.2730172648252E-02
(PID.TID 0000.0001) %MON seaice_hsnow_sd              =   6.9100952986333E-02
(PID.TID 0000.0001) %MON seaice_hsnow_del2            =   4.0999453195804E-04
(PID.TID 0000.0001) // =======================================================
(PID.TID 0000.0001) // End MONITOR SEAICE statistics
(PID.TID 0000.0001) // =======================================================
(PID.TID 0000.0001) // =======================================================
(PID.TID 0000.0001) // Begin MONITOR dynamic field statistics
(PID.TID 0000.0001) // =======================================================
(PID.TID 0000.0001) %MON time_tsnumber                =                174704
(PID.TID 0000.0001) %MON time_secondsf                =   7.8616800000000E+07
(PID.TID 0000.0001) %MON dynstat_eta_max              =   3.0177327577049E+00
(PID.TID 0000.0001) %MON dynstat_eta_min              =  -1.1626259696777E+01
(PID.TID 0000.0001) %MON dynstat_eta_mean             =   6.7200415618410E-02
(PID.TID 0000.0001) %MON dynstat_eta_sd               =   8.4382670746409E-01
(PID.TID 0000.0001) %MON dynstat_eta_del2             =   2.0248864547458E-03
(PID.TID 0000.0001) %MON dynstat_uvel_max             =   1.6083021556928E+00
(PID.TID 0000.0001) %MON dynstat_uvel_min             =  -2.4139112817675E+00
(PID.TID 0000.0001) %MON dynstat_uvel_mean            =   1.4406349677566E-03
(PID.TID 0000.0001) %MON dynstat_uvel_sd              =   3.0668084957071E-02
(PID.TID 0000.0001) %MON dynstat_uvel_del2            =   2.9929863103829E-05
(PID.TID 0000.0001) %MON dynstat_vvel_max             =   1.6719994836187E+00
(PID.TID 0000.0001) %MON dynstat_vvel_min             =  -2.2071685309368E+00
(PID.TID 0000.0001) %MON dynstat_vvel_mean            =   5.4007964237984E-04
(PID.TID 0000.0001) %MON dynstat_vvel_sd              =   3.0808498119095E-02
(PID.TID 0000.0001) %MON dynstat_vvel_del2            =   2.8860235985553E-05
(PID.TID 0000.0001) %MON dynstat_wvel_max             =   9.1116375872610E-03
(PID.TID 0000.0001) %MON dynstat_wvel_min             =  -1.1051899797197E-02
(PID.TID 0000.0001) %MON dynstat_wvel_mean            =   1.9162093725272E-07
(PID.TID 0000.0001) %MON dynstat_wvel_sd              =   8.9355838716625E-05
(PID.TID 0000.0001) %MON dynstat_wvel_del2            =   1.9924392523557E-07
(PID.TID 0000.0001) %MON dynstat_theta_max            =   3.2491591931473E+01
(PID.TID 0000.0001) %MON dynstat_theta_min            =  -2.0185467635047E+00
(PID.TID 0000.0001) %MON dynstat_theta_mean           =   3.5921625600798E+00
(PID.TID 0000.0001) %MON dynstat_theta_sd             =   4.4421318518518E+00
(PID.TID 0000.0001) %MON dynstat_theta_del2           =   1.1964870185829E-04
(PID.TID 0000.0001) %MON dynstat_salt_max             =   4.0655994339342E+01
(PID.TID 0000.0001) %MON dynstat_salt_min             =   1.6177709182711E+01
(PID.TID 0000.0001) %MON dynstat_salt_mean            =   3.4724843288426E+01
(PID.TID 0000.0001) %MON dynstat_salt_sd              =   3.7959748677698E-01
(PID.TID 0000.0001) %MON dynstat_salt_del2            =   7.2348634987625E-05
(PID.TID 0000.0001) %MON dynstat_sst_max              =   3.2491591931473E+01
(PID.TID 0000.0001) %MON dynstat_sst_min              =  -2.0185467635047E+00
(PID.TID 0000.0001) %MON dynstat_sst_mean             =   1.8174983792833E+01
(PID.TID 0000.0001) %MON dynstat_sst_sd               =   1.0155490101442E+01
(PID.TID 0000.0001) %MON dynstat_sst_del2             =   1.1315371719215E-03
(PID.TID 0000.0001) %MON dynstat_sss_max              =   3.9472011865269E+01
(PID.TID 0000.0001) %MON dynstat_sss_min              =   1.6177709182711E+01
(PID.TID 0000.0001) %MON dynstat_sss_mean             =   3.4649447739346E+01
(PID.TID 0000.0001) %MON dynstat_sss_sd               =   1.2880255107438E+00
(PID.TID 0000.0001) %MON dynstat_sss_del2             =   1.4454570170299E-03
(PID.TID 0000.0001) %MON forcing_qnet_max             =   3.1371145019531E+03
(PID.TID 0000.0001) %MON forcing_qnet_min             =  -1.5935094360157E+03
(PID.TID 0000.0001) %MON forcing_qnet_mean            =  -7.4939147947915E+00
(PID.TID 0000.0001) %MON forcing_qnet_sd              =   2.3291472377150E+02
(PID.TID 0000.0001) %MON forcing_qnet_del2            =   6.3196404147535E-01
(PID.TID 0000.0001) %MON forcing_qsw_max              =   0.0000000000000E+00
(PID.TID 0000.0001) %MON forcing_qsw_min              =  -1.1060734301348E+02
(PID.TID 0000.0001) %MON forcing_qsw_mean             =  -1.7888695836340E+01
(PID.TID 0000.0001) %MON forcing_qsw_sd               =   3.0259009498934E+01
(PID.TID 0000.0001) %MON forcing_qsw_del2             =   2.2291997342379E-02
(PID.TID 0000.0001) %MON forcing_empmr_max            =   7.7943101525307E-02
(PID.TID 0000.0001) %MON forcing_empmr_min            =  -4.5385524630547E-02
(PID.TID 0000.0001) %MON forcing_empmr_mean           =   1.0398604875975E-05
(PID.TID 0000.0001) %MON forcing_empmr_sd             =   5.9873873099368E-04
(PID.TID 0000.0001) %MON forcing_empmr_del2           =   4.6824653380337E-06
(PID.TID 0000.0001) %MON forcing_fu_max               =   1.1189869001113E+00
(PID.TID 0000.0001) %MON forcing_fu_min               =  -8.1257309066255E-01
(PID.TID 0000.0001) %MON forcing_fu_mean              =   9.4410706268805E-03
(PID.TID 0000.0001) %MON forcing_fu_sd                =   1.1870404894575E-01
(PID.TID 0000.0001) %MON forcing_fu_del2              =   1.5153252275788E-04
(PID.TID 0000.0001) %MON forcing_fv_max               =   8.4544533992171E-01
(PID.TID 0000.0001) %MON forcing_fv_min               =  -1.6048771997428E+00
(PID.TID 0000.0001) %MON forcing_fv_mean              =  -2.0585188761645E-03
(PID.TID 0000.0001) %MON forcing_fv_sd                =   1.0707050156648E-01
(PID.TID 0000.0001) %MON forcing_fv_del2              =   1.5224149248928E-04
(PID.TID 0000.0001) %MON trAdv_CFL_u_max              =   2.4898671569534E-02
(PID.TID 0000.0001) %MON trAdv_CFL_v_max              =   1.9590080721738E-02
(PID.TID 0000.0001) %MON trAdv_CFL_w_max              =   1.1581137578969E-01
(PID.TID 0000.0001) %MON advcfl_uvel_max              =   2.5231725985764E-02
(PID.TID 0000.0001) %MON advcfl_vvel_max              =   1.9589618539590E-02
(PID.TID 0000.0001) %MON advcfl_wvel_max              =   1.0999921822876E-01
(PID.TID 0000.0001) %MON advcfl_W_hf_max              =   1.1581137578969E-01
(PID.TID 0000.0001) %MON pe_b_mean                    =   1.9153548488111E-03
(PID.TID 0000.0001) %MON ke_max                       =   2.2588076799165E+00
(PID.TID 0000.0001) %MON ke_mean                      =   9.1233557666347E-04
(PID.TID 0000.0001) %MON ke_vol                       =   1.3350064351420E+18
(PID.TID 0000.0001) %MON vort_r_min                   =  -8.7764406974729E-05
(PID.TID 0000.0001) %MON vort_r_max                   =   8.9722669100552E-05
(PID.TID 0000.0001) %MON vort_a_mean                  =  -1.9725067781830E-05
(PID.TID 0000.0001) %MON vort_a_sd                    =   7.4539164784855E-05
(PID.TID 0000.0001) %MON vort_p_mean                  =  -2.1669071845286E-05
(PID.TID 0000.0001) %MON vort_p_sd                    =   9.3607461078248E-05
(PID.TID 0000.0001) %MON surfExpan_theta_mean         =   9.1294263105662E-06
(PID.TID 0000.0001) %MON surfExpan_salt_mean          =   7.2415300380945E-06
(PID.TID 0000.0001) // =======================================================
(PID.TID 0000.0001) // End MONITOR dynamic field statistics
(PID.TID 0000.0001) // =======================================================
(PID.TID 0000.0001) // =======================================================
(PID.TID 0000.0001) // Begin MONITOR SEAICE statistics
(PID.TID 0000.0001) // =======================================================
(PID.TID 0000.0001) %MON seaice_tsnumber              =                174704
(PID.TID 0000.0001) %MON seaice_time_sec              =   7.8616800000000E+07
(PID.TID 0000.0001) %MON seaice_uice_max              =   1.3890054860911E+00
(PID.TID 0000.0001) %MON seaice_uice_min              =  -1.5503061356620E+00
(PID.TID 0000.0001) %MON seaice_uice_mean             =   1.0311233221225E-03
(PID.TID 0000.0001) %MON seaice_uice_sd               =   1.5762672201997E-01
(PID.TID 0000.0001) %MON seaice_uice_del2             =   3.2997301415575E-04
(PID.TID 0000.0001) %MON seaice_vice_max              =   1.6537152592495E+00
(PID.TID 0000.0001) %MON seaice_vice_min              =  -1.6384402211518E+00
(PID.TID 0000.0001) %MON seaice_vice_mean             =  -2.4990874278650E-02
(PID.TID 0000.0001) %MON seaice_vice_sd               =   1.6398907029367E-01
(PID.TID 0000.0001) %MON seaice_vice_del2             =   3.1693638498710E-04
(PID.TID 0000.0001) %MON seaice_area_max              =   1.0091016135029E+00
(PID.TID 0000.0001) %MON seaice_area_min              =   0.0000000000000E+00
(PID.TID 0000.0001) %MON seaice_area_mean             =   5.7282938728129E-02
(PID.TID 0000.0001) %MON seaice_area_sd               =   2.2158249166033E-01
(PID.TID 0000.0001) %MON seaice_area_del2             =   3.1387620308836E-04
(PID.TID 0000.0001) %MON seaice_heff_max              =   9.9491621174314E+00
(PID.TID 0000.0001) %MON seaice_heff_min              =   0.0000000000000E+00
(PID.TID 0000.0001) %MON seaice_heff_mean             =   1.5002402003632E-01
(PID.TID 0000.0001) %MON seaice_heff_sd               =   7.2148809338415E-01
(PID.TID 0000.0001) %MON seaice_heff_del2             =   1.4681348440585E-03
(PID.TID 0000.0001) %MON seaice_hsnow_max             =   3.2862384175332E+00
(PID.TID 0000.0001) %MON seaice_hsnow_min             =   0.0000000000000E+00
(PID.TID 0000.0001) %MON seaice_hsnow_mean            =   1.2729389154899E-02
(PID.TID 0000.0001) %MON seaice_hsnow_sd              =   6.9091202750951E-02
(PID.TID 0000.0001) %MON seaice_hsnow_del2            =   4.0952967127287E-04
(PID.TID 0000.0001) // =======================================================
(PID.TID 0000.0001) // End MONITOR SEAICE statistics
(PID.TID 0000.0001) // =======================================================
(PID.TID 0000.0001) // =======================================================
(PID.TID 0000.0001) // Begin MONITOR dynamic field statistics
(PID.TID 0000.0001) // =======================================================
(PID.TID 0000.0001) %MON time_tsnumber                =                174705
(PID.TID 0000.0001) %MON time_secondsf                =   7.8617250000000E+07
(PID.TID 0000.0001) %MON dynstat_eta_max              =   2.9958223403298E+00
(PID.TID 0000.0001) %MON dynstat_eta_min              =  -1.1692380956540E+01
(PID.TID 0000.0001) %MON dynstat_eta_mean             =   6.7267031830060E-02
(PID.TID 0000.0001) %MON dynstat_eta_sd               =   8.4423208700388E-01
(PID.TID 0000.0001) %MON dynstat_eta_del2             =   2.0246429228532E-03
(PID.TID 0000.0001) %MON dynstat_uvel_max             =   1.6062463011807E+00
(PID.TID 0000.0001) %MON dynstat_uvel_min             =  -2.4299099271446E+00
(PID.TID 0000.0001) %MON dynstat_uvel_mean            =   1.4131819762976E-03
(PID.TID 0000.0001) %MON dynstat_uvel_sd              =   3.0633601560132E-02
(PID.TID 0000.0001) %MON dynstat_uvel_del2            =   3.0034612667498E-05
(PID.TID 0000.0001) %MON dynstat_vvel_max             =   1.7590687439410E+00
(PID.TID 0000.0001) %MON dynstat_vvel_min             =  -2.2027844910849E+00
(PID.TID 0000.0001) %MON dynstat_vvel_mean            =   5.3228794729797E-04
(PID.TID 0000.0001) %MON dynstat_vvel_sd              =   3.0799828977298E-02
(PID.TID 0000.0001) %MON dynstat_vvel_del2            =   2.8960225833454E-05
(PID.TID 0000.0001) %MON dynstat_wvel_max             =   9.0672782400585E-03
(PID.TID 0000.0001) %MON dynstat_wvel_min             =  -1.1021519202530E-02
(PID.TID 0000.0001) %MON dynstat_wvel_mean            =   1.7860453770053E-07
(PID.TID 0000.0001) %MON dynstat_wvel_sd              =   8.9581399539912E-05
(PID.TID 0000.0001) %MON dynstat_wvel_del2            =   2.0005034309808E-07
(PID.TID 0000.0001) %MON dynstat_theta_max            =   3.2493503214115E+01
(PID.TID 0000.0001) %MON dynstat_theta_min            =  -2.0190077746312E+00
(PID.TID 0000.0001) %MON dynstat_theta_mean           =   3.5921615270240E+00
(PID.TID 0000.0001) %MON dynstat_theta_sd             =   4.4421325570140E+00
(PID.TID 0000.0001) %MON dynstat_theta_del2           =   1.1970293543956E-04
(PID.TID 0000.0001) %MON dynstat_salt_max             =   4.0655994256255E+01
(PID.TID 0000.0001) %MON dynstat_salt_min             =   1.6176368009184E+01
(PID.TID 0000.0001) %MON dynstat_salt_mean            =   3.4724842851873E+01
(PID.TID 0000.0001) %MON dynstat_salt_sd              =   3.7959926840100E-01
(PID.TID 0000.0001) %MON dynstat_salt_del2            =   7.2257310463628E-05
(PID.TID 0000.0001) %MON dynstat_sst_max              =   3.2493503214115E+01
(PID.TID 0000.0001) %MON dynstat_sst_min              =  -2.0190077746312E+00
(PID.TID 0000.0001) %MON dynstat_sst_mean             =   1.8175100182370E+01
(PID.TID 0000.0001) %MON dynstat_sst_sd               =   1.0155796555923E+01
(PID.TID 0000.0001) %MON dynstat_sst_del2             =   1.1310639371843E-03
(PID.TID 0000.0001) %MON dynstat_sss_max              =   3.9472020811858E+01
(PID.TID 0000.0001) %MON dynstat_sss_min              =   1.6176368009184E+01
(PID.TID 0000.0001) %MON dynstat_sss_mean             =   3.4649366942541E+01
(PID.TID 0000.0001) %MON dynstat_sss_sd               =   1.2881593857084E+00
(PID.TID 0000.0001) %MON dynstat_sss_del2             =   1.4455218953933E-03
(PID.TID 0000.0001) %MON forcing_qnet_max             =   3.0515332031250E+03
(PID.TID 0000.0001) %MON forcing_qnet_min             =  -1.5815303955078E+03
(PID.TID 0000.0001) %MON forcing_qnet_mean            =  -7.7027359625172E+00
(PID.TID 0000.0001) %MON forcing_qnet_sd              =   2.3289156919465E+02
(PID.TID 0000.0001) %MON forcing_qnet_del2            =   6.2369680263393E-01
(PID.TID 0000.0001) %MON forcing_qsw_max              =   0.0000000000000E+00
(PID.TID 0000.0001) %MON forcing_qsw_min              =  -1.1077853502144E+02
(PID.TID 0000.0001) %MON forcing_qsw_mean             =  -1.7987186112070E+01
(PID.TID 0000.0001) %MON forcing_qsw_sd               =   3.0251044925952E+01
(PID.TID 0000.0001) %MON forcing_qsw_del2             =   2.2316352208497E-02
(PID.TID 0000.0001) %MON forcing_empmr_max            =   4.2247883975506E-02
(PID.TID 0000.0001) %MON forcing_empmr_min            =  -4.7175906598568E-02
(PID.TID 0000.0001) %MON forcing_empmr_mean           =   8.9452911817722E-06
(PID.TID 0000.0001) %MON forcing_empmr_sd             =   4.6835751328181E-04
(PID.TID 0000.0001) %MON forcing_empmr_del2           =   4.5844693169910E-06
(PID.TID 0000.0001) %MON forcing_fu_max               =   1.1246157575755E+00
(PID.TID 0000.0001) %MON forcing_fu_min               =  -8.1907684032885E-01
(PID.TID 0000.0001) %MON forcing_fu_mean              =   9.4819840065605E-03
(PID.TID 0000.0001) %MON forcing_fu_sd                =   1.1878565284297E-01
(PID.TID 0000.0001) %MON forcing_fu_del2              =   1.5186584708555E-04
(PID.TID 0000.0001) %MON forcing_fv_max               =   8.4649762881971E-01
(PID.TID 0000.0001) %MON forcing_fv_min               =  -1.5732258958675E+00
(PID.TID 0000.0001) %MON forcing_fv_mean              =  -2.0670717916822E-03
(PID.TID 0000.0001) %MON forcing_fv_sd                =   1.0702854095470E-01
(PID.TID 0000.0001) %MON forcing_fv_del2              =   1.5289862450534E-04
(PID.TID 0000.0001) %MON trAdv_CFL_u_max              =   2.5063692140012E-02
(PID.TID 0000.0001) %MON trAdv_CFL_v_max              =   1.9551169468075E-02
(PID.TID 0000.0001) %MON trAdv_CFL_w_max              =   1.1688774319607E-01
(PID.TID 0000.0001) %MON advcfl_uvel_max              =   2.5398953936247E-02
(PID.TID 0000.0001) %MON advcfl_vvel_max              =   1.9550708203947E-02
(PID.TID 0000.0001) %MON advcfl_wvel_max              =   1.1101381557899E-01
(PID.TID 0000.0001) %MON advcfl_W_hf_max              =   1.1688774319607E-01
(PID.TID 0000.0001) %MON pe_b_mean                    =   1.9165731450340E-03
(PID.TID 0000.0001) %MON ke_max                       =   2.2367077376578E+00
(PID.TID 0000.0001) %MON ke_mean                      =   9.1101705289919E-04
(PID.TID 0000.0001) %MON ke_vol                       =   1.3350064351420E+18
(PID.TID 0000.0001) %MON vort_r_min                   =  -8.8212548093394E-05
(PID.TID 0000.0001) %MON vort_r_max                   =   9.0330837558030E-05
(PID.TID 0000.0001) %MON vort_a_mean                  =  -1.9725067529593E-05
(PID.TID 0000.0001) %MON vort_a_sd                    =   7.4539154965224E-05
(PID.TID 0000.0001) %MON vort_p_mean                  =  -2.1669071568190E-05
(PID.TID 0000.0001) %MON vort_p_sd                    =   9.3607413763640E-05
(PID.TID 0000.0001) %MON surfExpan_theta_mean         =   9.4951163615274E-06
(PID.TID 0000.0001) %MON surfExpan_salt_mean          =   6.6322696441303E-06
(PID.TID 0000.0001) // =======================================================
(PID.TID 0000.0001) // End MONITOR dynamic field statistics
(PID.TID 0000.0001) // =======================================================
(PID.TID 0000.0001) // =======================================================
(PID.TID 0000.0001) // Begin MONITOR SEAICE statistics
(PID.TID 0000.0001) // =======================================================
(PID.TID 0000.0001) %MON seaice_tsnumber              =                174705
(PID.TID 0000.0001) %MON seaice_time_sec              =   7.8617250000000E+07
(PID.TID 0000.0001) %MON seaice_uice_max              =   1.3718201173124E+00
(PID.TID 0000.0001) %MON seaice_uice_min              =  -1.4947993531228E+00
(PID.TID 0000.0001) %MON seaice_uice_mean             =   9.9134471712450E-04
(PID.TID 0000.0001) %MON seaice_uice_sd               =   1.5747353847860E-01
(PID.TID 0000.0001) %MON seaice_uice_del2             =   3.2963668306152E-04
(PID.TID 0000.0001) %MON seaice_vice_max              =   1.6513387510861E+00
(PID.TID 0000.0001) %MON seaice_vice_min              =  -1.6282587567324E+00
(PID.TID 0000.0001) %MON seaice_vice_mean             =  -2.5020542807314E-02
(PID.TID 0000.0001) %MON seaice_vice_sd               =   1.6384786964451E-01
(PID.TID 0000.0001) %MON seaice_vice_del2             =   3.1678036766501E-04
(PID.TID 0000.0001) %MON seaice_area_max              =   1.0088196534082E+00
(PID.TID 0000.0001) %MON seaice_area_min              =   0.0000000000000E+00
(PID.TID 0000.0001) %MON seaice_area_mean             =   5.7284437337428E-02
(PID.TID 0000.0001) %MON seaice_area_sd               =   2.2157714996988E-01
(PID.TID 0000.0001) %MON seaice_area_del2             =   3.1343947120245E-04
(PID.TID 0000.0001) %MON seaice_heff_max              =   9.9491488001359E+00
(PID.TID 0000.0001) %MON seaice_heff_min              =   0.0000000000000E+00
(PID.TID 0000.0001) %MON seaice_heff_mean             =   1.5002059068231E-01
(PID.TID 0000.0001) %MON seaice_heff_sd               =   7.2147714896317E-01
(PID.TID 0000.0001) %MON seaice_heff_del2             =   1.4667344286447E-03
(PID.TID 0000.0001) %MON seaice_hsnow_max             =   3.2862338935387E+00
(PID.TID 0000.0001) %MON seaice_hsnow_min             =   0.0000000000000E+00
(PID.TID 0000.0001) %MON seaice_hsnow_mean            =   1.2728604310567E-02
(PID.TID 0000.0001) %MON seaice_hsnow_sd              =   6.9081545878525E-02
(PID.TID 0000.0001) %MON seaice_hsnow_del2            =   4.0907571426778E-04
(PID.TID 0000.0001) // =======================================================
(PID.TID 0000.0001) // End MONITOR SEAICE statistics
(PID.TID 0000.0001) // =======================================================
(PID.TID 0000.0001) // =======================================================
(PID.TID 0000.0001) // Begin MONITOR dynamic field statistics
(PID.TID 0000.0001) // =======================================================
(PID.TID 0000.0001) %MON time_tsnumber                =                174706
(PID.TID 0000.0001) %MON time_secondsf                =   7.8617700000000E+07
(PID.TID 0000.0001) %MON dynstat_eta_max              =   2.9498324055140E+00
(PID.TID 0000.0001) %MON dynstat_eta_min              =  -1.1733788333018E+01
(PID.TID 0000.0001) %MON dynstat_eta_mean             =   6.7323288652592E-02
(PID.TID 0000.0001) %MON dynstat_eta_sd               =   8.4463789065310E-01
(PID.TID 0000.0001) %MON dynstat_eta_del2             =   2.0242983887818E-03
(PID.TID 0000.0001) %MON dynstat_uvel_max             =   1.6040774956705E+00
(PID.TID 0000.0001) %MON dynstat_uvel_min             =  -2.4461335871264E+00
(PID.TID 0000.0001) %MON dynstat_uvel_mean            =   1.3845777404899E-03
(PID.TID 0000.0001) %MON dynstat_uvel_sd              =   3.0601744086393E-02
(PID.TID 0000.0001) %MON dynstat_uvel_del2            =   3.0142913566803E-05
(PID.TID 0000.0001) %MON dynstat_vvel_max             =   1.8599061552362E+00
(PID.TID 0000.0001) %MON dynstat_vvel_min             =  -2.1985875100143E+00
(PID.TID 0000.0001) %MON dynstat_vvel_mean            =   5.2754605241072E-04
(PID.TID 0000.0001) %MON dynstat_vvel_sd              =   3.0787645491693E-02
(PID.TID 0000.0001) %MON dynstat_vvel_del2            =   2.9062847960023E-05
(PID.TID 0000.0001) %MON dynstat_wvel_max             =   9.0186913243982E-03
(PID.TID 0000.0001) %MON dynstat_wvel_min             =  -1.0988990633094E-02
(PID.TID 0000.0001) %MON dynstat_wvel_mean            =   1.6426593373938E-07
(PID.TID 0000.0001) %MON dynstat_wvel_sd              =   8.9811731923779E-05
(PID.TID 0000.0001) %MON dynstat_wvel_del2            =   2.0086738509867E-07
(PID.TID 0000.0001) %MON dynstat_theta_max            =   3.2495357040226E+01
(PID.TID 0000.0001) %MON dynstat_theta_min            =  -2.0194663294808E+00
(PID.TID 0000.0001) %MON dynstat_theta_mean           =   3.5921604480412E+00
(PID.TID 0000.0001) %MON dynstat_theta_sd             =   4.4421333084135E+00
(PID.TID 0000.0001) %MON dynstat_theta_del2           =   1.1975879262731E-04
(PID.TID 0000.0001) %MON dynstat_salt_max             =   4.0655994173015E+01
(PID.TID 0000.0001) %MON dynstat_salt_min             =   1.6175172987940E+01
(PID.TID 0000.0001) %MON dynstat_salt_mean            =   3.4724842400141E+01
(PID.TID 0000.0001) %MON dynstat_salt_sd              =   3.7960113049829E-01
(PID.TID 0000.0001) %MON dynstat_salt_del2            =   7.2167194699891E-05
(PID.TID 0000.0001) %MON dynstat_sst_max              =   3.2495357040226E+01
(PID.TID 0000.0001) %MON dynstat_sst_min              =  -2.0194663294808E+00
(PID.TID 0000.0001) %MON dynstat_sst_mean             =   1.8175220446178E+01
(PID.TID 0000.0001) %MON dynstat_sst_sd               =   1.0156104921118E+01
(PID.TID 0000.0001) %MON dynstat_sst_del2             =   1.1305695583829E-03
(PID.TID 0000.0001) %MON dynstat_sss_max              =   3.9472048903138E+01
(PID.TID 0000.0001) %MON dynstat_sss_min              =   1.6175172987940E+01
(PID.TID 0000.0001) %MON dynstat_sss_mean             =   3.4649286932696E+01
(PID.TID 0000.0001) %MON dynstat_sss_sd               =   1.2882919808532E+00
(PID.TID 0000.0001) %MON dynstat_sss_del2             =   1.4457035005488E-03
(PID.TID 0000.0001) %MON forcing_qnet_max             =   2.8741728515625E+03
(PID.TID 0000.0001) %MON forcing_qnet_min             =  -1.5922524414062E+03
(PID.TID 0000.0001) %MON forcing_qnet_mean            =  -8.0016067317264E+00
(PID.TID 0000.0001) %MON forcing_qnet_sd              =   2.3268488209788E+02
(PID.TID 0000.0001) %MON forcing_qnet_del2            =   6.2949376231253E-01
(PID.TID 0000.0001) %MON forcing_qsw_max              =   0.0000000000000E+00
(PID.TID 0000.0001) %MON forcing_qsw_min              =  -1.1095195282287E+02
(PID.TID 0000.0001) %MON forcing_qsw_mean             =  -1.8076866688414E+01
(PID.TID 0000.0001) %MON forcing_qsw_sd               =   3.0226252424883E+01
(PID.TID 0000.0001) %MON forcing_qsw_del2             =   2.2330687808704E-02
(PID.TID 0000.0001) %MON forcing_empmr_max            =   2.8222205117345E-02
(PID.TID 0000.0001) %MON forcing_empmr_min            =  -4.5904882252216E-02
(PID.TID 0000.0001) %MON forcing_empmr_mean           =   7.6797386099443E-06
(PID.TID 0000.0001) %MON forcing_empmr_sd             =   3.9937190772154E-04
(PID.TID 0000.0001) %MON forcing_empmr_del2           =   4.5081145357966E-06
(PID.TID 0000.0001) %MON forcing_fu_max               =   1.1294112317267E+00
(PID.TID 0000.0001) %MON forcing_fu_min               =  -8.2368114517675E-01
(PID.TID 0000.0001) %MON forcing_fu_mean              =   9.5214614377719E-03
(PID.TID 0000.0001) %MON forcing_fu_sd                =   1.1887258788712E-01
(PID.TID 0000.0001) %MON forcing_fu_del2              =   1.5214723983741E-04
(PID.TID 0000.0001) %MON forcing_fv_max               =   8.4697467949967E-01
(PID.TID 0000.0001) %MON forcing_fv_min               =  -1.5418213302562E+00
(PID.TID 0000.0001) %MON forcing_fv_mean              =  -2.0730347027103E-03
(PID.TID 0000.0001) %MON forcing_fv_sd                =   1.0698862649370E-01
(PID.TID 0000.0001) %MON forcing_fv_del2              =   1.5359104158903E-04
(PID.TID 0000.0001) %MON trAdv_CFL_u_max              =   2.5231033659393E-02
(PID.TID 0000.0001) %MON trAdv_CFL_v_max              =   1.9513918484831E-02
(PID.TID 0000.0001) %MON trAdv_CFL_w_max              =   1.1790696312513E-01
(PID.TID 0000.0001) %MON advcfl_uvel_max              =   2.5568533881557E-02
(PID.TID 0000.0001) %MON advcfl_vvel_max              =   1.9513458099553E-02
(PID.TID 0000.0001) %MON advcfl_wvel_max              =   1.1197576503369E-01
(PID.TID 0000.0001) %MON advcfl_W_hf_max              =   1.1790696312513E-01
(PID.TID 0000.0001) %MON pe_b_mean                    =   1.9175435252138E-03
(PID.TID 0000.0001) %MON ke_max                       =   2.2158918788867E+00
(PID.TID 0000.0001) %MON ke_mean                      =   9.0967365896961E-04
(PID.TID 0000.0001) %MON ke_vol                       =   1.3350064351420E+18
(PID.TID 0000.0001) %MON vort_r_min                   =  -8.8674070801680E-05
(PID.TID 0000.0001) %MON vort_r_max                   =   9.0957426385551E-05
(PID.TID 0000.0001) %MON vort_a_mean                  =  -1.9725067290111E-05
(PID.TID 0000.0001) %MON vort_a_sd                    =   7.4539144826449E-05
(PID.TID 0000.0001) %MON vort_p_mean                  =  -2.1669071305105E-05
(PID.TID 0000.0001) %MON vort_p_sd                    =   9.3607366677370E-05
(PID.TID 0000.0001) %MON surfExpan_theta_mean         =   9.8624195817433E-06
(PID.TID 0000.0001) %MON surfExpan_salt_mean          =   5.9400152627471E-06
(PID.TID 0000.0001) // =======================================================
(PID.TID 0000.0001) // End MONITOR dynamic field statistics
(PID.TID 0000.0001) // =======================================================
(PID.TID 0000.0001) // =======================================================
(PID.TID 0000.0001) // Begin MONITOR SEAICE statistics
(PID.TID 0000.0001) // =======================================================
(PID.TID 0000.0001) %MON seaice_tsnumber              =                174706
(PID.TID 0000.0001) %MON seaice_time_sec              =   7.8617700000000E+07
(PID.TID 0000.0001) %MON seaice_uice_max              =   1.3550496534319E+00
(PID.TID 0000.0001) %MON seaice_uice_min              =  -1.4855894554455E+00
(PID.TID 0000.0001) %MON seaice_uice_mean             =   9.5002326767232E-04
(PID.TID 0000.0001) %MON seaice_uice_sd               =   1.5732273793712E-01
(PID.TID 0000.0001) %MON seaice_uice_del2             =   3.2942351232483E-04
(PID.TID 0000.0001) %MON seaice_vice_max              =   1.7499030070593E+00
(PID.TID 0000.0001) %MON seaice_vice_min              =  -1.6186779517654E+00
(PID.TID 0000.0001) %MON seaice_vice_mean             =  -2.5049513612722E-02
(PID.TID 0000.0001) %MON seaice_vice_sd               =   1.6372378096995E-01
(PID.TID 0000.0001) %MON seaice_vice_del2             =   3.1671724960663E-04
(PID.TID 0000.0001) %MON seaice_area_max              =   1.0084542671456E+00
(PID.TID 0000.0001) %MON seaice_area_min              =   0.0000000000000E+00
(PID.TID 0000.0001) %MON seaice_area_mean             =   5.7285968571361E-02
(PID.TID 0000.0001) %MON seaice_area_sd               =   2.2157180293735E-01
(PID.TID 0000.0001) %MON seaice_area_del2             =   3.1301261048496E-04
(PID.TID 0000.0001) %MON seaice_heff_max              =   9.9491335693084E+00
(PID.TID 0000.0001) %MON seaice_heff_min              =   0.0000000000000E+00
(PID.TID 0000.0001) %MON seaice_heff_mean             =   1.5001715969684E-01
(PID.TID 0000.0001) %MON seaice_heff_sd               =   7.2146613880613E-01
(PID.TID 0000.0001) %MON seaice_heff_del2             =   1.4653603188008E-03
(PID.TID 0000.0001) %MON seaice_hsnow_max             =   3.2862288945705E+00
(PID.TID 0000.0001) %MON seaice_hsnow_min             =   0.0000000000000E+00
(PID.TID 0000.0001) %MON seaice_hsnow_mean            =   1.2727802592343E-02
(PID.TID 0000.0001) %MON seaice_hsnow_sd              =   6.9071895190211E-02
(PID.TID 0000.0001) %MON seaice_hsnow_del2            =   4.0863196194755E-04
(PID.TID 0000.0001) // =======================================================
(PID.TID 0000.0001) // End MONITOR SEAICE statistics
(PID.TID 0000.0001) // =======================================================
(PID.TID 0000.0001) // =======================================================
(PID.TID 0000.0001) // Begin MONITOR dynamic field statistics
(PID.TID 0000.0001) // =======================================================
(PID.TID 0000.0001) %MON time_tsnumber                =                174707
(PID.TID 0000.0001) %MON time_secondsf                =   7.8618150000000E+07
(PID.TID 0000.0001) %MON dynstat_eta_max              =   2.8812719144885E+00
(PID.TID 0000.0001) %MON dynstat_eta_min              =  -1.1750113095217E+01
(PID.TID 0000.0001) %MON dynstat_eta_mean             =   6.7368208582869E-02
(PID.TID 0000.0001) %MON dynstat_eta_sd               =   8.4504327544609E-01
(PID.TID 0000.0001) %MON dynstat_eta_del2             =   2.0238558627738E-03
(PID.TID 0000.0001) %MON dynstat_uvel_max             =   1.6018100574180E+00
(PID.TID 0000.0001) %MON dynstat_uvel_min             =  -2.4625462283573E+00
(PID.TID 0000.0001) %MON dynstat_uvel_mean            =   1.3547251335046E-03
(PID.TID 0000.0001) %MON dynstat_uvel_sd              =   3.0572321373936E-02
(PID.TID 0000.0001) %MON dynstat_uvel_del2            =   3.0254373032488E-05
(PID.TID 0000.0001) %MON dynstat_vvel_max             =   1.9530857529395E+00
(PID.TID 0000.0001) %MON dynstat_vvel_min             =  -2.1945179184255E+00
(PID.TID 0000.0001) %MON dynstat_vvel_mean            =   5.2587045936233E-04
(PID.TID 0000.0001) %MON dynstat_vvel_sd              =   3.0772147148127E-02
(PID.TID 0000.0001) %MON dynstat_vvel_del2            =   2.9166840329458E-05
(PID.TID 0000.0001) %MON dynstat_wvel_max             =   8.9664019803141E-03
(PID.TID 0000.0001) %MON dynstat_wvel_min             =  -1.0954541443531E-02
(PID.TID 0000.0001) %MON dynstat_wvel_mean            =   1.4931758833881E-07
(PID.TID 0000.0001) %MON dynstat_wvel_sd              =   9.0044630258249E-05
(PID.TID 0000.0001) %MON dynstat_wvel_del2            =   2.0169432775166E-07
(PID.TID 0000.0001) %MON dynstat_theta_max            =   3.2497164266706E+01
(PID.TID 0000.0001) %MON dynstat_theta_min            =  -2.0199262043317E+00
(PID.TID 0000.0001) %MON dynstat_theta_mean           =   3.5921593282652E+00
(PID.TID 0000.0001) %MON dynstat_theta_sd             =   4.4421341153204E+00
(PID.TID 0000.0001) %MON dynstat_theta_del2           =   1.1981529045709E-04
(PID.TID 0000.0001) %MON dynstat_salt_max             =   4.0655994089617E+01
(PID.TID 0000.0001) %MON dynstat_salt_min             =   1.6174092414085E+01
(PID.TID 0000.0001) %MON dynstat_salt_mean            =   3.4724841935976E+01
(PID.TID 0000.0001) %MON dynstat_salt_sd              =   3.7960306115192E-01
(PID.TID 0000.0001) %MON dynstat_salt_del2            =   7.2078091544390E-05
(PID.TID 0000.0001) %MON dynstat_sst_max              =   3.2497164266706E+01
(PID.TID 0000.0001) %MON dynstat_sst_min              =  -2.0199262043317E+00
(PID.TID 0000.0001) %MON dynstat_sst_mean             =   1.8175345110466E+01
(PID.TID 0000.0001) %MON dynstat_sst_sd               =   1.0156414904672E+01
(PID.TID 0000.0001) %MON dynstat_sst_del2             =   1.1300718427376E-03
(PID.TID 0000.0001) %MON dynstat_sss_max              =   3.9472079615154E+01
(PID.TID 0000.0001) %MON dynstat_sss_min              =   1.6174092414085E+01
(PID.TID 0000.0001) %MON dynstat_sss_mean             =   3.4649207908255E+01
(PID.TID 0000.0001) %MON dynstat_sss_sd               =   1.2884242708089E+00
(PID.TID 0000.0001) %MON dynstat_sss_del2             =   1.4458227779144E-03
(PID.TID 0000.0001) %MON forcing_qnet_max             =   3.3699968261719E+03
(PID.TID 0000.0001) %MON forcing_qnet_min             =  -1.5512446289062E+03
(PID.TID 0000.0001) %MON forcing_qnet_mean            =  -8.3644465385208E+00
(PID.TID 0000.0001) %MON forcing_qnet_sd              =   2.3263269101739E+02
(PID.TID 0000.0001) %MON forcing_qnet_del2            =   6.3825677317584E-01
(PID.TID 0000.0001) %MON forcing_qsw_max              =   0.0000000000000E+00
(PID.TID 0000.0001) %MON forcing_qsw_min              =  -1.1102841718180E+02
(PID.TID 0000.0001) %MON forcing_qsw_mean             =  -1.8156870991921E+01
(PID.TID 0000.0001) %MON forcing_qsw_sd               =   3.0185110003184E+01
(PID.TID 0000.0001) %MON forcing_qsw_del2             =   2.2334836168258E-02
(PID.TID 0000.0001) %MON forcing_empmr_max            =   2.8351908549666E-02
(PID.TID 0000.0001) %MON forcing_empmr_min            =  -4.5328076928854E-02
(PID.TID 0000.0001) %MON forcing_empmr_mean           =   7.5558216965019E-06
(PID.TID 0000.0001) %MON forcing_empmr_sd             =   3.9687814350468E-04
(PID.TID 0000.0001) %MON forcing_empmr_del2           =   4.4868582340955E-06
(PID.TID 0000.0001) %MON forcing_fu_max               =   1.1332211637445E+00
(PID.TID 0000.0001) %MON forcing_fu_min               =  -8.3176628885891E-01
(PID.TID 0000.0001) %MON forcing_fu_mean              =   9.5604768105631E-03
(PID.TID 0000.0001) %MON forcing_fu_sd                =   1.1896973559094E-01
(PID.TID 0000.0001) %MON forcing_fu_del2              =   1.5248353765670E-04
(PID.TID 0000.0001) %MON forcing_fv_max               =   8.4714356516631E-01
(PID.TID 0000.0001) %MON forcing_fv_min               =  -1.5116718539701E+00
(PID.TID 0000.0001) %MON forcing_fv_mean              =  -2.0773643080815E-03
(PID.TID 0000.0001) %MON forcing_fv_sd                =   1.0697051447246E-01
(PID.TID 0000.0001) %MON forcing_fv_del2              =   1.5432245800523E-04
(PID.TID 0000.0001) %MON trAdv_CFL_u_max              =   2.5400324455904E-02
(PID.TID 0000.0001) %MON trAdv_CFL_v_max              =   1.9477798167505E-02
(PID.TID 0000.0001) %MON trAdv_CFL_w_max              =   1.1886686131531E-01
(PID.TID 0000.0001) %MON advcfl_uvel_max              =   2.5740089178295E-02
(PID.TID 0000.0001) %MON advcfl_vvel_max              =   1.9477338634401E-02
(PID.TID 0000.0001) %MON advcfl_wvel_max              =   1.1288280752740E-01
(PID.TID 0000.0001) %MON advcfl_W_hf_max              =   1.1886686131531E-01
(PID.TID 0000.0001) %MON pe_b_mean                    =   1.9182322893415E-03
(PID.TID 0000.0001) %MON ke_max                       =   2.1956388293716E+00
(PID.TID 0000.0001) %MON ke_mean                      =   9.0830549668235E-04
(PID.TID 0000.0001) %MON ke_vol                       =   1.3350064351420E+18
(PID.TID 0000.0001) %MON vort_r_min                   =  -8.9148001879640E-05
(PID.TID 0000.0001) %MON vort_r_max                   =   9.1600785607681E-05
(PID.TID 0000.0001) %MON vort_a_mean                  =  -1.9725067069750E-05
(PID.TID 0000.0001) %MON vort_a_sd                    =   7.4539134490416E-05
(PID.TID 0000.0001) %MON vort_p_mean                  =  -2.1669071063027E-05
(PID.TID 0000.0001) %MON vort_p_sd                    =   9.3607319953328E-05
(PID.TID 0000.0001) %MON surfExpan_theta_mean         =   1.0235034269979E-05
(PID.TID 0000.0001) %MON surfExpan_salt_mean          =   5.2042161055068E-06
(PID.TID 0000.0001) // =======================================================
(PID.TID 0000.0001) // End MONITOR dynamic field statistics
(PID.TID 0000.0001) // =======================================================
(PID.TID 0000.0001) // =======================================================
(PID.TID 0000.0001) // Begin MONITOR SEAICE statistics
(PID.TID 0000.0001) // =======================================================
(PID.TID 0000.0001) %MON seaice_tsnumber              =                174707
(PID.TID 0000.0001) %MON seaice_time_sec              =   7.8618150000000E+07
(PID.TID 0000.0001) %MON seaice_uice_max              =   1.3385691468438E+00
(PID.TID 0000.0001) %MON seaice_uice_min              =  -1.4755323016921E+00
(PID.TID 0000.0001) %MON seaice_uice_mean             =   9.0814103474683E-04
(PID.TID 0000.0001) %MON seaice_uice_sd               =   1.5718331672159E-01
(PID.TID 0000.0001) %MON seaice_uice_del2             =   3.2936795978987E-04
(PID.TID 0000.0001) %MON seaice_vice_max              =   1.8565377443604E+00
(PID.TID 0000.0001) %MON seaice_vice_min              =  -1.6097211663708E+00
(PID.TID 0000.0001) %MON seaice_vice_mean             =  -2.5076005661657E-02
(PID.TID 0000.0001) %MON seaice_vice_sd               =   1.6361010814608E-01
(PID.TID 0000.0001) %MON seaice_vice_del2             =   3.1676712606870E-04
(PID.TID 0000.0001) %MON seaice_area_max              =   1.0080113270460E+00
(PID.TID 0000.0001) %MON seaice_area_min              =   0.0000000000000E+00
(PID.TID 0000.0001) %MON seaice_area_mean             =   5.7287502044407E-02
(PID.TID 0000.0001) %MON seaice_area_sd               =   2.2156643474717E-01
(PID.TID 0000.0001) %MON seaice_area_del2             =   3.1259318337547E-04
(PID.TID 0000.0001) %MON seaice_heff_max              =   9.9491346169531E+00
(PID.TID 0000.0001) %MON seaice_heff_min              =   0.0000000000000E+00
(PID.TID 0000.0001) %MON seaice_heff_mean             =   1.5001371009940E-01
(PID.TID 0000.0001) %MON seaice_heff_sd               =   7.2145503210436E-01
(PID.TID 0000.0001) %MON seaice_heff_del2             =   1.4640142570179E-03
(PID.TID 0000.0001) %MON seaice_hsnow_max             =   3.2862293974085E+00
(PID.TID 0000.0001) %MON seaice_hsnow_min             =   0.0000000000000E+00
(PID.TID 0000.0001) %MON seaice_hsnow_mean            =   1.2726991614969E-02
(PID.TID 0000.0001) %MON seaice_hsnow_sd              =   6.9062289117469E-02
(PID.TID 0000.0001) %MON seaice_hsnow_del2            =   4.0819858843107E-04
(PID.TID 0000.0001) // =======================================================
(PID.TID 0000.0001) // End MONITOR SEAICE statistics
(PID.TID 0000.0001) // =======================================================
(PID.TID 0000.0001) // =======================================================
(PID.TID 0000.0001) // Begin MONITOR dynamic field statistics
(PID.TID 0000.0001) // =======================================================
(PID.TID 0000.0001) %MON time_tsnumber                =                174708
(PID.TID 0000.0001) %MON time_secondsf                =   7.8618600000000E+07
(PID.TID 0000.0001) %MON dynstat_eta_max              =   2.7919519330868E+00
(PID.TID 0000.0001) %MON dynstat_eta_min              =  -1.1741440890525E+01
(PID.TID 0000.0001) %MON dynstat_eta_mean             =   6.7401366858051E-02
(PID.TID 0000.0001) %MON dynstat_eta_sd               =   8.4544800293523E-01
(PID.TID 0000.0001) %MON dynstat_eta_del2             =   2.0233255034254E-03
(PID.TID 0000.0001) %MON dynstat_uvel_max             =   1.5994620568773E+00
(PID.TID 0000.0001) %MON dynstat_uvel_min             =  -2.4791153970734E+00
(PID.TID 0000.0001) %MON dynstat_uvel_mean            =   1.3235595921352E-03
(PID.TID 0000.0001) %MON dynstat_uvel_sd              =   3.0545194258822E-02
(PID.TID 0000.0001) %MON dynstat_uvel_del2            =   3.0368806447227E-05
(PID.TID 0000.0001) %MON dynstat_vvel_max             =   2.0387333464502E+00
(PID.TID 0000.0001) %MON dynstat_vvel_min             =  -2.1906916822649E+00
(PID.TID 0000.0001) %MON dynstat_vvel_mean            =   5.2724359443621E-04
(PID.TID 0000.0001) %MON dynstat_vvel_sd              =   3.0753746177531E-02
(PID.TID 0000.0001) %MON dynstat_vvel_del2            =   2.9272750899897E-05
(PID.TID 0000.0001) %MON dynstat_wvel_max             =   8.9109429434912E-03
(PID.TID 0000.0001) %MON dynstat_wvel_min             =  -1.0918391819021E-02
(PID.TID 0000.0001) %MON dynstat_wvel_mean            =   1.3394706321736E-07
(PID.TID 0000.0001) %MON dynstat_wvel_sd              =   9.0278256344959E-05
(PID.TID 0000.0001) %MON dynstat_wvel_del2            =   2.0253014961346E-07
(PID.TID 0000.0001) %MON dynstat_theta_max            =   3.2498944378558E+01
(PID.TID 0000.0001) %MON dynstat_theta_min            =  -2.0203832619709E+00
(PID.TID 0000.0001) %MON dynstat_theta_mean           =   3.5921581723029E+00
(PID.TID 0000.0001) %MON dynstat_theta_sd             =   4.4421349932894E+00
(PID.TID 0000.0001) %MON dynstat_theta_del2           =   1.1987242387061E-04
(PID.TID 0000.0001) %MON dynstat_salt_max             =   4.0655994006050E+01
(PID.TID 0000.0001) %MON dynstat_salt_min             =   1.6173089335923E+01
(PID.TID 0000.0001) %MON dynstat_salt_mean            =   3.4724841462295E+01
(PID.TID 0000.0001) %MON dynstat_salt_sd              =   3.7960506074255E-01
(PID.TID 0000.0001) %MON dynstat_salt_del2            =   7.1989930454653E-05
(PID.TID 0000.0001) %MON dynstat_sst_max              =   3.2498944378558E+01
(PID.TID 0000.0001) %MON dynstat_sst_min              =  -2.0203832619709E+00
(PID.TID 0000.0001) %MON dynstat_sst_mean             =   1.8175482287909E+01
(PID.TID 0000.0001) %MON dynstat_sst_sd               =   1.0156733806907E+01
(PID.TID 0000.0001) %MON dynstat_sst_del2             =   1.1295764025261E-03
(PID.TID 0000.0001) %MON dynstat_sss_max              =   3.9472111776849E+01
(PID.TID 0000.0001) %MON dynstat_sss_min              =   1.6173089335923E+01
(PID.TID 0000.0001) %MON dynstat_sss_mean             =   3.4649131488799E+01
(PID.TID 0000.0001) %MON dynstat_sss_sd               =   1.2885561561822E+00
(PID.TID 0000.0001) %MON dynstat_sss_del2             =   1.4460497066989E-03
(PID.TID 0000.0001) %MON forcing_qnet_max             =   2.7632717869100E+03
(PID.TID 0000.0001) %MON forcing_qnet_min             =  -4.8193276367188E+03
(PID.TID 0000.0001) %MON forcing_qnet_mean            =  -8.8288698852808E+00
(PID.TID 0000.0001) %MON forcing_qnet_sd              =   2.3279829708351E+02
(PID.TID 0000.0001) %MON forcing_qnet_del2            =   6.9041292347741E-01
(PID.TID 0000.0001) %MON forcing_qsw_max              =   0.0000000000000E+00
(PID.TID 0000.0001) %MON forcing_qsw_min              =  -1.1099100925256E+02
(PID.TID 0000.0001) %MON forcing_qsw_mean             =  -1.8226323217680E+01
(PID.TID 0000.0001) %MON forcing_qsw_sd               =   3.0128110147317E+01
(PID.TID 0000.0001) %MON forcing_qsw_del2             =   2.2328746849916E-02
(PID.TID 0000.0001) %MON forcing_empmr_max            =   2.8419198468328E-02
(PID.TID 0000.0001) %MON forcing_empmr_min            =  -4.5406505465508E-02
(PID.TID 0000.0001) %MON forcing_empmr_mean           =   7.6639875696653E-06
(PID.TID 0000.0001) %MON forcing_empmr_sd             =   3.9650078751808E-04
(PID.TID 0000.0001) %MON forcing_empmr_del2           =   4.4785657664851E-06
(PID.TID 0000.0001) %MON forcing_fu_max               =   1.1356781288744E+00
(PID.TID 0000.0001) %MON forcing_fu_min               =  -8.6843054471857E-01
(PID.TID 0000.0001) %MON forcing_fu_mean              =   9.5871074409995E-03
(PID.TID 0000.0001) %MON forcing_fu_sd                =   1.1902300318479E-01
(PID.TID 0000.0001) %MON forcing_fu_del2              =   1.5294154809141E-04
(PID.TID 0000.0001) %MON forcing_fv_max               =   8.4843499144444E-01
(PID.TID 0000.0001) %MON forcing_fv_min               =  -1.4837630196364E+00
(PID.TID 0000.0001) %MON forcing_fv_mean              =  -2.0906912591147E-03
(PID.TID 0000.0001) %MON forcing_fv_sd                =   1.0693606828592E-01
(PID.TID 0000.0001) %MON forcing_fv_del2              =   1.5494945650189E-04
(PID.TID 0000.0001) %MON trAdv_CFL_u_max              =   2.5571229780039E-02
(PID.TID 0000.0001) %MON trAdv_CFL_v_max              =   1.9443837790581E-02
(PID.TID 0000.0001) %MON trAdv_CFL_w_max              =   1.1976422517190E-01
(PID.TID 0000.0001) %MON advcfl_uvel_max              =   2.5913280599211E-02
(PID.TID 0000.0001) %MON advcfl_vvel_max              =   1.9443379058693E-02
(PID.TID 0000.0001) %MON advcfl_wvel_max              =   1.1373151189940E-01
(PID.TID 0000.0001) %MON advcfl_W_hf_max              =   1.1976422517190E-01
(PID.TID 0000.0001) %MON pe_b_mean                    =   1.9186216023238E-03
(PID.TID 0000.0001) %MON ke_max                       =   2.1768859416676E+00
(PID.TID 0000.0001) %MON ke_mean                      =   9.0692063776376E-04
(PID.TID 0000.0001) %MON ke_vol                       =   1.3350064351420E+18
(PID.TID 0000.0001) %MON vort_r_min                   =  -8.9633231563749E-05
(PID.TID 0000.0001) %MON vort_r_max                   =   9.2259096032749E-05
(PID.TID 0000.0001) %MON vort_a_mean                  =  -1.9725066874348E-05
(PID.TID 0000.0001) %MON vort_a_sd                    =   7.4539124088976E-05
(PID.TID 0000.0001) %MON vort_p_mean                  =  -2.1669070848367E-05
(PID.TID 0000.0001) %MON vort_p_sd                    =   9.3607273758259E-05
(PID.TID 0000.0001) %MON surfExpan_theta_mean         =   1.0603101452405E-05
(PID.TID 0000.0001) %MON surfExpan_salt_mean          =   4.4365035041623E-06
(PID.TID 0000.0001) // =======================================================
(PID.TID 0000.0001) // End MONITOR dynamic field statistics
(PID.TID 0000.0001) // =======================================================
(PID.TID 0000.0001) // =======================================================
(PID.TID 0000.0001) // Begin MONITOR SEAICE statistics
(PID.TID 0000.0001) // =======================================================
(PID.TID 0000.0001) %MON seaice_tsnumber              =                174708
(PID.TID 0000.0001) %MON seaice_time_sec              =   7.8618600000000E+07
(PID.TID 0000.0001) %MON seaice_uice_max              =   1.3226392524752E+00
(PID.TID 0000.0001) %MON seaice_uice_min              =  -1.4647088223717E+00
(PID.TID 0000.0001) %MON seaice_uice_mean             =   8.6533417479655E-04
(PID.TID 0000.0001) %MON seaice_uice_sd               =   1.5704307666938E-01
(PID.TID 0000.0001) %MON seaice_uice_del2             =   3.2947046618246E-04
(PID.TID 0000.0001) %MON seaice_vice_max              =   1.9530857529395E+00
(PID.TID 0000.0001) %MON seaice_vice_min              =  -1.6016221566839E+00
(PID.TID 0000.0001) %MON seaice_vice_mean             =  -2.5096324191038E-02
(PID.TID 0000.0001) %MON seaice_vice_sd               =   1.6350700346603E-01
(PID.TID 0000.0001) %MON seaice_vice_del2             =   3.1686660373358E-04
(PID.TID 0000.0001) %MON seaice_area_max              =   1.0074964570047E+00
(PID.TID 0000.0001) %MON seaice_area_min              =   0.0000000000000E+00
(PID.TID 0000.0001) %MON seaice_area_mean             =   5.7289042082604E-02
(PID.TID 0000.0001) %MON seaice_area_sd               =   2.2156103855984E-01
(PID.TID 0000.0001) %MON seaice_area_del2             =   3.1218120286191E-04
(PID.TID 0000.0001) %MON seaice_heff_max              =   9.9491337498103E+00
(PID.TID 0000.0001) %MON seaice_heff_min              =   0.0000000000000E+00
(PID.TID 0000.0001) %MON seaice_heff_mean             =   1.5001023985725E-01
(PID.TID 0000.0001) %MON seaice_heff_sd               =   7.2144380807407E-01
(PID.TID 0000.0001) %MON seaice_heff_del2             =   1.4626961127770E-03
(PID.TID 0000.0001) %MON seaice_hsnow_max             =   3.2862289503794E+00
(PID.TID 0000.0001) %MON seaice_hsnow_min             =   0.0000000000000E+00
(PID.TID 0000.0001) %MON seaice_hsnow_mean            =   1.2726177908392E-02
(PID.TID 0000.0001) %MON seaice_hsnow_sd              =   6.9052741200562E-02
(PID.TID 0000.0001) %MON seaice_hsnow_del2            =   4.0777583192182E-04
(PID.TID 0000.0001) // =======================================================
(PID.TID 0000.0001) // End MONITOR SEAICE statistics
(PID.TID 0000.0001) // =======================================================
(PID.TID 0000.0001) // =======================================================
(PID.TID 0000.0001) // Begin MONITOR dynamic field statistics
(PID.TID 0000.0001) // =======================================================
(PID.TID 0000.0001) %MON time_tsnumber                =                174709
(PID.TID 0000.0001) %MON time_secondsf                =   7.8619050000000E+07
(PID.TID 0000.0001) %MON dynstat_eta_max              =   2.6839349133894E+00
(PID.TID 0000.0001) %MON dynstat_eta_min              =  -1.1708384284455E+01
(PID.TID 0000.0001) %MON dynstat_eta_mean             =   6.7422560766387E-02
(PID.TID 0000.0001) %MON dynstat_eta_sd               =   8.4585142417348E-01
(PID.TID 0000.0001) %MON dynstat_eta_del2             =   2.0227233084322E-03
(PID.TID 0000.0001) %MON dynstat_uvel_max             =   1.5970522549041E+00
(PID.TID 0000.0001) %MON dynstat_uvel_min             =  -2.4957978935638E+00
(PID.TID 0000.0001) %MON dynstat_uvel_mean            =   1.2910545907699E-03
(PID.TID 0000.0001) %MON dynstat_uvel_sd              =   3.0519964125591E-02
(PID.TID 0000.0001) %MON dynstat_uvel_del2            =   3.0485315295689E-05
(PID.TID 0000.0001) %MON dynstat_vvel_max             =   2.1126672641552E+00
(PID.TID 0000.0001) %MON dynstat_vvel_min             =  -2.1871464091247E+00
(PID.TID 0000.0001) %MON dynstat_vvel_mean            =   5.3162267045737E-04
(PID.TID 0000.0001) %MON dynstat_vvel_sd              =   3.0732651110879E-02
(PID.TID 0000.0001) %MON dynstat_vvel_del2            =   2.9378936443664E-05
(PID.TID 0000.0001) %MON dynstat_wvel_max             =   8.8528881062096E-03
(PID.TID 0000.0001) %MON dynstat_wvel_min             =  -1.0880738488129E-02
(PID.TID 0000.0001) %MON dynstat_wvel_mean            =   1.1813331793219E-07
(PID.TID 0000.0001) %MON dynstat_wvel_sd              =   9.0510285532018E-05
(PID.TID 0000.0001) %MON dynstat_wvel_del2            =   2.0337239410843E-07
(PID.TID 0000.0001) %MON dynstat_theta_max            =   3.2500687524457E+01
(PID.TID 0000.0001) %MON dynstat_theta_min            =  -2.0208373585273E+00
(PID.TID 0000.0001) %MON dynstat_theta_mean           =   3.5921570227254E+00
(PID.TID 0000.0001) %MON dynstat_theta_sd             =   4.4421360820965E+00
(PID.TID 0000.0001) %MON dynstat_theta_del2           =   1.1993016246810E-04
(PID.TID 0000.0001) %MON dynstat_salt_max             =   4.0655993922298E+01
(PID.TID 0000.0001) %MON dynstat_salt_min             =   1.6172125230097E+01
(PID.TID 0000.0001) %MON dynstat_salt_mean            =   3.4724840972743E+01
(PID.TID 0000.0001) %MON dynstat_salt_sd              =   3.7960712228693E-01
(PID.TID 0000.0001) %MON dynstat_salt_del2            =   7.1902765317206E-05
(PID.TID 0000.0001) %MON dynstat_sst_max              =   3.2500687524457E+01
(PID.TID 0000.0001) %MON dynstat_sst_min              =  -2.0208373585273E+00
(PID.TID 0000.0001) %MON dynstat_sst_mean             =   1.8175632815616E+01
(PID.TID 0000.0001) %MON dynstat_sst_sd               =   1.0157063122488E+01
(PID.TID 0000.0001) %MON dynstat_sst_del2             =   1.1290638909839E-03
(PID.TID 0000.0001) %MON dynstat_sss_max              =   3.9472145769435E+01
(PID.TID 0000.0001) %MON dynstat_sss_min              =   1.6172125230097E+01
(PID.TID 0000.0001) %MON dynstat_sss_mean             =   3.4649054909580E+01
(PID.TID 0000.0001) %MON dynstat_sss_sd               =   1.2886891816422E+00
(PID.TID 0000.0001) %MON dynstat_sss_del2             =   1.4462270915372E-03
(PID.TID 0000.0001) %MON forcing_qnet_max             =   2.9452808581938E+03
(PID.TID 0000.0001) %MON forcing_qnet_min             =  -1.5736079101562E+03
(PID.TID 0000.0001) %MON forcing_qnet_mean            =  -1.0664882798912E+01
(PID.TID 0000.0001) %MON forcing_qnet_sd              =   2.3059897841478E+02
(PID.TID 0000.0001) %MON forcing_qnet_del2            =   6.0530175671925E-01
(PID.TID 0000.0001) %MON forcing_qsw_max              =   0.0000000000000E+00
(PID.TID 0000.0001) %MON forcing_qsw_min              =  -1.1133384623207E+02
(PID.TID 0000.0001) %MON forcing_qsw_mean             =  -1.8603070847168E+01
(PID.TID 0000.0001) %MON forcing_qsw_sd               =   3.0099740525523E+01
(PID.TID 0000.0001) %MON forcing_qsw_del2             =   2.2357198560111E-02
(PID.TID 0000.0001) %MON forcing_empmr_max            =   2.8367025777698E-02
(PID.TID 0000.0001) %MON forcing_empmr_min            =  -4.6205136924982E-02
(PID.TID 0000.0001) %MON forcing_empmr_mean           =   7.4062084731026E-06
(PID.TID 0000.0001) %MON forcing_empmr_sd             =   3.9735420451383E-04
(PID.TID 0000.0001) %MON forcing_empmr_del2           =   4.4826173916645E-06
(PID.TID 0000.0001) %MON forcing_fu_max               =   1.1362846351626E+00
(PID.TID 0000.0001) %MON forcing_fu_min               =  -9.1949568200059E-01
(PID.TID 0000.0001) %MON forcing_fu_mean              =   9.6134711249779E-03
(PID.TID 0000.0001) %MON forcing_fu_sd                =   1.1911050067607E-01
(PID.TID 0000.0001) %MON forcing_fu_del2              =   1.5349700642893E-04
(PID.TID 0000.0001) %MON forcing_fv_max               =   8.5021724518511E-01
(PID.TID 0000.0001) %MON forcing_fv_min               =  -1.4580363761476E+00
(PID.TID 0000.0001) %MON forcing_fv_mean              =  -2.0965448211928E-03
(PID.TID 0000.0001) %MON forcing_fv_sd                =   1.0694115316279E-01
(PID.TID 0000.0001) %MON forcing_fv_del2              =   1.5557463308374E-04
(PID.TID 0000.0001) %MON trAdv_CFL_u_max              =   2.5743304041513E-02
(PID.TID 0000.0001) %MON trAdv_CFL_v_max              =   1.9412371146315E-02
(PID.TID 0000.0001) %MON trAdv_CFL_w_max              =   1.2059580623463E-01
(PID.TID 0000.0001) %MON advcfl_uvel_max              =   2.6087656593633E-02
(PID.TID 0000.0001) %MON advcfl_vvel_max              =   1.9411913156809E-02
(PID.TID 0000.0001) %MON advcfl_wvel_max              =   1.1451827095582E-01
(PID.TID 0000.0001) %MON advcfl_W_hf_max              =   1.2059580623463E-01
(PID.TID 0000.0001) %MON pe_b_mean                    =   1.9186976976836E-03
(PID.TID 0000.0001) %MON ke_max                       =   2.1595305045053E+00
(PID.TID 0000.0001) %MON ke_mean                      =   9.0551358226536E-04
(PID.TID 0000.0001) %MON ke_vol                       =   1.3350064351420E+18
(PID.TID 0000.0001) %MON vort_r_min                   =  -9.0128191684556E-05
(PID.TID 0000.0001) %MON vort_r_max                   =   9.2930171384737E-05
(PID.TID 0000.0001) %MON vort_a_mean                  =  -1.9725066708888E-05
(PID.TID 0000.0001) %MON vort_a_sd                    =   7.4539113724175E-05
(PID.TID 0000.0001) %MON vort_p_mean                  =  -2.1669070666601E-05
(PID.TID 0000.0001) %MON vort_p_sd                    =   9.3607228151397E-05
(PID.TID 0000.0001) %MON surfExpan_theta_mean         =   1.0944796379446E-05
(PID.TID 0000.0001) %MON surfExpan_salt_mean          =   3.6332799640936E-06
(PID.TID 0000.0001) // =======================================================
(PID.TID 0000.0001) // End MONITOR dynamic field statistics
(PID.TID 0000.0001) // =======================================================
(PID.TID 0000.0001) // =======================================================
(PID.TID 0000.0001) // Begin MONITOR SEAICE statistics
(PID.TID 0000.0001) // =======================================================
(PID.TID 0000.0001) %MON seaice_tsnumber              =                174709
(PID.TID 0000.0001) %MON seaice_time_sec              =   7.8619050000000E+07
(PID.TID 0000.0001) %MON seaice_uice_max              =   1.3073439857315E+00
(PID.TID 0000.0001) %MON seaice_uice_min              =  -1.4532059842619E+00
(PID.TID 0000.0001) %MON seaice_uice_mean             =   8.1987535848388E-04
(PID.TID 0000.0001) %MON seaice_uice_sd               =   1.5691633772840E-01
(PID.TID 0000.0001) %MON seaice_uice_del2             =   3.2965909078196E-04
(PID.TID 0000.0001) %MON seaice_vice_max              =   2.0387333464502E+00
(PID.TID 0000.0001) %MON seaice_vice_min              =  -1.5942275163231E+00
(PID.TID 0000.0001) %MON seaice_vice_mean             =  -2.5114140302812E-02
(PID.TID 0000.0001) %MON seaice_vice_sd               =   1.6342289619492E-01
(PID.TID 0000.0001) %MON seaice_vice_del2             =   3.1710092425917E-04
(PID.TID 0000.0001) %MON seaice_area_max              =   1.0069173087852E+00
(PID.TID 0000.0001) %MON seaice_area_min              =   0.0000000000000E+00
(PID.TID 0000.0001) %MON seaice_area_mean             =   5.7290593416349E-02
(PID.TID 0000.0001) %MON seaice_area_sd               =   2.2155560376778E-01
(PID.TID 0000.0001) %MON seaice_area_del2             =   3.1177608093914E-04
(PID.TID 0000.0001) %MON seaice_heff_max              =   9.9491261860344E+00
(PID.TID 0000.0001) %MON seaice_heff_min              =   0.0000000000000E+00
(PID.TID 0000.0001) %MON seaice_heff_mean             =   1.5000675454207E-01
(PID.TID 0000.0001) %MON seaice_heff_sd               =   7.2143245137784E-01
(PID.TID 0000.0001) %MON seaice_heff_del2             =   1.4613910003755E-03
(PID.TID 0000.0001) %MON seaice_hsnow_max             =   3.2862263473943E+00
(PID.TID 0000.0001) %MON seaice_hsnow_min             =   0.0000000000000E+00
(PID.TID 0000.0001) %MON seaice_hsnow_mean            =   1.2725370320462E-02
(PID.TID 0000.0001) %MON seaice_hsnow_sd              =   6.9043176323047E-02
(PID.TID 0000.0001) %MON seaice_hsnow_del2            =   4.0735762105510E-04
(PID.TID 0000.0001) // =======================================================
(PID.TID 0000.0001) // End MONITOR SEAICE statistics
(PID.TID 0000.0001) // =======================================================
(PID.TID 0000.0001) // =======================================================
(PID.TID 0000.0001) // Begin MONITOR dynamic field statistics
(PID.TID 0000.0001) // =======================================================
(PID.TID 0000.0001) %MON time_tsnumber                =                174710
(PID.TID 0000.0001) %MON time_secondsf                =   7.8619500000000E+07
(PID.TID 0000.0001) %MON dynstat_eta_max              =   2.5594777914233E+00
(PID.TID 0000.0001) %MON dynstat_eta_min              =  -1.1652170447832E+01
(PID.TID 0000.0001) %MON dynstat_eta_mean             =   6.7431007017798E-02
(PID.TID 0000.0001) %MON dynstat_eta_sd               =   8.4625297030872E-01
(PID.TID 0000.0001) %MON dynstat_eta_del2             =   2.0220659857848E-03
(PID.TID 0000.0001) %MON dynstat_uvel_max             =   1.5945838644204E+00
(PID.TID 0000.0001) %MON dynstat_uvel_min             =  -2.5125475773962E+00
(PID.TID 0000.0001) %MON dynstat_uvel_mean            =   1.2572108074996E-03
(PID.TID 0000.0001) %MON dynstat_uvel_sd              =   3.0496373123015E-02
(PID.TID 0000.0001) %MON dynstat_uvel_del2            =   3.0603555050893E-05
(PID.TID 0000.0001) %MON dynstat_vvel_max             =   2.1741669128062E+00
(PID.TID 0000.0001) %MON dynstat_vvel_min             =  -2.1839032010218E+00
(PID.TID 0000.0001) %MON dynstat_vvel_mean            =   5.3894438125221E-04
(PID.TID 0000.0001) %MON dynstat_vvel_sd              =   3.0709309054056E-02
(PID.TID 0000.0001) %MON dynstat_vvel_del2            =   2.9485699708331E-05
(PID.TID 0000.0001) %MON dynstat_wvel_max             =   8.7928130492457E-03
(PID.TID 0000.0001) %MON dynstat_wvel_min             =  -1.0841772928986E-02
(PID.TID 0000.0001) %MON dynstat_wvel_mean            =   1.0138644481047E-07
(PID.TID 0000.0001) %MON dynstat_wvel_sd              =   9.0738901274213E-05
(PID.TID 0000.0001) %MON dynstat_wvel_del2            =   2.0421812142276E-07
(PID.TID 0000.0001) %MON dynstat_theta_max            =   3.2502289129602E+01
(PID.TID 0000.0001) %MON dynstat_theta_min            =  -2.0212883466174E+00
(PID.TID 0000.0001) %MON dynstat_theta_mean           =   3.5921558476710E+00
(PID.TID 0000.0001) %MON dynstat_theta_sd             =   4.4421371979311E+00
(PID.TID 0000.0001) %MON dynstat_theta_del2           =   1.1998906050948E-04
(PID.TID 0000.0001) %MON dynstat_salt_max             =   4.0655993838350E+01
(PID.TID 0000.0001) %MON dynstat_salt_min             =   1.6171163429898E+01
(PID.TID 0000.0001) %MON dynstat_salt_mean            =   3.4724840471358E+01
(PID.TID 0000.0001) %MON dynstat_salt_sd              =   3.7960923395785E-01
(PID.TID 0000.0001) %MON dynstat_salt_del2            =   7.1816659223963E-05
(PID.TID 0000.0001) %MON dynstat_sst_max              =   3.2502289129602E+01
(PID.TID 0000.0001) %MON dynstat_sst_min              =  -2.0212883466174E+00
(PID.TID 0000.0001) %MON dynstat_sst_mean             =   1.8175792855883E+01
(PID.TID 0000.0001) %MON dynstat_sst_sd               =   1.0157395474021E+01
(PID.TID 0000.0001) %MON dynstat_sst_del2             =   1.1285980593370E-03
(PID.TID 0000.0001) %MON dynstat_sss_max              =   3.9472180524401E+01
(PID.TID 0000.0001) %MON dynstat_sss_min              =   1.6171163429898E+01
(PID.TID 0000.0001) %MON dynstat_sss_mean             =   3.4648979162144E+01
(PID.TID 0000.0001) %MON dynstat_sss_sd               =   1.2888220727510E+00
(PID.TID 0000.0001) %MON dynstat_sss_del2             =   1.4465146055045E-03
(PID.TID 0000.0001) %MON forcing_qnet_max             =   3.1037043182528E+03
(PID.TID 0000.0001) %MON forcing_qnet_min             =  -1.6716563720703E+03
(PID.TID 0000.0001) %MON forcing_qnet_mean            =  -1.1234181822754E+01
(PID.TID 0000.0001) %MON forcing_qnet_sd              =   2.3063858888600E+02
(PID.TID 0000.0001) %MON forcing_qnet_del2            =   6.1085589800850E-01
(PID.TID 0000.0001) %MON forcing_qsw_max              =   0.0000000000000E+00
(PID.TID 0000.0001) %MON forcing_qsw_min              =  -1.1130877634045E+02
(PID.TID 0000.0001) %MON forcing_qsw_mean             =  -1.8732572524525E+01
(PID.TID 0000.0001) %MON forcing_qsw_sd               =   3.0091619997395E+01
(PID.TID 0000.0001) %MON forcing_qsw_del2             =   2.2382474329900E-02
(PID.TID 0000.0001) %MON forcing_empmr_max            =   2.8124198317528E-02
(PID.TID 0000.0001) %MON forcing_empmr_min            =  -4.7839194536209E-02
(PID.TID 0000.0001) %MON forcing_empmr_mean           =   7.2015460090592E-06
(PID.TID 0000.0001) %MON forcing_empmr_sd             =   4.0011439090161E-04
(PID.TID 0000.0001) %MON forcing_empmr_del2           =   4.5112800583608E-06
(PID.TID 0000.0001) %MON forcing_fu_max               =   1.1339260850166E+00
(PID.TID 0000.0001) %MON forcing_fu_min               =  -9.7153107197522E-01
(PID.TID 0000.0001) %MON forcing_fu_mean              =   9.6358730130541E-03
(PID.TID 0000.0001) %MON forcing_fu_sd                =   1.1918640218128E-01
(PID.TID 0000.0001) %MON forcing_fu_del2              =   1.5408540003141E-04
(PID.TID 0000.0001) %MON forcing_fv_max               =   8.5066711998534E-01
(PID.TID 0000.0001) %MON forcing_fv_min               =  -1.4351050668293E+00
(PID.TID 0000.0001) %MON forcing_fv_mean              =  -2.1052952871191E-03
(PID.TID 0000.0001) %MON forcing_fv_sd                =   1.0692965348094E-01
(PID.TID 0000.0001) %MON forcing_fv_del2              =   1.5617211705396E-04
(PID.TID 0000.0001) %MON trAdv_CFL_u_max              =   2.5916071317504E-02
(PID.TID 0000.0001) %MON trAdv_CFL_v_max              =   1.9383585529067E-02
(PID.TID 0000.0001) %MON trAdv_CFL_w_max              =   1.2135740674821E-01
(PID.TID 0000.0001) %MON advcfl_uvel_max              =   2.6262734872607E-02
(PID.TID 0000.0001) %MON advcfl_vvel_max              =   1.9383128218690E-02
(PID.TID 0000.0001) %MON advcfl_wvel_max              =   1.1523850027364E-01
(PID.TID 0000.0001) %MON advcfl_W_hf_max              =   1.2135740674821E-01
(PID.TID 0000.0001) %MON pe_b_mean                    =   1.9184323465341E-03
(PID.TID 0000.0001) %MON ke_max                       =   2.1818237594657E+00
(PID.TID 0000.0001) %MON ke_mean                      =   9.0409014862126E-04
(PID.TID 0000.0001) %MON ke_vol                       =   1.3350064351420E+18
(PID.TID 0000.0001) %MON vort_r_min                   =  -9.0631200393084E-05
(PID.TID 0000.0001) %MON vort_r_max                   =   9.3611684579440E-05
(PID.TID 0000.0001) %MON vort_a_mean                  =  -1.9725066577599E-05
(PID.TID 0000.0001) %MON vort_a_sd                    =   7.4539103505556E-05
(PID.TID 0000.0001) %MON vort_p_mean                  =  -2.1669070522372E-05
(PID.TID 0000.0001) %MON vort_p_sd                    =   9.3607183256340E-05
(PID.TID 0000.0001) %MON surfExpan_theta_mean         =   1.1235886792944E-05
(PID.TID 0000.0001) %MON surfExpan_salt_mean          =   2.7639767641569E-06
(PID.TID 0000.0001) // =======================================================
(PID.TID 0000.0001) // End MONITOR dynamic field statistics
(PID.TID 0000.0001) // =======================================================
(PID.TID 0000.0001) // =======================================================
(PID.TID 0000.0001) // Begin MONITOR SEAICE statistics
(PID.TID 0000.0001) // =======================================================
(PID.TID 0000.0001) %MON seaice_tsnumber              =                174710
(PID.TID 0000.0001) %MON seaice_time_sec              =   7.8619500000000E+07
(PID.TID 0000.0001) %MON seaice_uice_max              =   1.2950092486094E+00
(PID.TID 0000.0001) %MON seaice_uice_min              =  -1.4411146129606E+00
(PID.TID 0000.0001) %MON seaice_uice_mean             =   7.7742494388773E-04
(PID.TID 0000.0001) %MON seaice_uice_sd               =   1.5678819665840E-01
(PID.TID 0000.0001) %MON seaice_uice_del2             =   3.2998052851841E-04
(PID.TID 0000.0001) %MON seaice_vice_max              =   2.1126672641552E+00
(PID.TID 0000.0001) %MON seaice_vice_min              =  -1.5877544147539E+00
(PID.TID 0000.0001) %MON seaice_vice_mean             =  -2.5128515644776E-02
(PID.TID 0000.0001) %MON seaice_vice_sd               =   1.6335526189827E-01
(PID.TID 0000.0001) %MON seaice_vice_del2             =   3.1740133296791E-04
(PID.TID 0000.0001) %MON seaice_area_max              =   1.0062856998683E+00
(PID.TID 0000.0001) %MON seaice_area_min              =   0.0000000000000E+00
(PID.TID 0000.0001) %MON seaice_area_mean             =   5.7292177535112E-02
(PID.TID 0000.0001) %MON seaice_area_sd               =   2.2155017113919E-01
(PID.TID 0000.0001) %MON seaice_area_del2             =   3.1137515026778E-04
(PID.TID 0000.0001) %MON seaice_heff_max              =   9.9491100147501E+00
(PID.TID 0000.0001) %MON seaice_heff_min              =   0.0000000000000E+00
(PID.TID 0000.0001) %MON seaice_heff_mean             =   1.5000325268416E-01
(PID.TID 0000.0001) %MON seaice_heff_sd               =   7.2142095475492E-01
(PID.TID 0000.0001) %MON seaice_heff_del2             =   1.4600974213148E-03
(PID.TID 0000.0001) %MON seaice_hsnow_max             =   3.2862213541192E+00
(PID.TID 0000.0001) %MON seaice_hsnow_min             =   0.0000000000000E+00
(PID.TID 0000.0001) %MON seaice_hsnow_mean            =   1.2724559659887E-02
(PID.TID 0000.0001) %MON seaice_hsnow_sd              =   6.9033617667271E-02
(PID.TID 0000.0001) %MON seaice_hsnow_del2            =   4.0694352320545E-04
(PID.TID 0000.0001) // =======================================================
(PID.TID 0000.0001) // End MONITOR SEAICE statistics
(PID.TID 0000.0001) // =======================================================
(PID.TID 0000.0001) // =======================================================
(PID.TID 0000.0001) // Begin MONITOR dynamic field statistics
(PID.TID 0000.0001) // =======================================================
(PID.TID 0000.0001) %MON time_tsnumber                =                174711
(PID.TID 0000.0001) %MON time_secondsf                =   7.8619950000000E+07
(PID.TID 0000.0001) %MON dynstat_eta_max              =   2.5119709736270E+00
(PID.TID 0000.0001) %MON dynstat_eta_min              =  -1.1574626127542E+01
(PID.TID 0000.0001) %MON dynstat_eta_mean             =   6.7426128687216E-02
(PID.TID 0000.0001) %MON dynstat_eta_sd               =   8.4665146605382E-01
(PID.TID 0000.0001) %MON dynstat_eta_del2             =   2.0213736472258E-03
(PID.TID 0000.0001) %MON dynstat_uvel_max             =   1.5920573716135E+00
(PID.TID 0000.0001) %MON dynstat_uvel_min             =  -2.5293235269272E+00
(PID.TID 0000.0001) %MON dynstat_uvel_mean            =   1.2220836598620E-03
(PID.TID 0000.0001) %MON dynstat_uvel_sd              =   3.0473955558846E-02
(PID.TID 0000.0001) %MON dynstat_uvel_del2            =   3.0722498845555E-05
(PID.TID 0000.0001) %MON dynstat_vvel_max             =   2.2227845966912E+00
(PID.TID 0000.0001) %MON dynstat_vvel_min             =  -2.1809767729666E+00
(PID.TID 0000.0001) %MON dynstat_vvel_mean            =   5.4911849338295E-04
(PID.TID 0000.0001) %MON dynstat_vvel_sd              =   3.0684178255783E-02
(PID.TID 0000.0001) %MON dynstat_vvel_del2            =   2.9591780502711E-05
(PID.TID 0000.0001) %MON dynstat_wvel_max             =   8.7312848201449E-03
(PID.TID 0000.0001) %MON dynstat_wvel_min             =  -1.0801701932829E-02
(PID.TID 0000.0001) %MON dynstat_wvel_mean            =   8.4151279353205E-08
(PID.TID 0000.0001) %MON dynstat_wvel_sd              =   9.0962784841245E-05
(PID.TID 0000.0001) %MON dynstat_wvel_del2            =   2.0506439796390E-07
(PID.TID 0000.0001) %MON dynstat_theta_max            =   3.2503749911925E+01
(PID.TID 0000.0001) %MON dynstat_theta_min            =  -2.0217358547943E+00
(PID.TID 0000.0001) %MON dynstat_theta_mean           =   3.5921546485865E+00
(PID.TID 0000.0001) %MON dynstat_theta_sd             =   4.4421383133392E+00
(PID.TID 0000.0001) %MON dynstat_theta_del2           =   1.2004827594823E-04
(PID.TID 0000.0001) %MON dynstat_salt_max             =   4.0655993754208E+01
(PID.TID 0000.0001) %MON dynstat_salt_min             =   1.6170170928165E+01
(PID.TID 0000.0001) %MON dynstat_salt_mean            =   3.4724839958881E+01
(PID.TID 0000.0001) %MON dynstat_salt_sd              =   3.7961138302601E-01
(PID.TID 0000.0001) %MON dynstat_salt_del2            =   7.1731085524118E-05
(PID.TID 0000.0001) %MON dynstat_sst_max              =   3.2503749911925E+01
(PID.TID 0000.0001) %MON dynstat_sst_min              =  -2.0217358547943E+00
(PID.TID 0000.0001) %MON dynstat_sst_mean             =   1.8175957145790E+01
(PID.TID 0000.0001) %MON dynstat_sst_sd               =   1.0157729547307E+01
(PID.TID 0000.0001) %MON dynstat_sst_del2             =   1.1281013059832E-03
(PID.TID 0000.0001) %MON dynstat_sss_max              =   3.9472216938440E+01
(PID.TID 0000.0001) %MON dynstat_sss_min              =   1.6170170928165E+01
(PID.TID 0000.0001) %MON dynstat_sss_mean             =   3.4648903552074E+01
(PID.TID 0000.0001) %MON dynstat_sss_sd               =   1.2889558516115E+00
(PID.TID 0000.0001) %MON dynstat_sss_del2             =   1.4467233781916E-03
(PID.TID 0000.0001) %MON forcing_qnet_max             =   3.2434809802225E+03
(PID.TID 0000.0001) %MON forcing_qnet_min             =  -1.8128612060547E+03
(PID.TID 0000.0001) %MON forcing_qnet_mean            =  -1.1609839870233E+01
(PID.TID 0000.0001) %MON forcing_qnet_sd              =   2.3087017584847E+02
(PID.TID 0000.0001) %MON forcing_qnet_del2            =   6.2132636890268E-01
(PID.TID 0000.0001) %MON forcing_qsw_max              =   0.0000000000000E+00
(PID.TID 0000.0001) %MON forcing_qsw_min              =  -1.1155016603766E+02
(PID.TID 0000.0001) %MON forcing_qsw_mean             =  -1.8850831879237E+01
(PID.TID 0000.0001) %MON forcing_qsw_sd               =   3.0072254564030E+01
(PID.TID 0000.0001) %MON forcing_qsw_del2             =   2.2396627440295E-02
(PID.TID 0000.0001) %MON forcing_empmr_max            =   2.7551259845495E-02
(PID.TID 0000.0001) %MON forcing_empmr_min            =  -4.5061741024256E-02
(PID.TID 0000.0001) %MON forcing_empmr_mean           =   7.1725977607313E-06
(PID.TID 0000.0001) %MON forcing_empmr_sd             =   3.9645484998088E-04
(PID.TID 0000.0001) %MON forcing_empmr_del2           =   4.4670184220530E-06
(PID.TID 0000.0001) %MON forcing_fu_max               =   1.1285056687494E+00
(PID.TID 0000.0001) %MON forcing_fu_min               =  -1.0236121634041E+00
(PID.TID 0000.0001) %MON forcing_fu_mean              =   9.6601939306390E-03
(PID.TID 0000.0001) %MON forcing_fu_sd                =   1.1926435878573E-01
(PID.TID 0000.0001) %MON forcing_fu_del2              =   1.5463821721163E-04
(PID.TID 0000.0001) %MON forcing_fv_max               =   8.6136752335354E-01
(PID.TID 0000.0001) %MON forcing_fv_min               =  -1.4154425417276E+00
(PID.TID 0000.0001) %MON forcing_fv_mean              =  -2.1105872338295E-03
(PID.TID 0000.0001) %MON forcing_fv_sd                =   1.0690137099780E-01
(PID.TID 0000.0001) %MON forcing_fv_del2              =   1.5675257719543E-04
(PID.TID 0000.0001) %MON trAdv_CFL_u_max              =   2.6089109515219E-02
(PID.TID 0000.0001) %MON trAdv_CFL_v_max              =   1.9357611544288E-02
(PID.TID 0000.0001) %MON trAdv_CFL_w_max              =   1.2204458154947E-01
(PID.TID 0000.0001) %MON advcfl_uvel_max              =   2.6438087697259E-02
(PID.TID 0000.0001) %MON advcfl_vvel_max              =   1.9357154846707E-02
(PID.TID 0000.0001) %MON advcfl_wvel_max              =   1.1588743068043E-01
(PID.TID 0000.0001) %MON advcfl_W_hf_max              =   1.2204458154947E-01
(PID.TID 0000.0001) %MON pe_b_mean                    =   1.9178021586330E-03
(PID.TID 0000.0001) %MON ke_max                       =   2.3835195890593E+00
(PID.TID 0000.0001) %MON ke_mean                      =   9.0265046533547E-04
(PID.TID 0000.0001) %MON ke_vol                       =   1.3350064351420E+18
(PID.TID 0000.0001) %MON vort_r_min                   =  -9.1140636699942E-05
(PID.TID 0000.0001) %MON vort_r_max                   =   9.4301310937982E-05
(PID.TID 0000.0001) %MON vort_a_mean                  =  -1.9725066484021E-05
(PID.TID 0000.0001) %MON vort_a_sd                    =   7.4539093512408E-05
(PID.TID 0000.0001) %MON vort_p_mean                  =  -2.1669070419572E-05
(PID.TID 0000.0001) %MON vort_p_sd                    =   9.3607139023928E-05
(PID.TID 0000.0001) %MON surfExpan_theta_mean         =   1.1471239980449E-05
(PID.TID 0000.0001) %MON surfExpan_salt_mean          =   1.8496019742676E-06
(PID.TID 0000.0001) // =======================================================
(PID.TID 0000.0001) // End MONITOR dynamic field statistics
(PID.TID 0000.0001) // =======================================================
(PID.TID 0000.0001) // =======================================================
(PID.TID 0000.0001) // Begin MONITOR SEAICE statistics
(PID.TID 0000.0001) // =======================================================
(PID.TID 0000.0001) %MON seaice_tsnumber              =                174711
(PID.TID 0000.0001) %MON seaice_time_sec              =   7.8619950000000E+07
(PID.TID 0000.0001) %MON seaice_uice_max              =   1.3057665666180E+00
(PID.TID 0000.0001) %MON seaice_uice_min              =  -1.4285263317534E+00
(PID.TID 0000.0001) %MON seaice_uice_mean             =   7.3213431503207E-04
(PID.TID 0000.0001) %MON seaice_uice_sd               =   1.5667279566129E-01
(PID.TID 0000.0001) %MON seaice_uice_del2             =   3.3033028778307E-04
(PID.TID 0000.0001) %MON seaice_vice_max              =   2.1741669128062E+00
(PID.TID 0000.0001) %MON seaice_vice_min              =  -1.5817239937017E+00
(PID.TID 0000.0001) %MON seaice_vice_mean             =  -2.5137982392996E-02
(PID.TID 0000.0001) %MON seaice_vice_sd               =   1.6329954284747E-01
(PID.TID 0000.0001) %MON seaice_vice_del2             =   3.1775435303591E-04
(PID.TID 0000.0001) %MON seaice_area_max              =   1.0056067911096E+00
(PID.TID 0000.0001) %MON seaice_area_min              =   0.0000000000000E+00
(PID.TID 0000.0001) %MON seaice_area_mean             =   5.7293781827702E-02
(PID.TID 0000.0001) %MON seaice_area_sd               =   2.2154469772246E-01
(PID.TID 0000.0001) %MON seaice_area_del2             =   3.1097814596556E-04
(PID.TID 0000.0001) %MON seaice_heff_max              =   9.9491148993423E+00
(PID.TID 0000.0001) %MON seaice_heff_min              =   0.0000000000000E+00
(PID.TID 0000.0001) %MON seaice_heff_mean             =   1.4999973591591E-01
(PID.TID 0000.0001) %MON seaice_heff_sd               =   7.2140931785028E-01
(PID.TID 0000.0001) %MON seaice_heff_del2             =   1.4588107632819E-03
(PID.TID 0000.0001) %MON seaice_hsnow_max             =   3.2862223440002E+00
(PID.TID 0000.0001) %MON seaice_hsnow_min             =   0.0000000000000E+00
(PID.TID 0000.0001) %MON seaice_hsnow_mean            =   1.2723751334130E-02
(PID.TID 0000.0001) %MON seaice_hsnow_sd              =   6.9024019532662E-02
(PID.TID 0000.0001) %MON seaice_hsnow_del2            =   4.0653153475444E-04
(PID.TID 0000.0001) // =======================================================
(PID.TID 0000.0001) // End MONITOR SEAICE statistics
(PID.TID 0000.0001) // =======================================================
(PID.TID 0000.0001) // =======================================================
(PID.TID 0000.0001) // Begin MONITOR dynamic field statistics
(PID.TID 0000.0001) // =======================================================
(PID.TID 0000.0001) %MON time_tsnumber                =                174712
(PID.TID 0000.0001) %MON time_secondsf                =   7.8620400000000E+07
(PID.TID 0000.0001) %MON dynstat_eta_max              =   2.4599588229575E+00
(PID.TID 0000.0001) %MON dynstat_eta_min              =  -1.1478069645041E+01
(PID.TID 0000.0001) %MON dynstat_eta_mean             =   6.7407805216082E-02
(PID.TID 0000.0001) %MON dynstat_eta_sd               =   8.4704621601190E-01
(PID.TID 0000.0001) %MON dynstat_eta_del2             =   2.0206667828543E-03
(PID.TID 0000.0001) %MON dynstat_uvel_max             =   1.5894869872805E+00
(PID.TID 0000.0001) %MON dynstat_uvel_min             =  -2.5460550695881E+00
(PID.TID 0000.0001) %MON dynstat_uvel_mean            =   1.1857864076286E-03
(PID.TID 0000.0001) %MON dynstat_uvel_sd              =   3.0452348009931E-02
(PID.TID 0000.0001) %MON dynstat_uvel_del2            =   3.0841543339011E-05
(PID.TID 0000.0001) %MON dynstat_vvel_max             =   2.2748350827120E+00
(PID.TID 0000.0001) %MON dynstat_vvel_min             =  -2.1783696774035E+00
(PID.TID 0000.0001) %MON dynstat_vvel_mean            =   5.6205085016254E-04
(PID.TID 0000.0001) %MON dynstat_vvel_sd              =   3.0657637122810E-02
(PID.TID 0000.0001) %MON dynstat_vvel_del2            =   2.9697106717937E-05
(PID.TID 0000.0001) %MON dynstat_wvel_max             =   8.6688781444699E-03
(PID.TID 0000.0001) %MON dynstat_wvel_min             =  -1.0760710414126E-02
(PID.TID 0000.0001) %MON dynstat_wvel_mean            =   6.6862799476556E-08
(PID.TID 0000.0001) %MON dynstat_wvel_sd              =   9.1181153518398E-05
(PID.TID 0000.0001) %MON dynstat_wvel_del2            =   2.0590794839650E-07
(PID.TID 0000.0001) %MON dynstat_theta_max            =   3.2505282403164E+01
(PID.TID 0000.0001) %MON dynstat_theta_min            =  -2.0221768293919E+00
(PID.TID 0000.0001) %MON dynstat_theta_mean           =   3.5921534333833E+00
(PID.TID 0000.0001) %MON dynstat_theta_sd             =   4.4421394239178E+00
(PID.TID 0000.0001) %MON dynstat_theta_del2           =   1.2010849764697E-04
(PID.TID 0000.0001) %MON dynstat_salt_max             =   4.0655993669885E+01
(PID.TID 0000.0001) %MON dynstat_salt_min             =   1.6169120317162E+01
(PID.TID 0000.0001) %MON dynstat_salt_mean            =   3.4724839436390E+01
(PID.TID 0000.0001) %MON dynstat_salt_sd              =   3.7961355696787E-01
(PID.TID 0000.0001) %MON dynstat_salt_del2            =   7.1646601117848E-05
(PID.TID 0000.0001) %MON dynstat_sst_max              =   3.2505282403164E+01
(PID.TID 0000.0001) %MON dynstat_sst_min              =  -2.0221768293919E+00
(PID.TID 0000.0001) %MON dynstat_sst_mean             =   1.8176128370555E+01
(PID.TID 0000.0001) %MON dynstat_sst_sd               =   1.0158063950470E+01
(PID.TID 0000.0001) %MON dynstat_sst_del2             =   1.1276015852056E-03
(PID.TID 0000.0001) %MON dynstat_sss_max              =   3.9472255355210E+01
(PID.TID 0000.0001) %MON dynstat_sss_min              =   1.6169120317162E+01
(PID.TID 0000.0001) %MON dynstat_sss_mean             =   3.4648828978378E+01
(PID.TID 0000.0001) %MON dynstat_sss_sd               =   1.2890877761352E+00
(PID.TID 0000.0001) %MON dynstat_sss_del2             =   1.4470321944359E-03
(PID.TID 0000.0001) %MON forcing_qnet_max             =   3.3806222396295E+03
(PID.TID 0000.0001) %MON forcing_qnet_min             =  -1.8380446777344E+03
(PID.TID 0000.0001) %MON forcing_qnet_mean            =  -1.2077554661336E+01
(PID.TID 0000.0001) %MON forcing_qnet_sd              =   2.3046078361236E+02
(PID.TID 0000.0001) %MON forcing_qnet_del2            =   6.2331788045973E-01
(PID.TID 0000.0001) %MON forcing_qsw_max              =   0.0000000000000E+00
(PID.TID 0000.0001) %MON forcing_qsw_min              =  -1.1178832758237E+02
(PID.TID 0000.0001) %MON forcing_qsw_mean             =  -1.8956616791474E+01
(PID.TID 0000.0001) %MON forcing_qsw_sd               =   3.0042533895605E+01
(PID.TID 0000.0001) %MON forcing_qsw_del2             =   2.2399628289886E-02
(PID.TID 0000.0001) %MON forcing_empmr_max            =   2.6347357779741E-02
(PID.TID 0000.0001) %MON forcing_empmr_min            =  -4.6358861029148E-02
(PID.TID 0000.0001) %MON forcing_empmr_mean           =   7.1470426387305E-06
(PID.TID 0000.0001) %MON forcing_empmr_sd             =   3.9650872954393E-04
(PID.TID 0000.0001) %MON forcing_empmr_del2           =   4.4693667479099E-06
(PID.TID 0000.0001) %MON forcing_fu_max               =   1.1191072069923E+00
(PID.TID 0000.0001) %MON forcing_fu_min               =  -1.0739299021480E+00
(PID.TID 0000.0001) %MON forcing_fu_mean              =   9.6878598518718E-03
(PID.TID 0000.0001) %MON forcing_fu_sd                =   1.1933914001539E-01
(PID.TID 0000.0001) %MON forcing_fu_del2              =   1.5518431400775E-04
(PID.TID 0000.0001) %MON forcing_fv_max               =   8.6844932303892E-01
(PID.TID 0000.0001) %MON forcing_fv_min               =  -1.4313002059684E+00
(PID.TID 0000.0001) %MON forcing_fv_mean              =  -2.1146814405407E-03
(PID.TID 0000.0001) %MON forcing_fv_sd                =   1.0688479122589E-01
(PID.TID 0000.0001) %MON forcing_fv_del2              =   1.5736047366743E-04
(PID.TID 0000.0001) %MON trAdv_CFL_u_max              =   2.6261689671214E-02
(PID.TID 0000.0001) %MON trAdv_CFL_v_max              =   1.9334471846610E-02
(PID.TID 0000.0001) %MON trAdv_CFL_w_max              =   1.2265246190592E-01
(PID.TID 0000.0001) %MON advcfl_uvel_max              =   2.6612976353245E-02
(PID.TID 0000.0001) %MON advcfl_vvel_max              =   1.9334015694956E-02
(PID.TID 0000.0001) %MON advcfl_wvel_max              =   1.1645985862514E-01
(PID.TID 0000.0001) %MON advcfl_W_hf_max              =   1.2265246190592E-01
(PID.TID 0000.0001) %MON pe_b_mean                    =   1.9167962931222E-03
(PID.TID 0000.0001) %MON ke_max                       =   2.5700762311808E+00
(PID.TID 0000.0001) %MON ke_mean                      =   9.0119539710925E-04
(PID.TID 0000.0001) %MON ke_vol                       =   1.3350064351420E+18
(PID.TID 0000.0001) %MON vort_r_min                   =  -9.1654116057089E-05
(PID.TID 0000.0001) %MON vort_r_max                   =   9.4995867826314E-05
(PID.TID 0000.0001) %MON vort_a_mean                  =  -1.9725066430961E-05
(PID.TID 0000.0001) %MON vort_a_sd                    =   7.4539083827221E-05
(PID.TID 0000.0001) %MON vort_p_mean                  =  -2.1669070361283E-05
(PID.TID 0000.0001) %MON vort_p_sd                    =   9.3607095592935E-05
(PID.TID 0000.0001) %MON surfExpan_theta_mean         =   1.1663178638024E-05
(PID.TID 0000.0001) %MON surfExpan_salt_mean          =   9.2017707633141E-07
(PID.TID 0000.0001) // =======================================================
(PID.TID 0000.0001) // End MONITOR dynamic field statistics
(PID.TID 0000.0001) // =======================================================
(PID.TID 0000.0001) // =======================================================
(PID.TID 0000.0001) // Begin MONITOR SEAICE statistics
(PID.TID 0000.0001) // =======================================================
(PID.TID 0000.0001) %MON seaice_tsnumber              =                174712
(PID.TID 0000.0001) %MON seaice_time_sec              =   7.8620400000000E+07
(PID.TID 0000.0001) %MON seaice_uice_max              =   1.3162367222720E+00
(PID.TID 0000.0001) %MON seaice_uice_min              =  -1.4304900971550E+00
(PID.TID 0000.0001) %MON seaice_uice_mean             =   6.8460008986909E-04
(PID.TID 0000.0001) %MON seaice_uice_sd               =   1.5655397280752E-01
(PID.TID 0000.0001) %MON seaice_uice_del2             =   3.3076205731374E-04
(PID.TID 0000.0001) %MON seaice_vice_max              =   2.2227845966912E+00
(PID.TID 0000.0001) %MON seaice_vice_min              =  -1.5761836709479E+00
(PID.TID 0000.0001) %MON seaice_vice_mean             =  -2.5141130584999E-02
(PID.TID 0000.0001) %MON seaice_vice_sd               =   1.6325979663114E-01
(PID.TID 0000.0001) %MON seaice_vice_del2             =   3.1817075909840E-04
(PID.TID 0000.0001) %MON seaice_area_max              =   1.0048903844302E+00
(PID.TID 0000.0001) %MON seaice_area_min              =   0.0000000000000E+00
(PID.TID 0000.0001) %MON seaice_area_mean             =   5.7295402284564E-02
(PID.TID 0000.0001) %MON seaice_area_sd               =   2.2153917044769E-01
(PID.TID 0000.0001) %MON seaice_area_del2             =   3.1059115503758E-04
(PID.TID 0000.0001) %MON seaice_heff_max              =   9.9491121397333E+00
(PID.TID 0000.0001) %MON seaice_heff_min              =   0.0000000000000E+00
(PID.TID 0000.0001) %MON seaice_heff_mean             =   1.4999619648107E-01
(PID.TID 0000.0001) %MON seaice_heff_sd               =   7.2139751941444E-01
(PID.TID 0000.0001) %MON seaice_heff_del2             =   1.4575312133967E-03
(PID.TID 0000.0001) %MON seaice_hsnow_max             =   3.2862219014175E+00
(PID.TID 0000.0001) %MON seaice_hsnow_min             =   0.0000000000000E+00
(PID.TID 0000.0001) %MON seaice_hsnow_mean            =   1.2722920179607E-02
(PID.TID 0000.0001) %MON seaice_hsnow_sd              =   6.9014275984137E-02
(PID.TID 0000.0001) %MON seaice_hsnow_del2            =   4.0612096805420E-04
(PID.TID 0000.0001) // =======================================================
(PID.TID 0000.0001) // End MONITOR SEAICE statistics
(PID.TID 0000.0001) // =======================================================
(PID.TID 0000.0001) // =======================================================
(PID.TID 0000.0001) // Begin MONITOR dynamic field statistics
(PID.TID 0000.0001) // =======================================================
(PID.TID 0000.0001) %MON time_tsnumber                =                174713
(PID.TID 0000.0001) %MON time_secondsf                =   7.8620850000000E+07
(PID.TID 0000.0001) %MON dynstat_eta_max              =   2.3854858588922E+00
(PID.TID 0000.0001) %MON dynstat_eta_min              =  -1.1365210169819E+01
(PID.TID 0000.0001) %MON dynstat_eta_mean             =   6.7375612744768E-02
(PID.TID 0000.0001) %MON dynstat_eta_sd               =   8.4743592356604E-01
(PID.TID 0000.0001) %MON dynstat_eta_del2             =   2.0199609369568E-03
(PID.TID 0000.0001) %MON dynstat_uvel_max             =   1.5868836375792E+00
(PID.TID 0000.0001) %MON dynstat_uvel_min             =  -2.5626888034383E+00
(PID.TID 0000.0001) %MON dynstat_uvel_mean            =   1.1484594117848E-03
(PID.TID 0000.0001) %MON dynstat_uvel_sd              =   3.0431109107380E-02
(PID.TID 0000.0001) %MON dynstat_uvel_del2            =   3.0959774448952E-05
(PID.TID 0000.0001) %MON dynstat_vvel_max             =   2.3972838825822E+00
(PID.TID 0000.0001) %MON dynstat_vvel_min             =  -2.1760763209308E+00
(PID.TID 0000.0001) %MON dynstat_vvel_mean            =   5.7764098752546E-04
(PID.TID 0000.0001) %MON dynstat_vvel_sd              =   3.0630181549394E-02
(PID.TID 0000.0001) %MON dynstat_vvel_del2            =   2.9800169797602E-05
(PID.TID 0000.0001) %MON dynstat_wvel_max             =   8.6061400831201E-03
(PID.TID 0000.0001) %MON dynstat_wvel_min             =  -1.0719000812008E-02
(PID.TID 0000.0001) %MON dynstat_wvel_mean            =   4.9144067744194E-08
(PID.TID 0000.0001) %MON dynstat_wvel_sd              =   9.1393103075595E-05
(PID.TID 0000.0001) %MON dynstat_wvel_del2            =   2.0674519709684E-07
(PID.TID 0000.0001) %MON dynstat_theta_max            =   3.2506819503222E+01
(PID.TID 0000.0001) %MON dynstat_theta_min            =  -2.0226099353219E+00
(PID.TID 0000.0001) %MON dynstat_theta_mean           =   3.5921522047323E+00
(PID.TID 0000.0001) %MON dynstat_theta_sd             =   4.4421405052148E+00
(PID.TID 0000.0001) %MON dynstat_theta_del2           =   1.2016948083864E-04
(PID.TID 0000.0001) %MON dynstat_salt_max             =   4.0655993585417E+01
(PID.TID 0000.0001) %MON dynstat_salt_min             =   1.6167991372766E+01
(PID.TID 0000.0001) %MON dynstat_salt_mean            =   3.4724838903263E+01
(PID.TID 0000.0001) %MON dynstat_salt_sd              =   3.7961575319302E-01
(PID.TID 0000.0001) %MON dynstat_salt_del2            =   7.1562619843206E-05
(PID.TID 0000.0001) %MON dynstat_sst_max              =   3.2506819503222E+01
(PID.TID 0000.0001) %MON dynstat_sst_min              =  -2.0226099353219E+00
(PID.TID 0000.0001) %MON dynstat_sst_mean             =   1.8176302757938E+01
(PID.TID 0000.0001) %MON dynstat_sst_sd               =   1.0158400379834E+01
(PID.TID 0000.0001) %MON dynstat_sst_del2             =   1.1271216844976E-03
(PID.TID 0000.0001) %MON dynstat_sss_max              =   3.9472295431064E+01
(PID.TID 0000.0001) %MON dynstat_sss_min              =   1.6167991372766E+01
(PID.TID 0000.0001) %MON dynstat_sss_mean             =   3.4648754019950E+01
(PID.TID 0000.0001) %MON dynstat_sss_sd               =   1.2892211676151E+00
(PID.TID 0000.0001) %MON dynstat_sss_del2             =   1.4472856338762E-03
(PID.TID 0000.0001) %MON forcing_qnet_max             =   3.4609663185154E+03
(PID.TID 0000.0001) %MON forcing_qnet_min             =  -2.8363430584831E+03
(PID.TID 0000.0001) %MON forcing_qnet_mean            =  -1.2360686327193E+01
(PID.TID 0000.0001) %MON forcing_qnet_sd              =   2.3043096323056E+02
(PID.TID 0000.0001) %MON forcing_qnet_del2            =   6.3505048305959E-01
(PID.TID 0000.0001) %MON forcing_qsw_max              =   0.0000000000000E+00
(PID.TID 0000.0001) %MON forcing_qsw_min              =  -1.1190940202946E+02
(PID.TID 0000.0001) %MON forcing_qsw_mean             =  -1.9049058089255E+01
(PID.TID 0000.0001) %MON forcing_qsw_sd               =   3.0003155404407E+01
(PID.TID 0000.0001) %MON forcing_qsw_del2             =   2.2391571460449E-02
(PID.TID 0000.0001) %MON forcing_empmr_max            =   2.3696238175035E-02
(PID.TID 0000.0001) %MON forcing_empmr_min            =  -4.5910153537989E-02
(PID.TID 0000.0001) %MON forcing_empmr_mean           =   7.1074849030069E-06
(PID.TID 0000.0001) %MON forcing_empmr_sd             =   3.9439708373002E-04
(PID.TID 0000.0001) %MON forcing_empmr_del2           =   4.4295547477039E-06
(PID.TID 0000.0001) %MON forcing_fu_max               =   1.1046722961953E+00
(PID.TID 0000.0001) %MON forcing_fu_min               =  -1.1189466866247E+00
(PID.TID 0000.0001) %MON forcing_fu_mean              =   9.7200061364398E-03
(PID.TID 0000.0001) %MON forcing_fu_sd                =   1.1944318997777E-01
(PID.TID 0000.0001) %MON forcing_fu_del2              =   1.5592450797746E-04
(PID.TID 0000.0001) %MON forcing_fv_max               =   8.7235035670313E-01
(PID.TID 0000.0001) %MON forcing_fv_min               =  -1.5008713295990E+00
(PID.TID 0000.0001) %MON forcing_fv_mean              =  -2.1157242371732E-03
(PID.TID 0000.0001) %MON forcing_fv_sd                =   1.0688326618810E-01
(PID.TID 0000.0001) %MON forcing_fv_del2              =   1.5798826175048E-04
(PID.TID 0000.0001) %MON trAdv_CFL_u_max              =   2.6433260962685E-02
(PID.TID 0000.0001) %MON trAdv_CFL_v_max              =   1.9314116790893E-02
(PID.TID 0000.0001) %MON trAdv_CFL_w_max              =   1.2317502531874E-01
(PID.TID 0000.0001) %MON advcfl_uvel_max              =   2.6786842649740E-02
(PID.TID 0000.0001) %MON advcfl_vvel_max              =   1.9313661119469E-02
(PID.TID 0000.0001) %MON advcfl_wvel_max              =   1.1694938261625E-01
(PID.TID 0000.0001) %MON advcfl_W_hf_max              =   1.2317502531874E-01
(PID.TID 0000.0001) %MON pe_b_mean                    =   1.9153951453677E-03
(PID.TID 0000.0001) %MON ke_max                       =   2.7394162229769E+00
(PID.TID 0000.0001) %MON ke_mean                      =   8.9972702626376E-04
(PID.TID 0000.0001) %MON ke_vol                       =   1.3350064351420E+18
(PID.TID 0000.0001) %MON vort_r_min                   =  -9.2169577436443E-05
(PID.TID 0000.0001) %MON vort_r_max                   =   9.5692617249399E-05
(PID.TID 0000.0001) %MON vort_a_mean                  =  -1.9725066420319E-05
(PID.TID 0000.0001) %MON vort_a_sd                    =   7.4539074509411E-05
(PID.TID 0000.0001) %MON vort_p_mean                  =  -2.1669070349592E-05
(PID.TID 0000.0001) %MON vort_p_sd                    =   9.3607053183228E-05
(PID.TID 0000.0001) %MON surfExpan_theta_mean         =   1.1789236926884E-05
(PID.TID 0000.0001) %MON surfExpan_salt_mean          =  -4.6972958961929E-08
(PID.TID 0000.0001) // =======================================================
(PID.TID 0000.0001) // End MONITOR dynamic field statistics
(PID.TID 0000.0001) // =======================================================
(PID.TID 0000.0001) // =======================================================
(PID.TID 0000.0001) // Begin MONITOR SEAICE statistics
(PID.TID 0000.0001) // =======================================================
(PID.TID 0000.0001) %MON seaice_tsnumber              =                174713
(PID.TID 0000.0001) %MON seaice_time_sec              =   7.8620850000000E+07
(PID.TID 0000.0001) %MON seaice_uice_max              =   1.3264111947384E+00
(PID.TID 0000.0001) %MON seaice_uice_min              =  -1.4322799482669E+00
(PID.TID 0000.0001) %MON seaice_uice_mean             =   6.3837420732984E-04
(PID.TID 0000.0001) %MON seaice_uice_sd               =   1.5643907694463E-01
(PID.TID 0000.0001) %MON seaice_uice_del2             =   3.3121746005062E-04
(PID.TID 0000.0001) %MON seaice_vice_max              =   2.2748350827120E+00
(PID.TID 0000.0001) %MON seaice_vice_min              =  -1.5711303909544E+00
(PID.TID 0000.0001) %MON seaice_vice_mean             =  -2.5138246014144E-02
(PID.TID 0000.0001) %MON seaice_vice_sd               =   1.6322911564400E-01
(PID.TID 0000.0001) %MON seaice_vice_del2             =   3.1861472412343E-04
(PID.TID 0000.0001) %MON seaice_area_max              =   1.0046542354396E+00
(PID.TID 0000.0001) %MON seaice_area_min              =   0.0000000000000E+00
(PID.TID 0000.0001) %MON seaice_area_mean             =   5.7297063937380E-02
(PID.TID 0000.0001) %MON seaice_area_sd               =   2.2153365616349E-01
(PID.TID 0000.0001) %MON seaice_area_del2             =   3.1021660277082E-04
(PID.TID 0000.0001) %MON seaice_heff_max              =   9.9491103421893E+00
(PID.TID 0000.0001) %MON seaice_heff_min              =   0.0000000000000E+00
(PID.TID 0000.0001) %MON seaice_heff_mean             =   1.4999263501770E-01
(PID.TID 0000.0001) %MON seaice_heff_sd               =   7.2138558094362E-01
(PID.TID 0000.0001) %MON seaice_heff_del2             =   1.4562567639974E-03
(PID.TID 0000.0001) %MON seaice_hsnow_max             =   3.2862212212481E+00
(PID.TID 0000.0001) %MON seaice_hsnow_min             =   0.0000000000000E+00
(PID.TID 0000.0001) %MON seaice_hsnow_mean            =   1.2722071437503E-02
(PID.TID 0000.0001) %MON seaice_hsnow_sd              =   6.9004363585634E-02
(PID.TID 0000.0001) %MON seaice_hsnow_del2            =   4.0571104260286E-04
(PID.TID 0000.0001) // =======================================================
(PID.TID 0000.0001) // End MONITOR SEAICE statistics
(PID.TID 0000.0001) // =======================================================
(PID.TID 0000.0001) // =======================================================
(PID.TID 0000.0001) // Begin MONITOR dynamic field statistics
(PID.TID 0000.0001) // =======================================================
(PID.TID 0000.0001) %MON time_tsnumber                =                174714
(PID.TID 0000.0001) %MON time_secondsf                =   7.8621300000000E+07
(PID.TID 0000.0001) %MON dynstat_eta_max              =   2.3250377889243E+00
(PID.TID 0000.0001) %MON dynstat_eta_min              =  -1.1238988586964E+01
(PID.TID 0000.0001) %MON dynstat_eta_mean             =   6.7329181876521E-02
(PID.TID 0000.0001) %MON dynstat_eta_sd               =   8.4781855277554E-01
(PID.TID 0000.0001) %MON dynstat_eta_del2             =   2.0192721678708E-03
(PID.TID 0000.0001) %MON dynstat_uvel_max             =   1.5842560422367E+00
(PID.TID 0000.0001) %MON dynstat_uvel_min             =  -2.5791807149472E+00
(PID.TID 0000.0001) %MON dynstat_uvel_mean            =   1.1102808868088E-03
(PID.TID 0000.0001) %MON dynstat_uvel_sd              =   3.0409846905260E-02
(PID.TID 0000.0001) %MON dynstat_uvel_del2            =   3.1076827077676E-05
(PID.TID 0000.0001) %MON dynstat_vvel_max             =   2.5018193273353E+00
(PID.TID 0000.0001) %MON dynstat_vvel_min             =  -2.1740862631047E+00
(PID.TID 0000.0001) %MON dynstat_vvel_mean            =   5.9577584518905E-04
(PID.TID 0000.0001) %MON dynstat_vvel_sd              =   3.0602311066600E-02
(PID.TID 0000.0001) %MON dynstat_vvel_del2            =   2.9901333374204E-05
(PID.TID 0000.0001) %MON dynstat_wvel_max             =   8.5436044481050E-03
(PID.TID 0000.0001) %MON dynstat_wvel_min             =  -1.0676767216617E-02
(PID.TID 0000.0001) %MON dynstat_wvel_mean            =   3.1056103808687E-08
(PID.TID 0000.0001) %MON dynstat_wvel_sd              =   9.1598703696226E-05
(PID.TID 0000.0001) %MON dynstat_wvel_del2            =   2.0757322678081E-07
(PID.TID 0000.0001) %MON dynstat_theta_max            =   3.2508289956856E+01
(PID.TID 0000.0001) %MON dynstat_theta_min            =  -2.0230298183981E+00
(PID.TID 0000.0001) %MON dynstat_theta_mean           =   3.5921509697666E+00
(PID.TID 0000.0001) %MON dynstat_theta_sd             =   4.4421415514459E+00
(PID.TID 0000.0001) %MON dynstat_theta_del2           =   1.2023119591585E-04
(PID.TID 0000.0001) %MON dynstat_salt_max             =   4.0655993500860E+01
(PID.TID 0000.0001) %MON dynstat_salt_min             =   1.6166770384526E+01
(PID.TID 0000.0001) %MON dynstat_salt_mean            =   3.4724838360337E+01
(PID.TID 0000.0001) %MON dynstat_salt_sd              =   3.7961795834830E-01
(PID.TID 0000.0001) %MON dynstat_salt_del2            =   7.1479786751768E-05
(PID.TID 0000.0001) %MON dynstat_sst_max              =   3.2508289956856E+01
(PID.TID 0000.0001) %MON dynstat_sst_min              =  -2.0230298183981E+00
(PID.TID 0000.0001) %MON dynstat_sst_mean             =   1.8176481530307E+01
(PID.TID 0000.0001) %MON dynstat_sst_sd               =   1.0158738472523E+01
(PID.TID 0000.0001) %MON dynstat_sst_del2             =   1.1266533710280E-03
(PID.TID 0000.0001) %MON dynstat_sss_max              =   3.9472338167385E+01
(PID.TID 0000.0001) %MON dynstat_sss_min              =   1.6166770384526E+01
(PID.TID 0000.0001) %MON dynstat_sss_mean             =   3.4648679557029E+01
(PID.TID 0000.0001) %MON dynstat_sss_sd               =   1.2893543324313E+00
(PID.TID 0000.0001) %MON dynstat_sss_del2             =   1.4476212924465E-03
(PID.TID 0000.0001) %MON forcing_qnet_max             =   3.4949878898095E+03
(PID.TID 0000.0001) %MON forcing_qnet_min             =  -1.3603427734375E+03
(PID.TID 0000.0001) %MON forcing_qnet_mean            =  -1.2555096010470E+01
(PID.TID 0000.0001) %MON forcing_qnet_sd              =   2.2959524249025E+02
(PID.TID 0000.0001) %MON forcing_qnet_del2            =   6.0946809577281E-01
(PID.TID 0000.0001) %MON forcing_qsw_max              =   0.0000000000000E+00
(PID.TID 0000.0001) %MON forcing_qsw_min              =  -1.1191330497757E+02
(PID.TID 0000.0001) %MON forcing_qsw_mean             =  -1.9127848021158E+01
(PID.TID 0000.0001) %MON forcing_qsw_sd               =   2.9954499000306E+01
(PID.TID 0000.0001) %MON forcing_qsw_del2             =   2.2372677495339E-02
(PID.TID 0000.0001) %MON forcing_empmr_max            =   1.9239364191890E-02
(PID.TID 0000.0001) %MON forcing_empmr_min            =  -4.6587172895670E-02
(PID.TID 0000.0001) %MON forcing_empmr_mean           =   7.0198814224000E-06
(PID.TID 0000.0001) %MON forcing_empmr_sd             =   3.9421397707924E-04
(PID.TID 0000.0001) %MON forcing_empmr_del2           =   4.4208162683691E-06
(PID.TID 0000.0001) %MON forcing_fu_max               =   1.0840605008311E+00
(PID.TID 0000.0001) %MON forcing_fu_min               =  -1.1521965676489E+00
(PID.TID 0000.0001) %MON forcing_fu_mean              =   9.7453402579397E-03
(PID.TID 0000.0001) %MON forcing_fu_sd                =   1.1952863934782E-01
(PID.TID 0000.0001) %MON forcing_fu_del2              =   1.5658622642555E-04
(PID.TID 0000.0001) %MON forcing_fv_max               =   8.8180745886657E-01
(PID.TID 0000.0001) %MON forcing_fv_min               =  -1.5556379746380E+00
(PID.TID 0000.0001) %MON forcing_fv_mean              =  -2.1140530172403E-03
(PID.TID 0000.0001) %MON forcing_fv_sd                =   1.0687599497731E-01
(PID.TID 0000.0001) %MON forcing_fv_del2              =   1.5856116621079E-04
(PID.TID 0000.0001) %MON trAdv_CFL_u_max              =   2.6603369405078E-02
(PID.TID 0000.0001) %MON trAdv_CFL_v_max              =   1.9296453711292E-02
(PID.TID 0000.0001) %MON trAdv_CFL_w_max              =   1.2360952491553E-01
(PID.TID 0000.0001) %MON advcfl_uvel_max              =   2.6959226529512E-02
(PID.TID 0000.0001) %MON advcfl_vvel_max              =   1.9295998456587E-02
(PID.TID 0000.0001) %MON advcfl_wvel_max              =   1.1735320346544E-01
(PID.TID 0000.0001) %MON advcfl_W_hf_max              =   1.2360952491553E-01
(PID.TID 0000.0001) %MON pe_b_mean                    =   1.9135802956759E-03
(PID.TID 0000.0001) %MON ke_max                       =   2.8781996196817E+00
(PID.TID 0000.0001) %MON ke_mean                      =   8.9824901121342E-04
(PID.TID 0000.0001) %MON ke_vol                       =   1.3350064351420E+18
(PID.TID 0000.0001) %MON vort_r_min                   =  -9.2685123673466E-05
(PID.TID 0000.0001) %MON vort_r_max                   =   9.6389089077552E-05
(PID.TID 0000.0001) %MON vort_a_mean                  =  -1.9725066453143E-05
(PID.TID 0000.0001) %MON vort_a_sd                    =   7.4539065625488E-05
(PID.TID 0000.0001) %MON vort_p_mean                  =  -2.1669070385650E-05
(PID.TID 0000.0001) %MON vort_p_sd                    =   9.3607011744662E-05
(PID.TID 0000.0001) %MON surfExpan_theta_mean         =   1.1831339027258E-05
(PID.TID 0000.0001) %MON surfExpan_salt_mean          =  -1.0484832772527E-06
(PID.TID 0000.0001) // =======================================================
(PID.TID 0000.0001) // End MONITOR dynamic field statistics
(PID.TID 0000.0001) // =======================================================
(PID.TID 0000.0001) // =======================================================
(PID.TID 0000.0001) // Begin MONITOR SEAICE statistics
(PID.TID 0000.0001) // =======================================================
(PID.TID 0000.0001) %MON seaice_tsnumber              =                174714
(PID.TID 0000.0001) %MON seaice_time_sec              =   7.8621300000000E+07
(PID.TID 0000.0001) %MON seaice_uice_max              =   1.3362123644996E+00
(PID.TID 0000.0001) %MON seaice_uice_min              =  -1.4339100295807E+00
(PID.TID 0000.0001) %MON seaice_uice_mean             =   5.8871090378313E-04
(PID.TID 0000.0001) %MON seaice_uice_sd               =   1.5632148492518E-01
(PID.TID 0000.0001) %MON seaice_uice_del2             =   3.3165969824780E-04
(PID.TID 0000.0001) %MON seaice_vice_max              =   2.3972838825822E+00
(PID.TID 0000.0001) %MON seaice_vice_min              =  -1.5665638565312E+00
(PID.TID 0000.0001) %MON seaice_vice_mean             =  -2.5130039238058E-02
(PID.TID 0000.0001) %MON seaice_vice_sd               =   1.6320799333943E-01
(PID.TID 0000.0001) %MON seaice_vice_del2             =   3.1902609243910E-04
(PID.TID 0000.0001) %MON seaice_area_max              =   1.0045539090499E+00
(PID.TID 0000.0001) %MON seaice_area_min              =   0.0000000000000E+00
(PID.TID 0000.0001) %MON seaice_area_mean             =   5.7298746671499E-02
(PID.TID 0000.0001) %MON seaice_area_sd               =   2.2152821585248E-01
(PID.TID 0000.0001) %MON seaice_area_del2             =   3.0984710410750E-04
(PID.TID 0000.0001) %MON seaice_heff_max              =   9.9491018500757E+00
(PID.TID 0000.0001) %MON seaice_heff_min              =   0.0000000000000E+00
(PID.TID 0000.0001) %MON seaice_heff_mean             =   1.4998904113112E-01
(PID.TID 0000.0001) %MON seaice_heff_sd               =   7.2137348629112E-01
(PID.TID 0000.0001) %MON seaice_heff_del2             =   1.4549851444793E-03
(PID.TID 0000.0001) %MON seaice_hsnow_max             =   3.2862186306219E+00
(PID.TID 0000.0001) %MON seaice_hsnow_min             =   0.0000000000000E+00
(PID.TID 0000.0001) %MON seaice_hsnow_mean            =   1.2721224080187E-02
(PID.TID 0000.0001) %MON seaice_hsnow_sd              =   6.8994405069980E-02
(PID.TID 0000.0001) %MON seaice_hsnow_del2            =   4.0530117780810E-04
(PID.TID 0000.0001) // =======================================================
(PID.TID 0000.0001) // End MONITOR SEAICE statistics
(PID.TID 0000.0001) // =======================================================
(PID.TID 0000.0001) // =======================================================
(PID.TID 0000.0001) // Begin MONITOR dynamic field statistics
(PID.TID 0000.0001) // =======================================================
(PID.TID 0000.0001) %MON time_tsnumber                =                174715
(PID.TID 0000.0001) %MON time_secondsf                =   7.8621750000000E+07
(PID.TID 0000.0001) %MON dynstat_eta_max              =   2.2948050738310E+00
(PID.TID 0000.0001) %MON dynstat_eta_min              =  -1.1102440262923E+01
(PID.TID 0000.0001) %MON dynstat_eta_mean             =   6.7268890327647E-02
(PID.TID 0000.0001) %MON dynstat_eta_sd               =   8.4819192643941E-01
(PID.TID 0000.0001) %MON dynstat_eta_del2             =   2.0186115395528E-03
(PID.TID 0000.0001) %MON dynstat_uvel_max             =   1.5816136253770E+00
(PID.TID 0000.0001) %MON dynstat_uvel_min             =  -2.5954787050346E+00
(PID.TID 0000.0001) %MON dynstat_uvel_mean            =   1.0714833119138E-03
(PID.TID 0000.0001) %MON dynstat_uvel_sd              =   3.0388202281064E-02
(PID.TID 0000.0001) %MON dynstat_uvel_del2            =   3.1192022974201E-05
(PID.TID 0000.0001) %MON dynstat_vvel_max             =   2.5924645150657E+00
(PID.TID 0000.0001) %MON dynstat_vvel_min             =  -2.1723803926734E+00
(PID.TID 0000.0001) %MON dynstat_vvel_mean            =   6.1633967280097E-04
(PID.TID 0000.0001) %MON dynstat_vvel_sd              =   3.0574450489361E-02
(PID.TID 0000.0001) %MON dynstat_vvel_del2            =   2.9999263784317E-05
(PID.TID 0000.0001) %MON dynstat_wvel_max             =   8.4817975105079E-03
(PID.TID 0000.0001) %MON dynstat_wvel_min             =  -1.0634175081764E-02
(PID.TID 0000.0001) %MON dynstat_wvel_mean            =   1.3609380191302E-08
(PID.TID 0000.0001) %MON dynstat_wvel_sd              =   9.1798231187016E-05
(PID.TID 0000.0001) %MON dynstat_wvel_del2            =   2.0838916881169E-07
(PID.TID 0000.0001) %MON dynstat_theta_max            =   3.2509692369004E+01
(PID.TID 0000.0001) %MON dynstat_theta_min            =  -2.0234366561974E+00
(PID.TID 0000.0001) %MON dynstat_theta_mean           =   3.5921497354560E+00
(PID.TID 0000.0001) %MON dynstat_theta_sd             =   4.4421425463951E+00
(PID.TID 0000.0001) %MON dynstat_theta_del2           =   1.2029330467581E-04
(PID.TID 0000.0001) %MON dynstat_salt_max             =   4.0655993416297E+01
(PID.TID 0000.0001) %MON dynstat_salt_min             =   1.6165449690993E+01
(PID.TID 0000.0001) %MON dynstat_salt_mean            =   3.4724837807997E+01
(PID.TID 0000.0001) %MON dynstat_salt_sd              =   3.7962015569573E-01
(PID.TID 0000.0001) %MON dynstat_salt_del2            =   7.1397347521060E-05
(PID.TID 0000.0001) %MON dynstat_sst_max              =   3.2509692369004E+01
(PID.TID 0000.0001) %MON dynstat_sst_min              =  -2.0234366561974E+00
(PID.TID 0000.0001) %MON dynstat_sst_mean             =   1.8176662582488E+01
(PID.TID 0000.0001) %MON dynstat_sst_sd               =   1.0159077926940E+01
(PID.TID 0000.0001) %MON dynstat_sst_del2             =   1.1262076996274E-03
(PID.TID 0000.0001) %MON dynstat_sss_max              =   3.9472383392348E+01
(PID.TID 0000.0001) %MON dynstat_sss_min              =   1.6165449690993E+01
(PID.TID 0000.0001) %MON dynstat_sss_mean             =   3.4648605467142E+01
(PID.TID 0000.0001) %MON dynstat_sss_sd               =   1.2894868350452E+00
(PID.TID 0000.0001) %MON dynstat_sss_del2             =   1.4479888110148E-03
(PID.TID 0000.0001) %MON forcing_qnet_max             =   3.3948846795357E+03
(PID.TID 0000.0001) %MON forcing_qnet_min             =  -1.4134335937500E+03
(PID.TID 0000.0001) %MON forcing_qnet_mean            =  -1.2725017135332E+01
(PID.TID 0000.0001) %MON forcing_qnet_sd              =   2.2909766875744E+02
(PID.TID 0000.0001) %MON forcing_qnet_del2            =   6.0294658578823E-01
(PID.TID 0000.0001) %MON forcing_qsw_max              =   0.0000000000000E+00
(PID.TID 0000.0001) %MON forcing_qsw_min              =  -1.1179982256491E+02
(PID.TID 0000.0001) %MON forcing_qsw_mean             =  -1.9192399738456E+01
(PID.TID 0000.0001) %MON forcing_qsw_sd               =   2.9897169254536E+01
(PID.TID 0000.0001) %MON forcing_qsw_del2             =   2.2342961814495E-02
(PID.TID 0000.0001) %MON forcing_empmr_max            =   1.9232040271163E-02
(PID.TID 0000.0001) %MON forcing_empmr_min            =  -4.4981494545937E-02
(PID.TID 0000.0001) %MON forcing_empmr_mean           =   6.7830475736740E-06
(PID.TID 0000.0001) %MON forcing_empmr_sd             =   3.8921372280448E-04
(PID.TID 0000.0001) %MON forcing_empmr_del2           =   4.3906301270651E-06
(PID.TID 0000.0001) %MON forcing_fu_max               =   1.0543868059399E+00
(PID.TID 0000.0001) %MON forcing_fu_min               =  -1.1637232132127E+00
(PID.TID 0000.0001) %MON forcing_fu_mean              =   9.7682284109379E-03
(PID.TID 0000.0001) %MON forcing_fu_sd                =   1.1962904397143E-01
(PID.TID 0000.0001) %MON forcing_fu_del2              =   1.5729384720728E-04
(PID.TID 0000.0001) %MON forcing_fv_max               =   8.8773448719035E-01
(PID.TID 0000.0001) %MON forcing_fv_min               =  -1.5833418712488E+00
(PID.TID 0000.0001) %MON forcing_fv_mean              =  -2.1085893950547E-03
(PID.TID 0000.0001) %MON forcing_fv_sd                =   1.0687655073254E-01
(PID.TID 0000.0001) %MON forcing_fv_del2              =   1.5904439184441E-04
(PID.TID 0000.0001) %MON trAdv_CFL_u_max              =   2.6771477614147E-02
(PID.TID 0000.0001) %MON trAdv_CFL_v_max              =   1.9433988722694E-02
(PID.TID 0000.0001) %MON trAdv_CFL_w_max              =   1.2395367049934E-01
(PID.TID 0000.0001) %MON advcfl_uvel_max              =   2.7129583420053E-02
(PID.TID 0000.0001) %MON advcfl_vvel_max              =   1.9280858085311E-02
(PID.TID 0000.0001) %MON advcfl_wvel_max              =   1.1766899226676E-01
(PID.TID 0000.0001) %MON advcfl_W_hf_max              =   1.2395367049934E-01
(PID.TID 0000.0001) %MON pe_b_mean                    =   1.9113526832189E-03
(PID.TID 0000.0001) %MON ke_max                       =   2.9886655380130E+00
(PID.TID 0000.0001) %MON ke_mean                      =   8.9676379053902E-04
(PID.TID 0000.0001) %MON ke_vol                       =   1.3350064351420E+18
(PID.TID 0000.0001) %MON vort_r_min                   =  -9.3198590354365E-05
(PID.TID 0000.0001) %MON vort_r_max                   =   9.7082526986781E-05
(PID.TID 0000.0001) %MON vort_a_mean                  =  -1.9725066529534E-05
(PID.TID 0000.0001) %MON vort_a_sd                    =   7.4539057222287E-05
(PID.TID 0000.0001) %MON vort_p_mean                  =  -2.1669070469570E-05
(PID.TID 0000.0001) %MON vort_p_sd                    =   9.3606971440080E-05
(PID.TID 0000.0001) %MON surfExpan_theta_mean         =   1.1804209132310E-05
(PID.TID 0000.0001) %MON surfExpan_salt_mean          =  -2.0307815410112E-06
(PID.TID 0000.0001) // =======================================================
(PID.TID 0000.0001) // End MONITOR dynamic field statistics
(PID.TID 0000.0001) // =======================================================
(PID.TID 0000.0001) // =======================================================
(PID.TID 0000.0001) // Begin MONITOR SEAICE statistics
(PID.TID 0000.0001) // =======================================================
(PID.TID 0000.0001) %MON seaice_tsnumber              =                174715
(PID.TID 0000.0001) %MON seaice_time_sec              =   7.8621750000000E+07
(PID.TID 0000.0001) %MON seaice_uice_max              =   1.3455871645531E+00
(PID.TID 0000.0001) %MON seaice_uice_min              =  -1.4354624154936E+00
(PID.TID 0000.0001) %MON seaice_uice_mean             =   5.3743079147709E-04
(PID.TID 0000.0001) %MON seaice_uice_sd               =   1.5620088609821E-01
(PID.TID 0000.0001) %MON seaice_uice_del2             =   3.3197526683771E-04
(PID.TID 0000.0001) %MON seaice_vice_max              =   2.5018193273353E+00
(PID.TID 0000.0001) %MON seaice_vice_min              =  -1.5625115215261E+00
(PID.TID 0000.0001) %MON seaice_vice_mean             =  -2.5113395241355E-02
(PID.TID 0000.0001) %MON seaice_vice_sd               =   1.6319660523342E-01
(PID.TID 0000.0001) %MON seaice_vice_del2             =   3.1943420675989E-04
(PID.TID 0000.0001) %MON seaice_area_max              =   1.0044452278909E+00
(PID.TID 0000.0001) %MON seaice_area_min              =   0.0000000000000E+00
(PID.TID 0000.0001) %MON seaice_area_mean             =   5.7300452932958E-02
(PID.TID 0000.0001) %MON seaice_area_sd               =   2.2152281882629E-01
(PID.TID 0000.0001) %MON seaice_area_del2             =   3.0948389060640E-04
(PID.TID 0000.0001) %MON seaice_heff_max              =   9.9491000613555E+00
(PID.TID 0000.0001) %MON seaice_heff_min              =   0.0000000000000E+00
(PID.TID 0000.0001) %MON seaice_heff_mean             =   1.4998541587905E-01
(PID.TID 0000.0001) %MON seaice_heff_sd               =   7.2136127453440E-01
(PID.TID 0000.0001) %MON seaice_heff_del2             =   1.4537205283020E-03
(PID.TID 0000.0001) %MON seaice_hsnow_max             =   3.2862177153608E+00
(PID.TID 0000.0001) %MON seaice_hsnow_min             =   0.0000000000000E+00
(PID.TID 0000.0001) %MON seaice_hsnow_mean            =   1.2720353895588E-02
(PID.TID 0000.0001) %MON seaice_hsnow_sd              =   6.8984323919480E-02
(PID.TID 0000.0001) %MON seaice_hsnow_del2            =   4.0489286325560E-04
(PID.TID 0000.0001) // =======================================================
(PID.TID 0000.0001) // End MONITOR SEAICE statistics
(PID.TID 0000.0001) // =======================================================
(PID.TID 0000.0001) // =======================================================
(PID.TID 0000.0001) // Begin MONITOR dynamic field statistics
(PID.TID 0000.0001) // =======================================================
(PID.TID 0000.0001) %MON time_tsnumber                =                174716
(PID.TID 0000.0001) %MON time_secondsf                =   7.8622200000000E+07
(PID.TID 0000.0001) %MON dynstat_eta_max              =   2.2553034044370E+00
(PID.TID 0000.0001) %MON dynstat_eta_min              =  -1.0958573440118E+01
(PID.TID 0000.0001) %MON dynstat_eta_mean             =   6.7195579889797E-02
(PID.TID 0000.0001) %MON dynstat_eta_sd               =   8.4855372501623E-01
(PID.TID 0000.0001) %MON dynstat_eta_del2             =   2.0179889661051E-03
(PID.TID 0000.0001) %MON dynstat_uvel_max             =   1.5789545629907E+00
(PID.TID 0000.0001) %MON dynstat_uvel_min             =  -2.6115147000383E+00
(PID.TID 0000.0001) %MON dynstat_uvel_mean            =   1.0323501558557E-03
(PID.TID 0000.0001) %MON dynstat_uvel_sd              =   3.0365858788427E-02
(PID.TID 0000.0001) %MON dynstat_uvel_del2            =   3.1305385618272E-05
(PID.TID 0000.0001) %MON dynstat_vvel_max             =   2.6620968190013E+00
(PID.TID 0000.0001) %MON dynstat_vvel_min             =  -2.1709337370863E+00
(PID.TID 0000.0001) %MON dynstat_vvel_mean            =   6.3921246574400E-04
(PID.TID 0000.0001) %MON dynstat_vvel_sd              =   3.0547025749134E-02
(PID.TID 0000.0001) %MON dynstat_vvel_del2            =   3.0094546960709E-05
(PID.TID 0000.0001) %MON dynstat_wvel_max             =   8.4211752726911E-03
(PID.TID 0000.0001) %MON dynstat_wvel_min             =  -1.0591400412261E-02
(PID.TID 0000.0001) %MON dynstat_wvel_mean            =  -2.4959335884897E-09
(PID.TID 0000.0001) %MON dynstat_wvel_sd              =   9.1992217796473E-05
(PID.TID 0000.0001) %MON dynstat_wvel_del2            =   2.0919098089433E-07
(PID.TID 0000.0001) %MON dynstat_theta_max            =   3.2511064087629E+01
(PID.TID 0000.0001) %MON dynstat_theta_min            =  -2.0238309462735E+00
(PID.TID 0000.0001) %MON dynstat_theta_mean           =   3.5921485029131E+00
(PID.TID 0000.0001) %MON dynstat_theta_sd             =   4.4421434561942E+00
(PID.TID 0000.0001) %MON dynstat_theta_del2           =   1.2035640412536E-04
(PID.TID 0000.0001) %MON dynstat_salt_max             =   4.0655993331836E+01
(PID.TID 0000.0001) %MON dynstat_salt_min             =   1.6164026769901E+01
(PID.TID 0000.0001) %MON dynstat_salt_mean            =   3.4724837245887E+01
(PID.TID 0000.0001) %MON dynstat_salt_sd              =   3.7962234006727E-01
(PID.TID 0000.0001) %MON dynstat_salt_del2            =   7.1315888281015E-05
(PID.TID 0000.0001) %MON dynstat_sst_max              =   3.2511064087629E+01
(PID.TID 0000.0001) %MON dynstat_sst_min              =  -2.0238309462735E+00
(PID.TID 0000.0001) %MON dynstat_sst_mean             =   1.8176843878467E+01
(PID.TID 0000.0001) %MON dynstat_sst_sd               =   1.0159416557432E+01
(PID.TID 0000.0001) %MON dynstat_sst_del2             =   1.1258201902845E-03
(PID.TID 0000.0001) %MON dynstat_sss_max              =   3.9472431830821E+01
(PID.TID 0000.0001) %MON dynstat_sss_min              =   1.6164026769901E+01
(PID.TID 0000.0001) %MON dynstat_sss_mean             =   3.4648531342146E+01
(PID.TID 0000.0001) %MON dynstat_sss_sd               =   1.2896191786941E+00
(PID.TID 0000.0001) %MON dynstat_sss_del2             =   1.4483848736600E-03
(PID.TID 0000.0001) %MON forcing_qnet_max             =   3.1315872442455E+03
(PID.TID 0000.0001) %MON forcing_qnet_min             =  -1.4584124755859E+03
(PID.TID 0000.0001) %MON forcing_qnet_mean            =  -1.2726871207200E+01
(PID.TID 0000.0001) %MON forcing_qnet_sd              =   2.2878520276940E+02
(PID.TID 0000.0001) %MON forcing_qnet_del2            =   6.0462279502163E-01
(PID.TID 0000.0001) %MON forcing_qsw_max              =   0.0000000000000E+00
(PID.TID 0000.0001) %MON forcing_qsw_min              =  -1.1156973418401E+02
(PID.TID 0000.0001) %MON forcing_qsw_mean             =  -1.9241705416551E+01
(PID.TID 0000.0001) %MON forcing_qsw_sd               =   2.9832046364147E+01
(PID.TID 0000.0001) %MON forcing_qsw_del2             =   2.2302619645381E-02
(PID.TID 0000.0001) %MON forcing_empmr_max            =   1.9271103665233E-02
(PID.TID 0000.0001) %MON forcing_empmr_min            =  -4.5790497213602E-02
(PID.TID 0000.0001) %MON forcing_empmr_mean           =   6.4965717079826E-06
(PID.TID 0000.0001) %MON forcing_empmr_sd             =   3.9236282029376E-04
(PID.TID 0000.0001) %MON forcing_empmr_del2           =   4.4378492203706E-06
(PID.TID 0000.0001) %MON forcing_fu_max               =   1.0135208512306E+00
(PID.TID 0000.0001) %MON forcing_fu_min               =  -1.1433099573411E+00
(PID.TID 0000.0001) %MON forcing_fu_mean              =   9.7830986056855E-03
(PID.TID 0000.0001) %MON forcing_fu_sd                =   1.1970608938840E-01
(PID.TID 0000.0001) %MON forcing_fu_del2              =   1.5787600767330E-04
(PID.TID 0000.0001) %MON forcing_fv_max               =   8.8908027028236E-01
(PID.TID 0000.0001) %MON forcing_fv_min               =  -1.5709632942611E+00
(PID.TID 0000.0001) %MON forcing_fv_mean              =  -2.1030010063194E-03
(PID.TID 0000.0001) %MON forcing_fv_sd                =   1.0686358744789E-01
(PID.TID 0000.0001) %MON forcing_fv_del2              =   1.5942257808216E-04
(PID.TID 0000.0001) %MON trAdv_CFL_u_max              =   2.6936883433285E-02
(PID.TID 0000.0001) %MON trAdv_CFL_v_max              =   1.9577922299561E-02
(PID.TID 0000.0001) %MON trAdv_CFL_w_max              =   1.2420507557065E-01
(PID.TID 0000.0001) %MON advcfl_uvel_max              =   2.7297201772433E-02
(PID.TID 0000.0001) %MON advcfl_vvel_max              =   1.9268018362964E-02
(PID.TID 0000.0001) %MON advcfl_wvel_max              =   1.1789422361754E-01
(PID.TID 0000.0001) %MON advcfl_W_hf_max              =   1.2420507557065E-01
(PID.TID 0000.0001) %MON pe_b_mean                    =   1.9087258906414E-03
(PID.TID 0000.0001) %MON ke_max                       =   3.0595111863150E+00
(PID.TID 0000.0001) %MON ke_mean                      =   8.9527509335800E-04
(PID.TID 0000.0001) %MON ke_vol                       =   1.3350064351420E+18
(PID.TID 0000.0001) %MON vort_r_min                   =  -9.3707589073577E-05
(PID.TID 0000.0001) %MON vort_r_max                   =   9.7769776310741E-05
(PID.TID 0000.0001) %MON vort_a_mean                  =  -1.9725066648832E-05
(PID.TID 0000.0001) %MON vort_a_sd                    =   7.4539049353439E-05
(PID.TID 0000.0001) %MON vort_p_mean                  =  -2.1669070600626E-05
(PID.TID 0000.0001) %MON vort_p_sd                    =   9.3606932329501E-05
(PID.TID 0000.0001) %MON surfExpan_theta_mean         =   1.1728804080187E-05
(PID.TID 0000.0001) %MON surfExpan_salt_mean          =  -2.9530925830606E-06
(PID.TID 0000.0001) // =======================================================
(PID.TID 0000.0001) // End MONITOR dynamic field statistics
(PID.TID 0000.0001) // =======================================================
(PID.TID 0000.0001) // =======================================================
(PID.TID 0000.0001) // Begin MONITOR SEAICE statistics
(PID.TID 0000.0001) // =======================================================
(PID.TID 0000.0001) %MON seaice_tsnumber              =                174716
(PID.TID 0000.0001) %MON seaice_time_sec              =   7.8622200000000E+07
(PID.TID 0000.0001) %MON seaice_uice_max              =   1.3544671070516E+00
(PID.TID 0000.0001) %MON seaice_uice_min              =  -1.4370067334160E+00
(PID.TID 0000.0001) %MON seaice_uice_mean             =   4.8599648956639E-04
(PID.TID 0000.0001) %MON seaice_uice_sd               =   1.5608021611764E-01
(PID.TID 0000.0001) %MON seaice_uice_del2             =   3.3239342540989E-04
(PID.TID 0000.0001) %MON seaice_vice_max              =   2.5924645150657E+00
(PID.TID 0000.0001) %MON seaice_vice_min              =  -1.5589104931702E+00
(PID.TID 0000.0001) %MON seaice_vice_mean             =  -2.5090693032088E-02
(PID.TID 0000.0001) %MON seaice_vice_sd               =   1.6319151306173E-01
(PID.TID 0000.0001) %MON seaice_vice_del2             =   3.1976575586715E-04
(PID.TID 0000.0001) %MON seaice_area_max              =   1.0043302594037E+00
(PID.TID 0000.0001) %MON seaice_area_min              =   0.0000000000000E+00
(PID.TID 0000.0001) %MON seaice_area_mean             =   5.7302171748825E-02
(PID.TID 0000.0001) %MON seaice_area_sd               =   2.2151748455785E-01
(PID.TID 0000.0001) %MON seaice_area_del2             =   3.0912886378546E-04
(PID.TID 0000.0001) %MON seaice_heff_max              =   9.9490934925088E+00
(PID.TID 0000.0001) %MON seaice_heff_min              =   0.0000000000000E+00
(PID.TID 0000.0001) %MON seaice_heff_mean             =   1.4998175263458E-01
(PID.TID 0000.0001) %MON seaice_heff_sd               =   7.2134893186335E-01
(PID.TID 0000.0001) %MON seaice_heff_del2             =   1.4524649070877E-03
(PID.TID 0000.0001) %MON seaice_hsnow_max             =   3.2862158460532E+00
(PID.TID 0000.0001) %MON seaice_hsnow_min             =   0.0000000000000E+00
(PID.TID 0000.0001) %MON seaice_hsnow_mean            =   1.2719471381379E-02
(PID.TID 0000.0001) %MON seaice_hsnow_sd              =   6.8974153066516E-02
(PID.TID 0000.0001) %MON seaice_hsnow_del2            =   4.0448672286185E-04
(PID.TID 0000.0001) // =======================================================
(PID.TID 0000.0001) // End MONITOR SEAICE statistics
(PID.TID 0000.0001) // =======================================================
(PID.TID 0000.0001) // =======================================================
(PID.TID 0000.0001) // Begin MONITOR dynamic field statistics
(PID.TID 0000.0001) // =======================================================
(PID.TID 0000.0001) %MON time_tsnumber                =                174717
(PID.TID 0000.0001) %MON time_secondsf                =   7.8622650000000E+07
(PID.TID 0000.0001) %MON dynstat_eta_max              =   2.2070305286036E+00
(PID.TID 0000.0001) %MON dynstat_eta_min              =  -1.0915574979908E+01
(PID.TID 0000.0001) %MON dynstat_eta_mean             =   6.7109389507321E-02
(PID.TID 0000.0001) %MON dynstat_eta_sd               =   8.4890105439013E-01
(PID.TID 0000.0001) %MON dynstat_eta_del2             =   2.0174109372720E-03
(PID.TID 0000.0001) %MON dynstat_uvel_max             =   1.5762607096431E+00
(PID.TID 0000.0001) %MON dynstat_uvel_min             =  -2.6272399188117E+00
(PID.TID 0000.0001) %MON dynstat_uvel_mean            =   9.9318056173987E-04
(PID.TID 0000.0001) %MON dynstat_uvel_sd              =   3.0342514098912E-02
(PID.TID 0000.0001) %MON dynstat_uvel_del2            =   3.1416508061440E-05
(PID.TID 0000.0001) %MON dynstat_vvel_max             =   2.7148834454157E+00
(PID.TID 0000.0001) %MON dynstat_vvel_min             =  -2.1697142896544E+00
(PID.TID 0000.0001) %MON dynstat_vvel_mean            =   6.6428126119484E-04
(PID.TID 0000.0001) %MON dynstat_vvel_sd              =   3.0520493896208E-02
(PID.TID 0000.0001) %MON dynstat_vvel_del2            =   3.0186008862237E-05
(PID.TID 0000.0001) %MON dynstat_wvel_max             =   8.3621556406487E-03
(PID.TID 0000.0001) %MON dynstat_wvel_min             =  -1.0548619764925E-02
(PID.TID 0000.0001) %MON dynstat_wvel_mean            =  -1.7864885327782E-08
(PID.TID 0000.0001) %MON dynstat_wvel_sd              =   9.2181554839368E-05
(PID.TID 0000.0001) %MON dynstat_wvel_del2            =   2.0997686864238E-07
(PID.TID 0000.0001) %MON dynstat_theta_max            =   3.2512391295223E+01
(PID.TID 0000.0001) %MON dynstat_theta_min            =  -2.0242133831703E+00
(PID.TID 0000.0001) %MON dynstat_theta_mean           =   3.5921473342650E+00
(PID.TID 0000.0001) %MON dynstat_theta_sd             =   4.4421445303843E+00
(PID.TID 0000.0001) %MON dynstat_theta_del2           =   1.2041948585990E-04
(PID.TID 0000.0001) %MON dynstat_salt_max             =   4.0655993247615E+01
(PID.TID 0000.0001) %MON dynstat_salt_min             =   1.6162503436739E+01
(PID.TID 0000.0001) %MON dynstat_salt_mean            =   3.4724836676615E+01
(PID.TID 0000.0001) %MON dynstat_salt_sd              =   3.7962449450555E-01
(PID.TID 0000.0001) %MON dynstat_salt_del2            =   7.1234407894770E-05
(PID.TID 0000.0001) %MON dynstat_sst_max              =   3.2512391295223E+01
(PID.TID 0000.0001) %MON dynstat_sst_min              =  -2.0242133831703E+00
(PID.TID 0000.0001) %MON dynstat_sst_mean             =   1.8177033391263E+01
(PID.TID 0000.0001) %MON dynstat_sst_sd               =   1.0159766507657E+01
(PID.TID 0000.0001) %MON dynstat_sst_del2             =   1.1254330400198E-03
(PID.TID 0000.0001) %MON dynstat_sss_max              =   3.9472483034468E+01
(PID.TID 0000.0001) %MON dynstat_sss_min              =   1.6162503436739E+01
(PID.TID 0000.0001) %MON dynstat_sss_mean             =   3.4648458592572E+01
(PID.TID 0000.0001) %MON dynstat_sss_sd               =   1.2897504137880E+00
(PID.TID 0000.0001) %MON dynstat_sss_del2             =   1.4487332044895E-03
(PID.TID 0000.0001) %MON forcing_qnet_max             =   2.6197119606581E+03
(PID.TID 0000.0001) %MON forcing_qnet_min             =  -1.6416171875000E+03
(PID.TID 0000.0001) %MON forcing_qnet_mean            =  -1.4472175053880E+01
(PID.TID 0000.0001) %MON forcing_qnet_sd              =   2.2768427172263E+02
(PID.TID 0000.0001) %MON forcing_qnet_del2            =   5.9053233273638E-01
(PID.TID 0000.0001) %MON forcing_qsw_max              =   0.0000000000000E+00
(PID.TID 0000.0001) %MON forcing_qsw_min              =  -1.1107286300090E+02
(PID.TID 0000.0001) %MON forcing_qsw_mean             =  -1.9514483469617E+01
(PID.TID 0000.0001) %MON forcing_qsw_sd               =   2.9813796252661E+01
(PID.TID 0000.0001) %MON forcing_qsw_del2             =   2.2312613043950E-02
(PID.TID 0000.0001) %MON forcing_empmr_max            =   1.9306367263198E-02
(PID.TID 0000.0001) %MON forcing_empmr_min            =  -4.5285604894161E-02
(PID.TID 0000.0001) %MON forcing_empmr_mean           =   6.6629097389456E-06
(PID.TID 0000.0001) %MON forcing_empmr_sd             =   3.9029212924306E-04
(PID.TID 0000.0001) %MON forcing_empmr_del2           =   4.4171466799472E-06
(PID.TID 0000.0001) %MON forcing_fu_max               =   1.0004269891970E+00
(PID.TID 0000.0001) %MON forcing_fu_min               =  -1.0892693272179E+00
(PID.TID 0000.0001) %MON forcing_fu_mean              =   9.7953836613616E-03
(PID.TID 0000.0001) %MON forcing_fu_sd                =   1.1975409225997E-01
(PID.TID 0000.0001) %MON forcing_fu_del2              =   1.5837183433509E-04
(PID.TID 0000.0001) %MON forcing_fv_max               =   8.8623834753112E-01
(PID.TID 0000.0001) %MON forcing_fv_min               =  -1.5152909033969E+00
(PID.TID 0000.0001) %MON forcing_fv_mean              =  -2.0929042930889E-03
(PID.TID 0000.0001) %MON forcing_fv_sd                =   1.0682902524205E-01
(PID.TID 0000.0001) %MON forcing_fv_del2              =   1.5959791253631E-04
(PID.TID 0000.0001) %MON trAdv_CFL_u_max              =   2.7099083701603E-02
(PID.TID 0000.0001) %MON trAdv_CFL_v_max              =   1.9719283483473E-02
(PID.TID 0000.0001) %MON trAdv_CFL_w_max              =   1.2436186679631E-01
(PID.TID 0000.0001) %MON advcfl_uvel_max              =   2.7461571695285E-02
(PID.TID 0000.0001) %MON advcfl_vvel_max              =   1.9404254566212E-02
(PID.TID 0000.0001) %MON advcfl_wvel_max              =   1.1802687452070E-01
(PID.TID 0000.0001) %MON advcfl_W_hf_max              =   1.2436186679631E-01
(PID.TID 0000.0001) %MON pe_b_mean                    =   1.9056948080582E-03
(PID.TID 0000.0001) %MON ke_max                       =   3.0951911523822E+00
(PID.TID 0000.0001) %MON ke_mean                      =   8.9378794432622E-04
(PID.TID 0000.0001) %MON ke_vol                       =   1.3350064351420E+18
(PID.TID 0000.0001) %MON vort_r_min                   =  -9.4210166819763E-05
(PID.TID 0000.0001) %MON vort_r_max                   =   9.8448290350116E-05
(PID.TID 0000.0001) %MON vort_a_mean                  =  -1.9725066809481E-05
(PID.TID 0000.0001) %MON vort_a_sd                    =   7.4539042058089E-05
(PID.TID 0000.0001) %MON vort_p_mean                  =  -2.1669070777107E-05
(PID.TID 0000.0001) %MON vort_p_sd                    =   9.3606894586443E-05
(PID.TID 0000.0001) %MON surfExpan_theta_mean         =   1.1577117313310E-05
(PID.TID 0000.0001) %MON surfExpan_salt_mean          =  -3.8510897713838E-06
(PID.TID 0000.0001) // =======================================================
(PID.TID 0000.0001) // End MONITOR dynamic field statistics
(PID.TID 0000.0001) // =======================================================
(PID.TID 0000.0001) // =======================================================
(PID.TID 0000.0001) // Begin MONITOR SEAICE statistics
(PID.TID 0000.0001) // =======================================================
(PID.TID 0000.0001) %MON seaice_tsnumber              =                174717
(PID.TID 0000.0001) %MON seaice_time_sec              =   7.8622650000000E+07
(PID.TID 0000.0001) %MON seaice_uice_max              =   1.3629223635981E+00
(PID.TID 0000.0001) %MON seaice_uice_min              =  -1.4385970311342E+00
(PID.TID 0000.0001) %MON seaice_uice_mean             =   4.3563714250919E-04
(PID.TID 0000.0001) %MON seaice_uice_sd               =   1.5595493224755E-01
(PID.TID 0000.0001) %MON seaice_uice_del2             =   3.3278224031227E-04
(PID.TID 0000.0001) %MON seaice_vice_max              =   2.6620968190013E+00
(PID.TID 0000.0001) %MON seaice_vice_min              =  -1.5556994808014E+00
(PID.TID 0000.0001) %MON seaice_vice_mean             =  -2.5060108165462E-02
(PID.TID 0000.0001) %MON seaice_vice_sd               =   1.6319032435222E-01
(PID.TID 0000.0001) %MON seaice_vice_del2             =   3.2007038510864E-04
(PID.TID 0000.0001) %MON seaice_area_max              =   1.0042074383172E+00
(PID.TID 0000.0001) %MON seaice_area_min              =   0.0000000000000E+00
(PID.TID 0000.0001) %MON seaice_area_mean             =   5.7303900144783E-02
(PID.TID 0000.0001) %MON seaice_area_sd               =   2.2151220820016E-01
(PID.TID 0000.0001) %MON seaice_area_del2             =   3.0877964190838E-04
(PID.TID 0000.0001) %MON seaice_heff_max              =   9.9490907563202E+00
(PID.TID 0000.0001) %MON seaice_heff_min              =   0.0000000000000E+00
(PID.TID 0000.0001) %MON seaice_heff_mean             =   1.4997805690566E-01
(PID.TID 0000.0001) %MON seaice_heff_sd               =   7.2133646761174E-01
(PID.TID 0000.0001) %MON seaice_heff_del2             =   1.4512216253274E-03
(PID.TID 0000.0001) %MON seaice_hsnow_max             =   3.2862149332918E+00
(PID.TID 0000.0001) %MON seaice_hsnow_min             =   0.0000000000000E+00
(PID.TID 0000.0001) %MON seaice_hsnow_mean            =   1.2718591761465E-02
(PID.TID 0000.0001) %MON seaice_hsnow_sd              =   6.8963998169141E-02
(PID.TID 0000.0001) %MON seaice_hsnow_del2            =   4.0408400333081E-04
(PID.TID 0000.0001) // =======================================================
(PID.TID 0000.0001) // End MONITOR SEAICE statistics
(PID.TID 0000.0001) // =======================================================
(PID.TID 0000.0001) // =======================================================
(PID.TID 0000.0001) // Begin MONITOR dynamic field statistics
(PID.TID 0000.0001) // =======================================================
(PID.TID 0000.0001) %MON time_tsnumber                =                174718
(PID.TID 0000.0001) %MON time_secondsf                =   7.8623100000000E+07
(PID.TID 0000.0001) %MON dynstat_eta_max              =   2.1505830777822E+00
(PID.TID 0000.0001) %MON dynstat_eta_min              =  -1.0996317845987E+01
(PID.TID 0000.0001) %MON dynstat_eta_mean             =   6.7010966151450E-02
(PID.TID 0000.0001) %MON dynstat_eta_sd               =   8.4923158164053E-01
(PID.TID 0000.0001) %MON dynstat_eta_del2             =   2.0168809806865E-03
(PID.TID 0000.0001) %MON dynstat_uvel_max             =   1.5735167500481E+00
(PID.TID 0000.0001) %MON dynstat_uvel_min             =  -2.6426138569650E+00
(PID.TID 0000.0001) %MON dynstat_uvel_mean            =   9.5428705910081E-04
(PID.TID 0000.0001) %MON dynstat_uvel_sd              =   3.0317988942270E-02
(PID.TID 0000.0001) %MON dynstat_uvel_del2            =   3.1525677227932E-05
(PID.TID 0000.0001) %MON dynstat_vvel_max             =   2.7487966579368E+00
(PID.TID 0000.0001) %MON dynstat_vvel_min             =  -2.1686827287113E+00
(PID.TID 0000.0001) %MON dynstat_vvel_mean            =   6.9145116266104E-04
(PID.TID 0000.0001) %MON dynstat_vvel_sd              =   3.0495134881488E-02
(PID.TID 0000.0001) %MON dynstat_vvel_del2            =   3.0274717707488E-05
(PID.TID 0000.0001) %MON dynstat_wvel_max             =   8.3050911208257E-03
(PID.TID 0000.0001) %MON dynstat_wvel_min             =  -1.0506008666426E-02
(PID.TID 0000.0001) %MON dynstat_wvel_mean            =  -3.2309680571050E-08
(PID.TID 0000.0001) %MON dynstat_wvel_sd              =   9.2367144446364E-05
(PID.TID 0000.0001) %MON dynstat_wvel_del2            =   2.1074576415880E-07
(PID.TID 0000.0001) %MON dynstat_theta_max            =   3.2513659003452E+01
(PID.TID 0000.0001) %MON dynstat_theta_min            =  -2.0245848248139E+00
(PID.TID 0000.0001) %MON dynstat_theta_mean           =   3.5921461982339E+00
(PID.TID 0000.0001) %MON dynstat_theta_sd             =   4.4421455668700E+00
(PID.TID 0000.0001) %MON dynstat_theta_del2           =   1.2048331535832E-04
(PID.TID 0000.0001) %MON dynstat_salt_max             =   4.0655993163797E+01
(PID.TID 0000.0001) %MON dynstat_salt_min             =   1.6160902367591E+01
(PID.TID 0000.0001) %MON dynstat_salt_mean            =   3.4724836098402E+01
(PID.TID 0000.0001) %MON dynstat_salt_sd              =   3.7962661696389E-01
(PID.TID 0000.0001) %MON dynstat_salt_del2            =   7.1153726240211E-05
(PID.TID 0000.0001) %MON dynstat_sst_max              =   3.2513659003452E+01
(PID.TID 0000.0001) %MON dynstat_sst_min              =  -2.0245848248139E+00
(PID.TID 0000.0001) %MON dynstat_sst_mean             =   1.8177226788366E+01
(PID.TID 0000.0001) %MON dynstat_sst_sd               =   1.0160113077903E+01
(PID.TID 0000.0001) %MON dynstat_sst_del2             =   1.1250600265886E-03
(PID.TID 0000.0001) %MON dynstat_sss_max              =   3.9472538557713E+01
(PID.TID 0000.0001) %MON dynstat_sss_min              =   1.6160902367591E+01
(PID.TID 0000.0001) %MON dynstat_sss_mean             =   3.4648385857198E+01
(PID.TID 0000.0001) %MON dynstat_sss_sd               =   1.2898811591106E+00
(PID.TID 0000.0001) %MON dynstat_sss_del2             =   1.4491065315817E-03
(PID.TID 0000.0001) %MON forcing_qnet_max             =   2.3312005579689E+03
(PID.TID 0000.0001) %MON forcing_qnet_min             =  -1.5115855712891E+03
(PID.TID 0000.0001) %MON forcing_qnet_mean            =  -1.4919289405111E+01
(PID.TID 0000.0001) %MON forcing_qnet_sd              =   2.2723738920918E+02
(PID.TID 0000.0001) %MON forcing_qnet_del2            =   5.7412139310450E-01
(PID.TID 0000.0001) %MON forcing_qsw_max              =   0.0000000000000E+00
(PID.TID 0000.0001) %MON forcing_qsw_min              =  -1.1103066920266E+02
(PID.TID 0000.0001) %MON forcing_qsw_mean             =  -1.9626010231155E+01
(PID.TID 0000.0001) %MON forcing_qsw_sd               =   2.9836638376421E+01
(PID.TID 0000.0001) %MON forcing_qsw_del2             =   2.2300817747351E-02
(PID.TID 0000.0001) %MON forcing_empmr_max            =   1.9352212548256E-02
(PID.TID 0000.0001) %MON forcing_empmr_min            =  -4.6992897987366E-02
(PID.TID 0000.0001) %MON forcing_empmr_mean           =   6.5613481827936E-06
(PID.TID 0000.0001) %MON forcing_empmr_sd             =   3.9335716017282E-04
(PID.TID 0000.0001) %MON forcing_empmr_del2           =   4.4407962014888E-06
(PID.TID 0000.0001) %MON forcing_fu_max               =   9.9807786456699E-01
(PID.TID 0000.0001) %MON forcing_fu_min               =  -1.0136957270077E+00
(PID.TID 0000.0001) %MON forcing_fu_mean              =   9.8085234701465E-03
(PID.TID 0000.0001) %MON forcing_fu_sd                =   1.1979368269506E-01
(PID.TID 0000.0001) %MON forcing_fu_del2              =   1.5867726602929E-04
(PID.TID 0000.0001) %MON forcing_fv_max               =   8.8541476001385E-01
(PID.TID 0000.0001) %MON forcing_fv_min               =  -1.5705053510901E+00
(PID.TID 0000.0001) %MON forcing_fv_mean              =  -2.0827633241146E-03
(PID.TID 0000.0001) %MON forcing_fv_sd                =   1.0678347240430E-01
(PID.TID 0000.0001) %MON forcing_fv_del2              =   1.5968898237956E-04
(PID.TID 0000.0001) %MON trAdv_CFL_u_max              =   2.7257660630133E-02
(PID.TID 0000.0001) %MON trAdv_CFL_v_max              =   1.9858332427268E-02
(PID.TID 0000.0001) %MON trAdv_CFL_w_max              =   1.2442326753632E-01
(PID.TID 0000.0001) %MON advcfl_uvel_max              =   2.7622269811134E-02
(PID.TID 0000.0001) %MON advcfl_vvel_max              =   1.9541082108897E-02
(PID.TID 0000.0001) %MON advcfl_wvel_max              =   1.1806607357284E-01
(PID.TID 0000.0001) %MON advcfl_W_hf_max              =   1.2442326753632E-01
(PID.TID 0000.0001) %MON pe_b_mean                    =   1.9022699317033E-03
(PID.TID 0000.0001) %MON ke_max                       =   3.0928308033417E+00
(PID.TID 0000.0001) %MON ke_mean                      =   8.9230572384073E-04
(PID.TID 0000.0001) %MON ke_vol                       =   1.3350064351420E+18
(PID.TID 0000.0001) %MON vort_r_min                   =  -9.4704780403865E-05
(PID.TID 0000.0001) %MON vort_r_max                   =   9.9115758663969E-05
(PID.TID 0000.0001) %MON vort_a_mean                  =  -1.9725067009518E-05
(PID.TID 0000.0001) %MON vort_a_sd                    =   7.4539035390774E-05
(PID.TID 0000.0001) %MON vort_p_mean                  =  -2.1669070996859E-05
(PID.TID 0000.0001) %MON vort_p_sd                    =   9.3606858462019E-05
(PID.TID 0000.0001) %MON surfExpan_theta_mean         =   1.1361568093188E-05
(PID.TID 0000.0001) %MON surfExpan_salt_mean          =  -4.7089455932395E-06
(PID.TID 0000.0001) // =======================================================
(PID.TID 0000.0001) // End MONITOR dynamic field statistics
(PID.TID 0000.0001) // =======================================================
(PID.TID 0000.0001) // =======================================================
(PID.TID 0000.0001) // Begin MONITOR SEAICE statistics
(PID.TID 0000.0001) // =======================================================
(PID.TID 0000.0001) %MON seaice_tsnumber              =                174718
(PID.TID 0000.0001) %MON seaice_time_sec              =   7.8623100000000E+07
(PID.TID 0000.0001) %MON seaice_uice_max              =   1.3713416542044E+00
(PID.TID 0000.0001) %MON seaice_uice_min              =  -1.4402672983118E+00
(PID.TID 0000.0001) %MON seaice_uice_mean             =   3.9214216916953E-04
(PID.TID 0000.0001) %MON seaice_uice_sd               =   1.5582279869372E-01
(PID.TID 0000.0001) %MON seaice_uice_del2             =   3.3310859611879E-04
(PID.TID 0000.0001) %MON seaice_vice_max              =   2.7148834454157E+00
(PID.TID 0000.0001) %MON seaice_vice_min              =  -1.5530389000966E+00
(PID.TID 0000.0001) %MON seaice_vice_mean             =  -2.5023829727336E-02
(PID.TID 0000.0001) %MON seaice_vice_sd               =   1.6319837339337E-01
(PID.TID 0000.0001) %MON seaice_vice_del2             =   3.2024069180173E-04
(PID.TID 0000.0001) %MON seaice_area_max              =   1.0041405707062E+00
(PID.TID 0000.0001) %MON seaice_area_min              =   0.0000000000000E+00
(PID.TID 0000.0001) %MON seaice_area_mean             =   5.7305653706828E-02
(PID.TID 0000.0001) %MON seaice_area_sd               =   2.2150698596849E-01
(PID.TID 0000.0001) %MON seaice_area_del2             =   3.0843700577109E-04
(PID.TID 0000.0001) %MON seaice_heff_max              =   9.9490861043607E+00
(PID.TID 0000.0001) %MON seaice_heff_min              =   0.0000000000000E+00
(PID.TID 0000.0001) %MON seaice_heff_mean             =   1.4997432668501E-01
(PID.TID 0000.0001) %MON seaice_heff_sd               =   7.2132389993220E-01
(PID.TID 0000.0001) %MON seaice_heff_del2             =   1.4499944135764E-03
(PID.TID 0000.0001) %MON seaice_hsnow_max             =   3.2862130665389E+00
(PID.TID 0000.0001) %MON seaice_hsnow_min             =   0.0000000000000E+00
(PID.TID 0000.0001) %MON seaice_hsnow_mean            =   1.2717694737271E-02
(PID.TID 0000.0001) %MON seaice_hsnow_sd              =   6.8953798444451E-02
(PID.TID 0000.0001) %MON seaice_hsnow_del2            =   4.0368571132743E-04
(PID.TID 0000.0001) // =======================================================
(PID.TID 0000.0001) // End MONITOR SEAICE statistics
(PID.TID 0000.0001) // =======================================================
(PID.TID 0000.0001) // =======================================================
(PID.TID 0000.0001) // Begin MONITOR dynamic field statistics
(PID.TID 0000.0001) // =======================================================
(PID.TID 0000.0001) %MON time_tsnumber                =                174719
(PID.TID 0000.0001) %MON time_secondsf                =   7.8623550000000E+07
(PID.TID 0000.0001) %MON dynstat_eta_max              =   2.0866416581455E+00
(PID.TID 0000.0001) %MON dynstat_eta_min              =  -1.1078897759716E+01
(PID.TID 0000.0001) %MON dynstat_eta_mean             =   6.6901337035132E-02
(PID.TID 0000.0001) %MON dynstat_eta_sd               =   8.4954288911258E-01
(PID.TID 0000.0001) %MON dynstat_eta_del2             =   2.0163984957460E-03
(PID.TID 0000.0001) %MON dynstat_uvel_max             =   1.5812944152031E+00
(PID.TID 0000.0001) %MON dynstat_uvel_min             =  -2.6575946650131E+00
(PID.TID 0000.0001) %MON dynstat_uvel_mean            =   9.1600921586986E-04
(PID.TID 0000.0001) %MON dynstat_uvel_sd              =   3.0292111981162E-02
(PID.TID 0000.0001) %MON dynstat_uvel_del2            =   3.1632500680245E-05
(PID.TID 0000.0001) %MON dynstat_vvel_max             =   2.7632798224834E+00
(PID.TID 0000.0001) %MON dynstat_vvel_min             =  -2.1677967730509E+00
(PID.TID 0000.0001) %MON dynstat_vvel_mean            =   7.2062913527728E-04
(PID.TID 0000.0001) %MON dynstat_vvel_sd              =   3.0471232837757E-02
(PID.TID 0000.0001) %MON dynstat_vvel_del2            =   3.0359739238515E-05
(PID.TID 0000.0001) %MON dynstat_wvel_max             =   8.2503080721649E-03
(PID.TID 0000.0001) %MON dynstat_wvel_min             =  -1.0463733955614E-02
(PID.TID 0000.0001) %MON dynstat_wvel_mean            =  -4.5353304881420E-08
(PID.TID 0000.0001) %MON dynstat_wvel_sd              =   9.2549801183502E-05
(PID.TID 0000.0001) %MON dynstat_wvel_del2            =   2.1149733109478E-07
(PID.TID 0000.0001) %MON dynstat_theta_max            =   3.2514934425506E+01
(PID.TID 0000.0001) %MON dynstat_theta_min            =  -2.0249504181959E+00
(PID.TID 0000.0001) %MON dynstat_theta_mean           =   3.5921450974186E+00
(PID.TID 0000.0001) %MON dynstat_theta_sd             =   4.4421465634967E+00
(PID.TID 0000.0001) %MON dynstat_theta_del2           =   1.2054739036487E-04
(PID.TID 0000.0001) %MON dynstat_salt_max             =   4.0655993080570E+01
(PID.TID 0000.0001) %MON dynstat_salt_min             =   1.6159229144698E+01
(PID.TID 0000.0001) %MON dynstat_salt_mean            =   3.4724835510663E+01
(PID.TID 0000.0001) %MON dynstat_salt_sd              =   3.7962869649743E-01
(PID.TID 0000.0001) %MON dynstat_salt_del2            =   7.1073628240980E-05
(PID.TID 0000.0001) %MON dynstat_sst_max              =   3.2514934425506E+01
(PID.TID 0000.0001) %MON dynstat_sst_min              =  -2.0249504181959E+00
(PID.TID 0000.0001) %MON dynstat_sst_mean             =   1.8177422291011E+01
(PID.TID 0000.0001) %MON dynstat_sst_sd               =   1.0160461755251E+01
(PID.TID 0000.0001) %MON dynstat_sst_del2             =   1.1246742015223E-03
(PID.TID 0000.0001) %MON dynstat_sss_max              =   3.9472599020731E+01
(PID.TID 0000.0001) %MON dynstat_sss_min              =   1.6159229144698E+01
(PID.TID 0000.0001) %MON dynstat_sss_mean             =   3.4648313474927E+01
(PID.TID 0000.0001) %MON dynstat_sss_sd               =   1.2900107189570E+00
(PID.TID 0000.0001) %MON dynstat_sss_del2             =   1.4494737407661E-03
(PID.TID 0000.0001) %MON forcing_qnet_max             =   2.3792289688579E+03
(PID.TID 0000.0001) %MON forcing_qnet_min             =  -1.4650959472656E+03
(PID.TID 0000.0001) %MON forcing_qnet_mean            =  -1.5229598044486E+01
(PID.TID 0000.0001) %MON forcing_qnet_sd              =   2.2692184791677E+02
(PID.TID 0000.0001) %MON forcing_qnet_del2            =   5.6913376821408E-01
(PID.TID 0000.0001) %MON forcing_qsw_max              =   0.0000000000000E+00
(PID.TID 0000.0001) %MON forcing_qsw_min              =  -1.1101714168217E+02
(PID.TID 0000.0001) %MON forcing_qsw_mean             =  -1.9724029650326E+01
(PID.TID 0000.0001) %MON forcing_qsw_sd               =   2.9854134682266E+01
(PID.TID 0000.0001) %MON forcing_qsw_del2             =   2.2278612408927E-02
(PID.TID 0000.0001) %MON forcing_empmr_max            =   1.9402937963605E-02
(PID.TID 0000.0001) %MON forcing_empmr_min            =  -4.5825071632862E-02
(PID.TID 0000.0001) %MON forcing_empmr_mean           =   6.2694483013061E-06
(PID.TID 0000.0001) %MON forcing_empmr_sd             =   3.9168185118011E-04
(PID.TID 0000.0001) %MON forcing_empmr_del2           =   4.4135340577723E-06
(PID.TID 0000.0001) %MON forcing_fu_max               =   1.0364695885719E+00
(PID.TID 0000.0001) %MON forcing_fu_min               =  -9.3406095449419E-01
(PID.TID 0000.0001) %MON forcing_fu_mean              =   9.8314239237234E-03
(PID.TID 0000.0001) %MON forcing_fu_sd                =   1.1985115693158E-01
(PID.TID 0000.0001) %MON forcing_fu_del2              =   1.5890997313580E-04
(PID.TID 0000.0001) %MON forcing_fv_max               =   8.8459310298936E-01
(PID.TID 0000.0001) %MON forcing_fv_min               =  -1.5999086355394E+00
(PID.TID 0000.0001) %MON forcing_fv_mean              =  -2.0719696296898E-03
(PID.TID 0000.0001) %MON forcing_fv_sd                =   1.0673806606471E-01
(PID.TID 0000.0001) %MON forcing_fv_del2              =   1.5971326500496E-04
(PID.TID 0000.0001) %MON trAdv_CFL_u_max              =   2.7412182555713E-02
(PID.TID 0000.0001) %MON trAdv_CFL_v_max              =   1.9995154430539E-02
(PID.TID 0000.0001) %MON trAdv_CFL_w_max              =   1.2438922752807E-01
(PID.TID 0000.0001) %MON advcfl_uvel_max              =   2.7778858682717E-02
(PID.TID 0000.0001) %MON advcfl_vvel_max              =   1.9675718287943E-02
(PID.TID 0000.0001) %MON advcfl_wvel_max              =   1.1801165184649E-01
(PID.TID 0000.0001) %MON advcfl_W_hf_max              =   1.2438922752807E-01
(PID.TID 0000.0001) %MON pe_b_mean                    =   1.8984725757956E-03
(PID.TID 0000.0001) %MON ke_max                       =   3.0519847153263E+00
(PID.TID 0000.0001) %MON ke_mean                      =   8.9083214524859E-04
(PID.TID 0000.0001) %MON ke_vol                       =   1.3350064351420E+18
(PID.TID 0000.0001) %MON vort_r_min                   =  -9.5189420629314E-05
(PID.TID 0000.0001) %MON vort_r_max                   =   9.9769884697894E-05
(PID.TID 0000.0001) %MON vort_a_mean                  =  -1.9725067246361E-05
(PID.TID 0000.0001) %MON vort_a_sd                    =   7.4539029388387E-05
(PID.TID 0000.0001) %MON vort_p_mean                  =  -2.1669071257044E-05
(PID.TID 0000.0001) %MON vort_p_sd                    =   9.3606824196855E-05
(PID.TID 0000.0001) %MON surfExpan_theta_mean         =   1.1092866949090E-05
(PID.TID 0000.0001) %MON surfExpan_salt_mean          =  -5.4949092441182E-06
(PID.TID 0000.0001) // =======================================================
(PID.TID 0000.0001) // End MONITOR dynamic field statistics
(PID.TID 0000.0001) // =======================================================
(PID.TID 0000.0001) // =======================================================
(PID.TID 0000.0001) // Begin MONITOR SEAICE statistics
(PID.TID 0000.0001) // =======================================================
(PID.TID 0000.0001) %MON seaice_tsnumber              =                174719
(PID.TID 0000.0001) %MON seaice_time_sec              =   7.8623550000000E+07
(PID.TID 0000.0001) %MON seaice_uice_max              =   1.3791985613153E+00
(PID.TID 0000.0001) %MON seaice_uice_min              =  -1.4420422443341E+00
(PID.TID 0000.0001) %MON seaice_uice_mean             =   3.4722029774482E-04
(PID.TID 0000.0001) %MON seaice_uice_sd               =   1.5568862616458E-01
(PID.TID 0000.0001) %MON seaice_uice_del2             =   3.3341823832852E-04
(PID.TID 0000.0001) %MON seaice_vice_max              =   2.7487966579368E+00
(PID.TID 0000.0001) %MON seaice_vice_min              =  -1.5504999951876E+00
(PID.TID 0000.0001) %MON seaice_vice_mean             =  -2.4982819090603E-02
(PID.TID 0000.0001) %MON seaice_vice_sd               =   1.6321038491711E-01
(PID.TID 0000.0001) %MON seaice_vice_del2             =   3.2036170127152E-04
(PID.TID 0000.0001) %MON seaice_area_max              =   1.0054405722491E+00
(PID.TID 0000.0001) %MON seaice_area_min              =   0.0000000000000E+00
(PID.TID 0000.0001) %MON seaice_area_mean             =   5.7307495950481E-02
(PID.TID 0000.0001) %MON seaice_area_sd               =   2.2150201088411E-01
(PID.TID 0000.0001) %MON seaice_area_del2             =   3.0809814740445E-04
(PID.TID 0000.0001) %MON seaice_heff_max              =   9.9490757179198E+00
(PID.TID 0000.0001) %MON seaice_heff_min              =   0.0000000000000E+00
(PID.TID 0000.0001) %MON seaice_heff_mean             =   1.4997057456099E-01
(PID.TID 0000.0001) %MON seaice_heff_sd               =   7.2131126789893E-01
(PID.TID 0000.0001) %MON seaice_heff_del2             =   1.4487859146914E-03
(PID.TID 0000.0001) %MON seaice_hsnow_max             =   3.2862097639199E+00
(PID.TID 0000.0001) %MON seaice_hsnow_min             =   0.0000000000000E+00
(PID.TID 0000.0001) %MON seaice_hsnow_mean            =   1.2716772590214E-02
(PID.TID 0000.0001) %MON seaice_hsnow_sd              =   6.8943504690142E-02
(PID.TID 0000.0001) %MON seaice_hsnow_del2            =   4.0329227240181E-04
(PID.TID 0000.0001) // =======================================================
(PID.TID 0000.0001) // End MONITOR SEAICE statistics
(PID.TID 0000.0001) // =======================================================
(PID.TID 0000.0001) // =======================================================
(PID.TID 0000.0001) // Begin MONITOR dynamic field statistics
(PID.TID 0000.0001) // =======================================================
(PID.TID 0000.0001) %MON time_tsnumber                =                174720
(PID.TID 0000.0001) %MON time_secondsf                =   7.8624000000000E+07
(PID.TID 0000.0001) %MON dynstat_eta_max              =   2.0457597569457E+00
(PID.TID 0000.0001) %MON dynstat_eta_min              =  -1.1161694611457E+01
(PID.TID 0000.0001) %MON dynstat_eta_mean             =   6.6781556859424E-02
(PID.TID 0000.0001) %MON dynstat_eta_sd               =   8.4983262879407E-01
(PID.TID 0000.0001) %MON dynstat_eta_del2             =   2.0159600893991E-03
(PID.TID 0000.0001) %MON dynstat_uvel_max             =   1.6013284590427E+00
(PID.TID 0000.0001) %MON dynstat_uvel_min             =  -2.6721449328556E+00
(PID.TID 0000.0001) %MON dynstat_uvel_mean            =   8.7870443764519E-04
(PID.TID 0000.0001) %MON dynstat_uvel_sd              =   3.0264775420109E-02
(PID.TID 0000.0001) %MON dynstat_uvel_del2            =   3.1737312016708E-05
(PID.TID 0000.0001) %MON dynstat_vvel_max             =   2.7555943711944E+00
(PID.TID 0000.0001) %MON dynstat_vvel_min             =  -2.1670068481646E+00
(PID.TID 0000.0001) %MON dynstat_vvel_mean            =   7.5172960019769E-04
(PID.TID 0000.0001) %MON dynstat_vvel_sd              =   3.0449027285387E-02
(PID.TID 0000.0001) %MON dynstat_vvel_del2            =   3.0442060546025E-05
(PID.TID 0000.0001) %MON dynstat_wvel_max             =   8.1980938038907E-03
(PID.TID 0000.0001) %MON dynstat_wvel_min             =  -1.0421927364429E-02
(PID.TID 0000.0001) %MON dynstat_wvel_mean            =  -5.6552589116572E-08
(PID.TID 0000.0001) %MON dynstat_wvel_sd              =   9.2730419726415E-05
(PID.TID 0000.0001) %MON dynstat_wvel_del2            =   2.1223174119954E-07
(PID.TID 0000.0001) %MON dynstat_theta_max            =   3.2516096828172E+01
(PID.TID 0000.0001) %MON dynstat_theta_min            =  -2.0253071880785E+00
(PID.TID 0000.0001) %MON dynstat_theta_mean           =   3.5921440380911E+00
(PID.TID 0000.0001) %MON dynstat_theta_sd             =   4.4421475219445E+00
(PID.TID 0000.0001) %MON dynstat_theta_del2           =   1.2061150146594E-04
(PID.TID 0000.0001) %MON dynstat_salt_max             =   4.0655992998145E+01
(PID.TID 0000.0001) %MON dynstat_salt_min             =   1.6157491237030E+01
(PID.TID 0000.0001) %MON dynstat_salt_mean            =   3.4724834915622E+01
(PID.TID 0000.0001) %MON dynstat_salt_sd              =   3.7963073057196E-01
(PID.TID 0000.0001) %MON dynstat_salt_del2            =   7.0993827823404E-05
(PID.TID 0000.0001) %MON dynstat_sst_max              =   3.2516096828172E+01
(PID.TID 0000.0001) %MON dynstat_sst_min              =  -2.0253071880785E+00
(PID.TID 0000.0001) %MON dynstat_sst_mean             =   1.8177618537801E+01
(PID.TID 0000.0001) %MON dynstat_sst_sd               =   1.0160808789314E+01
(PID.TID 0000.0001) %MON dynstat_sst_del2             =   1.1242023499625E-03
(PID.TID 0000.0001) %MON dynstat_sss_max              =   3.9472663840924E+01
(PID.TID 0000.0001) %MON dynstat_sss_min              =   1.6157491237030E+01
(PID.TID 0000.0001) %MON dynstat_sss_mean             =   3.4648241738315E+01
(PID.TID 0000.0001) %MON dynstat_sss_sd               =   1.2901395558305E+00
(PID.TID 0000.0001) %MON dynstat_sss_del2             =   1.4498394761765E-03
(PID.TID 0000.0001) %MON forcing_qnet_max             =   2.3972667001003E+03
(PID.TID 0000.0001) %MON forcing_qnet_min             =  -1.8709814453125E+03
(PID.TID 0000.0001) %MON forcing_qnet_mean            =  -1.5522437702593E+01
(PID.TID 0000.0001) %MON forcing_qnet_sd              =   2.2650595223990E+02
(PID.TID 0000.0001) %MON forcing_qnet_del2            =   5.6978600908278E-01
(PID.TID 0000.0001) %MON forcing_qsw_max              =   0.0000000000000E+00
(PID.TID 0000.0001) %MON forcing_qsw_min              =  -1.1088924881518E+02
(PID.TID 0000.0001) %MON forcing_qsw_mean             =  -1.9808313699208E+01
(PID.TID 0000.0001) %MON forcing_qsw_sd               =   2.9866493596878E+01
(PID.TID 0000.0001) %MON forcing_qsw_del2             =   2.2246443512121E-02
(PID.TID 0000.0001) %MON forcing_empmr_max            =   1.9445527344942E-02
(PID.TID 0000.0001) %MON forcing_empmr_min            =  -4.4798567891121E-02
(PID.TID 0000.0001) %MON forcing_empmr_mean           =   6.3416150292655E-06
(PID.TID 0000.0001) %MON forcing_empmr_sd             =   3.9009254926931E-04
(PID.TID 0000.0001) %MON forcing_empmr_del2           =   4.4181646143883E-06
(PID.TID 0000.0001) %MON forcing_fu_max               =   1.0743122906929E+00
(PID.TID 0000.0001) %MON forcing_fu_min               =  -8.6214401461355E-01
(PID.TID 0000.0001) %MON forcing_fu_mean              =   9.8523878730162E-03
(PID.TID 0000.0001) %MON forcing_fu_sd                =   1.1990727732106E-01
(PID.TID 0000.0001) %MON forcing_fu_del2              =   1.5896759087264E-04
(PID.TID 0000.0001) %MON forcing_fv_max               =   8.8437454628739E-01
(PID.TID 0000.0001) %MON forcing_fv_min               =  -1.5903345592030E+00
(PID.TID 0000.0001) %MON forcing_fv_mean              =  -2.0646565434742E-03
(PID.TID 0000.0001) %MON forcing_fv_sd                =   1.0669533196187E-01
(PID.TID 0000.0001) %MON forcing_fv_del2              =   1.5952366594246E-04
(PID.TID 0000.0001) %MON trAdv_CFL_u_max              =   2.7562263605913E-02
(PID.TID 0000.0001) %MON trAdv_CFL_v_max              =   2.0129903788824E-02
(PID.TID 0000.0001) %MON trAdv_CFL_w_max              =   1.2426064432495E-01
(PID.TID 0000.0001) %MON advcfl_uvel_max              =   2.7930947276028E-02
(PID.TID 0000.0001) %MON advcfl_vvel_max              =   1.9808314933911E-02
(PID.TID 0000.0001) %MON advcfl_wvel_max              =   1.1786432743147E-01
(PID.TID 0000.0001) %MON advcfl_W_hf_max              =   1.2426064432495E-01
(PID.TID 0000.0001) %MON pe_b_mean                    =   1.8943248569465E-03
(PID.TID 0000.0001) %MON ke_max                       =   2.9695752617966E+00
(PID.TID 0000.0001) %MON ke_mean                      =   8.8937143994636E-04
(PID.TID 0000.0001) %MON ke_vol                       =   1.3350064351420E+18
(PID.TID 0000.0001) %MON vort_r_min                   =  -9.5662462242603E-05
(PID.TID 0000.0001) %MON vort_r_max                   =   1.0040867612451E-04
(PID.TID 0000.0001) %MON vort_a_mean                  =  -1.9725067516791E-05
(PID.TID 0000.0001) %MON vort_a_sd                    =   7.4539024095008E-05
(PID.TID 0000.0001) %MON vort_p_mean                  =  -2.1669071554126E-05
(PID.TID 0000.0001) %MON vort_p_sd                    =   9.3606791960731E-05
(PID.TID 0000.0001) %MON surfExpan_theta_mean         =   1.0782968658407E-05
(PID.TID 0000.0001) %MON surfExpan_salt_mean          =  -6.1872988505256E-06
(PID.TID 0000.0001) // =======================================================
(PID.TID 0000.0001) // End MONITOR dynamic field statistics
(PID.TID 0000.0001) // =======================================================
(PID.TID 0000.0001) // =======================================================
(PID.TID 0000.0001) // Begin MONITOR SEAICE statistics
(PID.TID 0000.0001) // =======================================================
(PID.TID 0000.0001) %MON seaice_tsnumber              =                174720
(PID.TID 0000.0001) %MON seaice_time_sec              =   7.8624000000000E+07
(PID.TID 0000.0001) %MON seaice_uice_max              =   1.3865646053564E+00
(PID.TID 0000.0001) %MON seaice_uice_min              =  -1.4439268745526E+00
(PID.TID 0000.0001) %MON seaice_uice_mean             =   3.0174444492519E-04
(PID.TID 0000.0001) %MON seaice_uice_sd               =   1.5554991158794E-01
(PID.TID 0000.0001) %MON seaice_uice_del2             =   3.3371341699982E-04
(PID.TID 0000.0001) %MON seaice_vice_max              =   2.7632798224834E+00
(PID.TID 0000.0001) %MON seaice_vice_min              =  -1.5480439301893E+00
(PID.TID 0000.0001) %MON seaice_vice_mean             =  -2.4934441113063E-02
(PID.TID 0000.0001) %MON seaice_vice_sd               =   1.6322300481992E-01
(PID.TID 0000.0001) %MON seaice_vice_del2             =   3.2036826345746E-04
(PID.TID 0000.0001) %MON seaice_area_max              =   1.0052844451397E+00
(PID.TID 0000.0001) %MON seaice_area_min              =   0.0000000000000E+00
(PID.TID 0000.0001) %MON seaice_area_mean             =   5.7309353739122E-02
(PID.TID 0000.0001) %MON seaice_area_sd               =   2.2149701323829E-01
(PID.TID 0000.0001) %MON seaice_area_del2             =   3.0776754598169E-04
(PID.TID 0000.0001) %MON seaice_heff_max              =   9.9490749024038E+00
(PID.TID 0000.0001) %MON seaice_heff_min              =   0.0000000000000E+00
(PID.TID 0000.0001) %MON seaice_heff_mean             =   1.4996680974175E-01
(PID.TID 0000.0001) %MON seaice_heff_sd               =   7.2129861230401E-01
(PID.TID 0000.0001) %MON seaice_heff_del2             =   1.4475988725813E-03
(PID.TID 0000.0001) %MON seaice_hsnow_max             =   3.2862093355785E+00
(PID.TID 0000.0001) %MON seaice_hsnow_min             =   0.0000000000000E+00
(PID.TID 0000.0001) %MON seaice_hsnow_mean            =   1.2715859899657E-02
(PID.TID 0000.0001) %MON seaice_hsnow_sd              =   6.8933323091870E-02
(PID.TID 0000.0001) %MON seaice_hsnow_del2            =   4.0290415336494E-04
(PID.TID 0000.0001) // =======================================================
(PID.TID 0000.0001) // End MONITOR SEAICE statistics
(PID.TID 0000.0001) // =======================================================
(PID.TID 0000.0001) %CHECKPOINT    174720 0000174720
(PID.TID 0000.0001) // =======================================================
(PID.TID 0000.0001) // Begin MONITOR dynamic field statistics
(PID.TID 0000.0001) // =======================================================
(PID.TID 0000.0001) %MON time_tsnumber                =                174721
(PID.TID 0000.0001) %MON time_secondsf                =   7.8624450000000E+07
(PID.TID 0000.0001) %MON dynstat_eta_max              =   2.0520390016546E+00
(PID.TID 0000.0001) %MON dynstat_eta_min              =  -1.1243094761693E+01
(PID.TID 0000.0001) %MON dynstat_eta_mean             =   6.6652289326401E-02
(PID.TID 0000.0001) %MON dynstat_eta_sd               =   8.5009874463749E-01
(PID.TID 0000.0001) %MON dynstat_eta_del2             =   2.0155664802629E-03
(PID.TID 0000.0001) %MON dynstat_uvel_max             =   1.6211567573725E+00
(PID.TID 0000.0001) %MON dynstat_uvel_min             =  -2.6862227373616E+00
(PID.TID 0000.0001) %MON dynstat_uvel_mean            =   8.4272230256607E-04
(PID.TID 0000.0001) %MON dynstat_uvel_sd              =   3.0235900133969E-02
(PID.TID 0000.0001) %MON dynstat_uvel_del2            =   3.1839948194624E-05
(PID.TID 0000.0001) %MON dynstat_vvel_max             =   2.7274787253852E+00
(PID.TID 0000.0001) %MON dynstat_vvel_min             =  -2.1662607275241E+00
(PID.TID 0000.0001) %MON dynstat_vvel_mean            =   7.8467213815355E-04
(PID.TID 0000.0001) %MON dynstat_vvel_sd              =   3.0428682292635E-02
(PID.TID 0000.0001) %MON dynstat_vvel_del2            =   3.0520890150846E-05
(PID.TID 0000.0001) %MON dynstat_wvel_max             =   8.1487190104957E-03
(PID.TID 0000.0001) %MON dynstat_wvel_min             =  -1.0380749301945E-02
(PID.TID 0000.0001) %MON dynstat_wvel_mean            =  -6.6728561662974E-08
(PID.TID 0000.0001) %MON dynstat_wvel_sd              =   9.2909867755882E-05
(PID.TID 0000.0001) %MON dynstat_wvel_del2            =   2.1294970883013E-07
(PID.TID 0000.0001) %MON dynstat_theta_max            =   3.2517265904976E+01
(PID.TID 0000.0001) %MON dynstat_theta_min            =  -2.0256571424049E+00
(PID.TID 0000.0001) %MON dynstat_theta_mean           =   3.5921430229355E+00
(PID.TID 0000.0001) %MON dynstat_theta_sd             =   4.4421484358418E+00
(PID.TID 0000.0001) %MON dynstat_theta_del2           =   1.2067621603710E-04
(PID.TID 0000.0001) %MON dynstat_salt_max             =   4.0655992916756E+01
(PID.TID 0000.0001) %MON dynstat_salt_min             =   1.6155695951812E+01
(PID.TID 0000.0001) %MON dynstat_salt_mean            =   3.4724834311801E+01
(PID.TID 0000.0001) %MON dynstat_salt_sd              =   3.7963270916674E-01
(PID.TID 0000.0001) %MON dynstat_salt_del2            =   7.0914886263677E-05
(PID.TID 0000.0001) %MON dynstat_sst_max              =   3.2517265904976E+01
(PID.TID 0000.0001) %MON dynstat_sst_min              =  -2.0256571424049E+00
(PID.TID 0000.0001) %MON dynstat_sst_mean             =   1.8177815485445E+01
(PID.TID 0000.0001) %MON dynstat_sst_sd               =   1.0161157815579E+01
(PID.TID 0000.0001) %MON dynstat_sst_del2             =   1.1237857783553E-03
(PID.TID 0000.0001) %MON dynstat_sss_max              =   3.9472735880199E+01
(PID.TID 0000.0001) %MON dynstat_sss_min              =   1.6155695951812E+01
(PID.TID 0000.0001) %MON dynstat_sss_mean             =   3.4648170704247E+01
(PID.TID 0000.0001) %MON dynstat_sss_sd               =   1.2902667574842E+00
(PID.TID 0000.0001) %MON dynstat_sss_del2             =   1.4502190129028E-03
(PID.TID 0000.0001) %MON forcing_qnet_max             =   2.3658166491896E+03
(PID.TID 0000.0001) %MON forcing_qnet_min             =  -1.5292880859375E+03
(PID.TID 0000.0001) %MON forcing_qnet_mean            =  -1.5678409713917E+01
(PID.TID 0000.0001) %MON forcing_qnet_sd              =   2.2591998842219E+02
(PID.TID 0000.0001) %MON forcing_qnet_del2            =   5.6106850884927E-01
(PID.TID 0000.0001) %MON forcing_qsw_max              =   0.0000000000000E+00
(PID.TID 0000.0001) %MON forcing_qsw_min              =  -1.1106833415824E+02
(PID.TID 0000.0001) %MON forcing_qsw_mean             =  -1.9878727430120E+01
(PID.TID 0000.0001) %MON forcing_qsw_sd               =   2.9873863786448E+01
(PID.TID 0000.0001) %MON forcing_qsw_del2             =   2.2204574047731E-02
(PID.TID 0000.0001) %MON forcing_empmr_max            =   1.9544539973140E-02
(PID.TID 0000.0001) %MON forcing_empmr_min            =  -4.6029299497604E-02
(PID.TID 0000.0001) %MON forcing_empmr_mean           =   6.2664419061492E-06
(PID.TID 0000.0001) %MON forcing_empmr_sd             =   3.9247519197069E-04
(PID.TID 0000.0001) %MON forcing_empmr_del2           =   4.4430507778171E-06
(PID.TID 0000.0001) %MON forcing_fu_max               =   1.1110403745882E+00
(PID.TID 0000.0001) %MON forcing_fu_min               =  -8.0232951813825E-01
(PID.TID 0000.0001) %MON forcing_fu_mean              =   9.8666698804455E-03
(PID.TID 0000.0001) %MON forcing_fu_sd                =   1.1996702198126E-01
(PID.TID 0000.0001) %MON forcing_fu_del2              =   1.5907889762722E-04
(PID.TID 0000.0001) %MON forcing_fv_max               =   8.8064143021121E-01
(PID.TID 0000.0001) %MON forcing_fv_min               =  -1.5471478350394E+00
(PID.TID 0000.0001) %MON forcing_fv_mean              =  -2.0498322636115E-03
(PID.TID 0000.0001) %MON forcing_fv_sd                =   1.0667081570325E-01
(PID.TID 0000.0001) %MON forcing_fv_del2              =   1.5934261808670E-04
(PID.TID 0000.0001) %MON trAdv_CFL_u_max              =   2.7707471357940E-02
(PID.TID 0000.0001) %MON trAdv_CFL_v_max              =   2.0262776865534E-02
(PID.TID 0000.0001) %MON trAdv_CFL_w_max              =   1.2403964659722E-01
(PID.TID 0000.0001) %MON advcfl_uvel_max              =   2.8078097384013E-02
(PID.TID 0000.0001) %MON advcfl_vvel_max              =   1.9939065273174E-02
(PID.TID 0000.0001) %MON advcfl_wvel_max              =   1.1762607565642E-01
(PID.TID 0000.0001) %MON advcfl_W_hf_max              =   1.2403964659722E-01
(PID.TID 0000.0001) %MON pe_b_mean                    =   1.8898414782520E-03
(PID.TID 0000.0001) %MON ke_max                       =   2.8505031607401E+00
(PID.TID 0000.0001) %MON ke_mean                      =   8.8792641411849E-04
(PID.TID 0000.0001) %MON ke_vol                       =   1.3350064351420E+18
(PID.TID 0000.0001) %MON vort_r_min                   =  -9.6122382737391E-05
(PID.TID 0000.0001) %MON vort_r_max                   =   1.0103015229413E-04
(PID.TID 0000.0001) %MON vort_a_mean                  =  -1.9725067817076E-05
(PID.TID 0000.0001) %MON vort_a_sd                    =   7.4539019546075E-05
(PID.TID 0000.0001) %MON vort_p_mean                  =  -2.1669071884006E-05
(PID.TID 0000.0001) %MON vort_p_sd                    =   9.3606761794472E-05
(PID.TID 0000.0001) %MON surfExpan_theta_mean         =   1.0418138265702E-05
(PID.TID 0000.0001) %MON surfExpan_salt_mean          =  -6.8322229858157E-06
(PID.TID 0000.0001) // =======================================================
(PID.TID 0000.0001) // End MONITOR dynamic field statistics
(PID.TID 0000.0001) // =======================================================
(PID.TID 0000.0001) // =======================================================
(PID.TID 0000.0001) // Begin MONITOR SEAICE statistics
(PID.TID 0000.0001) // =======================================================
(PID.TID 0000.0001) %MON seaice_tsnumber              =                174721
(PID.TID 0000.0001) %MON seaice_time_sec              =   7.8624450000000E+07
(PID.TID 0000.0001) %MON seaice_uice_max              =   1.3933841748324E+00
(PID.TID 0000.0001) %MON seaice_uice_min              =  -1.4459064631511E+00
(PID.TID 0000.0001) %MON seaice_uice_mean             =   2.5439024196360E-04
(PID.TID 0000.0001) %MON seaice_uice_sd               =   1.5540829414709E-01
(PID.TID 0000.0001) %MON seaice_uice_del2             =   3.3404259503567E-04
(PID.TID 0000.0001) %MON seaice_vice_max              =   2.7555943711944E+00
(PID.TID 0000.0001) %MON seaice_vice_min              =  -1.5456858998301E+00
(PID.TID 0000.0001) %MON seaice_vice_mean             =  -2.4878561896337E-02
(PID.TID 0000.0001) %MON seaice_vice_sd               =   1.6323461411637E-01
(PID.TID 0000.0001) %MON seaice_vice_del2             =   3.2028601600224E-04
(PID.TID 0000.0001) %MON seaice_area_max              =   1.0051188795710E+00
(PID.TID 0000.0001) %MON seaice_area_min              =   0.0000000000000E+00
(PID.TID 0000.0001) %MON seaice_area_mean             =   5.7311219353566E-02
(PID.TID 0000.0001) %MON seaice_area_sd               =   2.2149195020101E-01
(PID.TID 0000.0001) %MON seaice_area_del2             =   3.0744037621783E-04
(PID.TID 0000.0001) %MON seaice_heff_max              =   9.9490702572340E+00
(PID.TID 0000.0001) %MON seaice_heff_min              =   0.0000000000000E+00
(PID.TID 0000.0001) %MON seaice_heff_mean             =   1.4996303589663E-01
(PID.TID 0000.0001) %MON seaice_heff_sd               =   7.2128596597591E-01
(PID.TID 0000.0001) %MON seaice_heff_del2             =   1.4464351544579E-03
(PID.TID 0000.0001) %MON seaice_hsnow_max             =   3.2862079470630E+00
(PID.TID 0000.0001) %MON seaice_hsnow_min             =   0.0000000000000E+00
(PID.TID 0000.0001) %MON seaice_hsnow_mean            =   1.2714929760049E-02
(PID.TID 0000.0001) %MON seaice_hsnow_sd              =   6.8923139938211E-02
(PID.TID 0000.0001) %MON seaice_hsnow_del2            =   4.0252156953341E-04
(PID.TID 0000.0001) // =======================================================
(PID.TID 0000.0001) // End MONITOR SEAICE statistics
(PID.TID 0000.0001) // =======================================================
(PID.TID 0000.0001) // =======================================================
(PID.TID 0000.0001) // Begin MONITOR dynamic field statistics
(PID.TID 0000.0001) // =======================================================
(PID.TID 0000.0001) %MON time_tsnumber                =                174722
(PID.TID 0000.0001) %MON time_secondsf                =   7.8624900000000E+07
(PID.TID 0000.0001) %MON dynstat_eta_max              =   2.0489896339118E+00
(PID.TID 0000.0001) %MON dynstat_eta_min              =  -1.1321564181907E+01
(PID.TID 0000.0001) %MON dynstat_eta_mean             =   6.6514448216214E-02
(PID.TID 0000.0001) %MON dynstat_eta_sd               =   8.5033972985970E-01
(PID.TID 0000.0001) %MON dynstat_eta_del2             =   2.0152167735229E-03
(PID.TID 0000.0001) %MON dynstat_uvel_max             =   1.6407617119354E+00
(PID.TID 0000.0001) %MON dynstat_uvel_min             =  -2.6998034424063E+00
(PID.TID 0000.0001) %MON dynstat_uvel_mean            =   8.0841098067777E-04
(PID.TID 0000.0001) %MON dynstat_uvel_sd              =   3.0205490798595E-02
(PID.TID 0000.0001) %MON dynstat_uvel_del2            =   3.1940611873705E-05
(PID.TID 0000.0001) %MON dynstat_vvel_max             =   2.6577737288260E+00
(PID.TID 0000.0001) %MON dynstat_vvel_min             =  -2.1655081341021E+00
(PID.TID 0000.0001) %MON dynstat_vvel_mean            =   8.1937308883397E-04
(PID.TID 0000.0001) %MON dynstat_vvel_sd              =   3.0410256144283E-02
(PID.TID 0000.0001) %MON dynstat_vvel_del2            =   3.0595852069770E-05
(PID.TID 0000.0001) %MON dynstat_wvel_max             =   8.1023885613273E-03
(PID.TID 0000.0001) %MON dynstat_wvel_min             =  -1.0340333790587E-02
(PID.TID 0000.0001) %MON dynstat_wvel_mean            =  -7.5681529664473E-08
(PID.TID 0000.0001) %MON dynstat_wvel_sd              =   9.3089145260734E-05
(PID.TID 0000.0001) %MON dynstat_wvel_del2            =   2.1365244227290E-07
(PID.TID 0000.0001) %MON dynstat_theta_max            =   3.2518393781713E+01
(PID.TID 0000.0001) %MON dynstat_theta_min            =  -2.0259969765821E+00
(PID.TID 0000.0001) %MON dynstat_theta_mean           =   3.5921420525800E+00
(PID.TID 0000.0001) %MON dynstat_theta_sd             =   4.4421492862310E+00
(PID.TID 0000.0001) %MON dynstat_theta_del2           =   1.2074091887347E-04
(PID.TID 0000.0001) %MON dynstat_salt_max             =   4.0655992836653E+01
(PID.TID 0000.0001) %MON dynstat_salt_min             =   1.6153850930634E+01
(PID.TID 0000.0001) %MON dynstat_salt_mean            =   3.4724833696880E+01
(PID.TID 0000.0001) %MON dynstat_salt_sd              =   3.7963463773405E-01
(PID.TID 0000.0001) %MON dynstat_salt_del2            =   7.0836628283901E-05
(PID.TID 0000.0001) %MON dynstat_sst_max              =   3.2518393781713E+01
(PID.TID 0000.0001) %MON dynstat_sst_min              =  -2.0259969765821E+00
(PID.TID 0000.0001) %MON dynstat_sst_mean             =   1.8178010503561E+01
(PID.TID 0000.0001) %MON dynstat_sst_sd               =   1.0161504776900E+01
(PID.TID 0000.0001) %MON dynstat_sst_del2             =   1.1233331724553E-03
(PID.TID 0000.0001) %MON dynstat_sss_max              =   3.9472815280825E+01
(PID.TID 0000.0001) %MON dynstat_sss_min              =   1.6153850930634E+01
(PID.TID 0000.0001) %MON dynstat_sss_mean             =   3.4648099142423E+01
(PID.TID 0000.0001) %MON dynstat_sss_sd               =   1.2903942719194E+00
(PID.TID 0000.0001) %MON dynstat_sss_del2             =   1.4506154013490E-03
(PID.TID 0000.0001) %MON forcing_qnet_max             =   2.5195651855469E+03
(PID.TID 0000.0001) %MON forcing_qnet_min             =  -1.5603104248047E+03
(PID.TID 0000.0001) %MON forcing_qnet_mean            =  -1.5673875366973E+01
(PID.TID 0000.0001) %MON forcing_qnet_sd              =   2.2594315276052E+02
(PID.TID 0000.0001) %MON forcing_qnet_del2            =   5.7116773518294E-01
(PID.TID 0000.0001) %MON forcing_qsw_max              =   0.0000000000000E+00
(PID.TID 0000.0001) %MON forcing_qsw_min              =  -1.1138210889974E+02
(PID.TID 0000.0001) %MON forcing_qsw_mean             =  -1.9935067230565E+01
(PID.TID 0000.0001) %MON forcing_qsw_sd               =   2.9876442555742E+01
(PID.TID 0000.0001) %MON forcing_qsw_del2             =   2.2153025912436E-02
(PID.TID 0000.0001) %MON forcing_empmr_max            =   1.9859211519361E-02
(PID.TID 0000.0001) %MON forcing_empmr_min            =  -4.7572255134583E-02
(PID.TID 0000.0001) %MON forcing_empmr_mean           =   5.8583703183684E-06
(PID.TID 0000.0001) %MON forcing_empmr_sd             =   3.9758329107947E-04
(PID.TID 0000.0001) %MON forcing_empmr_del2           =   4.4904050114765E-06
(PID.TID 0000.0001) %MON forcing_fu_max               =   1.1462101820876E+00
(PID.TID 0000.0001) %MON forcing_fu_min               =  -7.5945181926628E-01
(PID.TID 0000.0001) %MON forcing_fu_mean              =   9.8685686824893E-03
(PID.TID 0000.0001) %MON forcing_fu_sd                =   1.2001261954559E-01
(PID.TID 0000.0001) %MON forcing_fu_del2              =   1.5899208060831E-04
(PID.TID 0000.0001) %MON forcing_fv_max               =   8.7893019939597E-01
(PID.TID 0000.0001) %MON forcing_fv_min               =  -1.4867349040733E+00
(PID.TID 0000.0001) %MON forcing_fv_mean              =  -2.0327130374933E-03
(PID.TID 0000.0001) %MON forcing_fv_sd                =   1.0664367298209E-01
(PID.TID 0000.0001) %MON forcing_fv_del2              =   1.5910201366272E-04
(PID.TID 0000.0001) %MON trAdv_CFL_u_max              =   2.7847551698565E-02
(PID.TID 0000.0001) %MON trAdv_CFL_v_max              =   2.0393919847159E-02
(PID.TID 0000.0001) %MON trAdv_CFL_w_max              =   1.2372961518351E-01
(PID.TID 0000.0001) %MON advcfl_uvel_max              =   2.8220051494327E-02
(PID.TID 0000.0001) %MON advcfl_vvel_max              =   2.0068113156792E-02
(PID.TID 0000.0001) %MON advcfl_wvel_max              =   1.1730020876560E-01
(PID.TID 0000.0001) %MON advcfl_W_hf_max              =   1.2372961518351E-01
(PID.TID 0000.0001) %MON pe_b_mean                    =   1.8850441556099E-03
(PID.TID 0000.0001) %MON ke_max                       =   2.6434730632535E+00
(PID.TID 0000.0001) %MON ke_mean                      =   8.8649917597400E-04
(PID.TID 0000.0001) %MON ke_vol                       =   1.3350064351420E+18
(PID.TID 0000.0001) %MON vort_r_min                   =  -9.6568075738581E-05
(PID.TID 0000.0001) %MON vort_r_max                   =   1.0163287619580E-04
(PID.TID 0000.0001) %MON vort_a_mean                  =  -1.9725068142959E-05
(PID.TID 0000.0001) %MON vort_a_sd                    =   7.4539015764860E-05
(PID.TID 0000.0001) %MON vort_p_mean                  =  -2.1669072242006E-05
(PID.TID 0000.0001) %MON vort_p_sd                    =   9.3606734192389E-05
(PID.TID 0000.0001) %MON surfExpan_theta_mean         =   1.0006550040036E-05
(PID.TID 0000.0001) %MON surfExpan_salt_mean          =  -7.4167482077421E-06
(PID.TID 0000.0001) // =======================================================
(PID.TID 0000.0001) // End MONITOR dynamic field statistics
(PID.TID 0000.0001) // =======================================================
(PID.TID 0000.0001) // =======================================================
(PID.TID 0000.0001) // Begin MONITOR SEAICE statistics
(PID.TID 0000.0001) // =======================================================
(PID.TID 0000.0001) %MON seaice_tsnumber              =                174722
(PID.TID 0000.0001) %MON seaice_time_sec              =   7.8624900000000E+07
(PID.TID 0000.0001) %MON seaice_uice_max              =   1.3997046398475E+00
(PID.TID 0000.0001) %MON seaice_uice_min              =  -1.4479525552862E+00
(PID.TID 0000.0001) %MON seaice_uice_mean             =   2.0684127760218E-04
(PID.TID 0000.0001) %MON seaice_uice_sd               =   1.5526320524800E-01
(PID.TID 0000.0001) %MON seaice_uice_del2             =   3.3429262275355E-04
(PID.TID 0000.0001) %MON seaice_vice_max              =   2.7274787253852E+00
(PID.TID 0000.0001) %MON seaice_vice_min              =  -1.5433881069700E+00
(PID.TID 0000.0001) %MON seaice_vice_mean             =  -2.4816966778666E-02
(PID.TID 0000.0001) %MON seaice_vice_sd               =   1.6324515041655E-01
(PID.TID 0000.0001) %MON seaice_vice_del2             =   3.2016348615797E-04
(PID.TID 0000.0001) %MON seaice_area_max              =   1.0049470736626E+00
(PID.TID 0000.0001) %MON seaice_area_min              =   0.0000000000000E+00
(PID.TID 0000.0001) %MON seaice_area_mean             =   5.7313081362902E-02
(PID.TID 0000.0001) %MON seaice_area_sd               =   2.2148679296123E-01
(PID.TID 0000.0001) %MON seaice_area_del2             =   3.0711331446828E-04
(PID.TID 0000.0001) %MON seaice_heff_max              =   9.9490617793696E+00
(PID.TID 0000.0001) %MON seaice_heff_min              =   0.0000000000000E+00
(PID.TID 0000.0001) %MON seaice_heff_mean             =   1.4995924896571E-01
(PID.TID 0000.0001) %MON seaice_heff_sd               =   7.2127329243451E-01
(PID.TID 0000.0001) %MON seaice_heff_del2             =   1.4452954263887E-03
(PID.TID 0000.0001) %MON seaice_hsnow_max             =   3.2862048848774E+00
(PID.TID 0000.0001) %MON seaice_hsnow_min             =   0.0000000000000E+00
(PID.TID 0000.0001) %MON seaice_hsnow_mean            =   1.2714001807806E-02
(PID.TID 0000.0001) %MON seaice_hsnow_sd              =   6.8913095485013E-02
(PID.TID 0000.0001) %MON seaice_hsnow_del2            =   4.0214497032454E-04
(PID.TID 0000.0001) // =======================================================
(PID.TID 0000.0001) // End MONITOR SEAICE statistics
(PID.TID 0000.0001) // =======================================================
(PID.TID 0000.0001) // =======================================================
(PID.TID 0000.0001) // Begin MONITOR dynamic field statistics
(PID.TID 0000.0001) // =======================================================
(PID.TID 0000.0001) %MON time_tsnumber                =                174723
(PID.TID 0000.0001) %MON time_secondsf                =   7.8625350000000E+07
(PID.TID 0000.0001) %MON dynstat_eta_max              =   2.0365586262765E+00
(PID.TID 0000.0001) %MON dynstat_eta_min              =  -1.1395702971389E+01
(PID.TID 0000.0001) %MON dynstat_eta_mean             =   6.6369038658417E-02
(PID.TID 0000.0001) %MON dynstat_eta_sd               =   8.5055363034187E-01
(PID.TID 0000.0001) %MON dynstat_eta_del2             =   2.0149114436357E-03
(PID.TID 0000.0001) %MON dynstat_uvel_max             =   1.6601312090504E+00
(PID.TID 0000.0001) %MON dynstat_uvel_min             =  -2.7128708967764E+00
(PID.TID 0000.0001) %MON dynstat_uvel_mean            =   7.7612051417091E-04
(PID.TID 0000.0001) %MON dynstat_uvel_sd              =   3.0173543292160E-02
(PID.TID 0000.0001) %MON dynstat_uvel_del2            =   3.2039489619311E-05
(PID.TID 0000.0001) %MON dynstat_vvel_max             =   2.6034983371755E+00
(PID.TID 0000.0001) %MON dynstat_vvel_min             =  -2.1646946184643E+00
(PID.TID 0000.0001) %MON dynstat_vvel_mean            =   8.5575042671910E-04
(PID.TID 0000.0001) %MON dynstat_vvel_sd              =   3.0393982246519E-02
(PID.TID 0000.0001) %MON dynstat_vvel_del2            =   3.0669226909041E-05
(PID.TID 0000.0001) %MON dynstat_wvel_max             =   8.0592000598611E-03
(PID.TID 0000.0001) %MON dynstat_wvel_min             =  -1.0300801478856E-02
(PID.TID 0000.0001) %MON dynstat_wvel_mean            =  -8.2863703109661E-08
(PID.TID 0000.0001) %MON dynstat_wvel_sd              =   9.3268631135243E-05
(PID.TID 0000.0001) %MON dynstat_wvel_del2            =   2.1434122719245E-07
(PID.TID 0000.0001) %MON dynstat_theta_max            =   3.2519417550665E+01
(PID.TID 0000.0001) %MON dynstat_theta_min            =  -2.0263314031715E+00
(PID.TID 0000.0001) %MON dynstat_theta_mean           =   3.5921411360348E+00
(PID.TID 0000.0001) %MON dynstat_theta_sd             =   4.4421501023337E+00
(PID.TID 0000.0001) %MON dynstat_theta_del2           =   1.2080580810397E-04
(PID.TID 0000.0001) %MON dynstat_salt_max             =   4.0655992758098E+01
(PID.TID 0000.0001) %MON dynstat_salt_min             =   1.6151967100223E+01
(PID.TID 0000.0001) %MON dynstat_salt_mean            =   3.4724833074772E+01
(PID.TID 0000.0001) %MON dynstat_salt_sd              =   3.7963650147998E-01
(PID.TID 0000.0001) %MON dynstat_salt_del2            =   7.0758767705320E-05
(PID.TID 0000.0001) %MON dynstat_sst_max              =   3.2519417550665E+01
(PID.TID 0000.0001) %MON dynstat_sst_min              =  -2.0263314031715E+00
(PID.TID 0000.0001) %MON dynstat_sst_mean             =   1.8178204284648E+01
(PID.TID 0000.0001) %MON dynstat_sst_sd               =   1.0161853415389E+01
(PID.TID 0000.0001) %MON dynstat_sst_del2             =   1.1228874577099E-03
(PID.TID 0000.0001) %MON dynstat_sss_max              =   3.9472903873772E+01
(PID.TID 0000.0001) %MON dynstat_sss_min              =   1.6151967100223E+01
(PID.TID 0000.0001) %MON dynstat_sss_mean             =   3.4648028790767E+01
(PID.TID 0000.0001) %MON dynstat_sss_sd               =   1.2905202946676E+00
(PID.TID 0000.0001) %MON dynstat_sss_del2             =   1.4510077004446E-03
(PID.TID 0000.0001) %MON forcing_qnet_max             =   2.0306968511312E+03
(PID.TID 0000.0001) %MON forcing_qnet_min             =  -1.4776324462891E+03
(PID.TID 0000.0001) %MON forcing_qnet_mean            =  -1.5751820768809E+01
(PID.TID 0000.0001) %MON forcing_qnet_sd              =   2.2486030567763E+02
(PID.TID 0000.0001) %MON forcing_qnet_del2            =   5.4432801580069E-01
(PID.TID 0000.0001) %MON forcing_qsw_max              =   0.0000000000000E+00
(PID.TID 0000.0001) %MON forcing_qsw_min              =  -1.1158105170748E+02
(PID.TID 0000.0001) %MON forcing_qsw_mean             =  -1.9976962003481E+01
(PID.TID 0000.0001) %MON forcing_qsw_sd               =   2.9874541036793E+01
(PID.TID 0000.0001) %MON forcing_qsw_del2             =   2.2091869428610E-02
(PID.TID 0000.0001) %MON forcing_empmr_max            =   2.0018445327878E-02
(PID.TID 0000.0001) %MON forcing_empmr_min            =  -4.5005809515715E-02
(PID.TID 0000.0001) %MON forcing_empmr_mean           =   6.0884768282040E-06
(PID.TID 0000.0001) %MON forcing_empmr_sd             =   3.9503267559928E-04
(PID.TID 0000.0001) %MON forcing_empmr_del2           =   4.4661322575467E-06
(PID.TID 0000.0001) %MON forcing_fu_max               =   1.1791414638934E+00
(PID.TID 0000.0001) %MON forcing_fu_min               =  -7.3252549767494E-01
(PID.TID 0000.0001) %MON forcing_fu_mean              =   9.8658979284267E-03
(PID.TID 0000.0001) %MON forcing_fu_sd                =   1.2001773919610E-01
(PID.TID 0000.0001) %MON forcing_fu_del2              =   1.5874241357175E-04
(PID.TID 0000.0001) %MON forcing_fv_max               =   8.7857029264960E-01
(PID.TID 0000.0001) %MON forcing_fv_min               =  -1.4814625112274E+00
(PID.TID 0000.0001) %MON forcing_fv_mean              =  -2.0211752810740E-03
(PID.TID 0000.0001) %MON forcing_fv_sd                =   1.0657845428444E-01
(PID.TID 0000.0001) %MON forcing_fv_del2              =   1.5884965304821E-04
(PID.TID 0000.0001) %MON trAdv_CFL_u_max              =   2.7982338033535E-02
(PID.TID 0000.0001) %MON trAdv_CFL_v_max              =   2.0523429464678E-02
(PID.TID 0000.0001) %MON trAdv_CFL_w_max              =   1.2333674826797E-01
(PID.TID 0000.0001) %MON advcfl_uvel_max              =   2.8356640784286E-02
(PID.TID 0000.0001) %MON advcfl_vvel_max              =   2.0195553770403E-02
(PID.TID 0000.0001) %MON advcfl_wvel_max              =   1.1689291586259E-01
(PID.TID 0000.0001) %MON advcfl_W_hf_max              =   1.2333674826797E-01
(PID.TID 0000.0001) %MON pe_b_mean                    =   1.8799569879759E-03
(PID.TID 0000.0001) %MON ke_max                       =   2.5564413553915E+00
(PID.TID 0000.0001) %MON ke_mean                      =   8.8509668570973E-04
(PID.TID 0000.0001) %MON ke_vol                       =   1.3350064351420E+18
(PID.TID 0000.0001) %MON vort_r_min                   =  -9.6998634076059E-05
(PID.TID 0000.0001) %MON vort_r_max                   =   1.0221576586052E-04
(PID.TID 0000.0001) %MON vort_a_mean                  =  -1.9725068489783E-05
(PID.TID 0000.0001) %MON vort_a_sd                    =   7.4539012807113E-05
(PID.TID 0000.0001) %MON vort_p_mean                  =  -2.1669072623011E-05
(PID.TID 0000.0001) %MON vort_p_sd                    =   9.3606709435615E-05
(PID.TID 0000.0001) %MON surfExpan_theta_mean         =   9.5600389545025E-06
(PID.TID 0000.0001) %MON surfExpan_salt_mean          =  -7.9018990364921E-06
(PID.TID 0000.0001) // =======================================================
(PID.TID 0000.0001) // End MONITOR dynamic field statistics
(PID.TID 0000.0001) // =======================================================
(PID.TID 0000.0001) // =======================================================
(PID.TID 0000.0001) // Begin MONITOR SEAICE statistics
(PID.TID 0000.0001) // =======================================================
(PID.TID 0000.0001) %MON seaice_tsnumber              =                174723
(PID.TID 0000.0001) %MON seaice_time_sec              =   7.8625350000000E+07
(PID.TID 0000.0001) %MON seaice_uice_max              =   1.4054549475373E+00
(PID.TID 0000.0001) %MON seaice_uice_min              =  -1.4619063448698E+00
(PID.TID 0000.0001) %MON seaice_uice_mean             =   1.5861229169591E-04
(PID.TID 0000.0001) %MON seaice_uice_sd               =   1.5511661550201E-01
(PID.TID 0000.0001) %MON seaice_uice_del2             =   3.3449781015547E-04
(PID.TID 0000.0001) %MON seaice_vice_max              =   2.6577737288260E+00
(PID.TID 0000.0001) %MON seaice_vice_min              =  -1.5411380416989E+00
(PID.TID 0000.0001) %MON seaice_vice_mean             =  -2.4749186368836E-02
(PID.TID 0000.0001) %MON seaice_vice_sd               =   1.6324578324834E-01
(PID.TID 0000.0001) %MON seaice_vice_del2             =   3.1999961910534E-04
(PID.TID 0000.0001) %MON seaice_area_max              =   1.0047697714302E+00
(PID.TID 0000.0001) %MON seaice_area_min              =   0.0000000000000E+00
(PID.TID 0000.0001) %MON seaice_area_mean             =   5.7314922622983E-02
(PID.TID 0000.0001) %MON seaice_area_sd               =   2.2148147695288E-01
(PID.TID 0000.0001) %MON seaice_area_del2             =   3.0678896446478E-04
(PID.TID 0000.0001) %MON seaice_heff_max              =   9.9490590447635E+00
(PID.TID 0000.0001) %MON seaice_heff_min              =   0.0000000000000E+00
(PID.TID 0000.0001) %MON seaice_heff_mean             =   1.4995544880954E-01
(PID.TID 0000.0001) %MON seaice_heff_sd               =   7.2126056195585E-01
(PID.TID 0000.0001) %MON seaice_heff_del2             =   1.4441777300711E-03
(PID.TID 0000.0001) %MON seaice_hsnow_max             =   3.2862042124721E+00
(PID.TID 0000.0001) %MON seaice_hsnow_min             =   0.0000000000000E+00
(PID.TID 0000.0001) %MON seaice_hsnow_mean            =   1.2713062009283E-02
(PID.TID 0000.0001) %MON seaice_hsnow_sd              =   6.8903050198305E-02
(PID.TID 0000.0001) %MON seaice_hsnow_del2            =   4.0177432294914E-04
(PID.TID 0000.0001) // =======================================================
(PID.TID 0000.0001) // End MONITOR SEAICE statistics
(PID.TID 0000.0001) // =======================================================
(PID.TID 0000.0001) // =======================================================
(PID.TID 0000.0001) // Begin MONITOR dynamic field statistics
(PID.TID 0000.0001) // =======================================================
(PID.TID 0000.0001) %MON time_tsnumber                =                174724
(PID.TID 0000.0001) %MON time_secondsf                =   7.8625800000000E+07
(PID.TID 0000.0001) %MON dynstat_eta_max              =   2.0147945266973E+00
(PID.TID 0000.0001) %MON dynstat_eta_min              =  -1.1464227522543E+01
(PID.TID 0000.0001) %MON dynstat_eta_mean             =   6.6217234656662E-02
(PID.TID 0000.0001) %MON dynstat_eta_sd               =   8.5073886654015E-01
(PID.TID 0000.0001) %MON dynstat_eta_del2             =   2.0146523645040E-03
(PID.TID 0000.0001) %MON dynstat_uvel_max             =   1.6800844812997E+00
(PID.TID 0000.0001) %MON dynstat_uvel_min             =  -2.7253981315611E+00
(PID.TID 0000.0001) %MON dynstat_uvel_mean            =   7.4617664135093E-04
(PID.TID 0000.0001) %MON dynstat_uvel_sd              =   3.0140148818554E-02
(PID.TID 0000.0001) %MON dynstat_uvel_del2            =   3.2136656104262E-05
(PID.TID 0000.0001) %MON dynstat_vvel_max             =   2.5096200523801E+00
(PID.TID 0000.0001) %MON dynstat_vvel_min             =  -2.1637633777241E+00
(PID.TID 0000.0001) %MON dynstat_vvel_mean            =   8.9372628578255E-04
(PID.TID 0000.0001) %MON dynstat_vvel_sd              =   3.0379726486468E-02
(PID.TID 0000.0001) %MON dynstat_vvel_del2            =   3.0738349141146E-05
(PID.TID 0000.0001) %MON dynstat_wvel_max             =   8.0192141019342E-03
(PID.TID 0000.0001) %MON dynstat_wvel_min             =  -1.0262370114553E-02
(PID.TID 0000.0001) %MON dynstat_wvel_mean            =  -8.8377470249305E-08
(PID.TID 0000.0001) %MON dynstat_wvel_sd              =   9.3448630421990E-05
(PID.TID 0000.0001) %MON dynstat_wvel_del2            =   2.1501772956928E-07
(PID.TID 0000.0001) %MON dynstat_theta_max            =   3.2520359810452E+01
(PID.TID 0000.0001) %MON dynstat_theta_min            =  -2.0266608828767E+00
(PID.TID 0000.0001) %MON dynstat_theta_mean           =   3.5921402747621E+00
(PID.TID 0000.0001) %MON dynstat_theta_sd             =   4.4421508778699E+00
(PID.TID 0000.0001) %MON dynstat_theta_del2           =   1.2087087658231E-04
(PID.TID 0000.0001) %MON dynstat_salt_max             =   4.0655992681363E+01
(PID.TID 0000.0001) %MON dynstat_salt_min             =   1.6150053506098E+01
(PID.TID 0000.0001) %MON dynstat_salt_mean            =   3.4724832444716E+01
(PID.TID 0000.0001) %MON dynstat_salt_sd              =   3.7963830154298E-01
(PID.TID 0000.0001) %MON dynstat_salt_del2            =   7.0681696642756E-05
(PID.TID 0000.0001) %MON dynstat_sst_max              =   3.2520359810452E+01
(PID.TID 0000.0001) %MON dynstat_sst_min              =  -2.0266608828767E+00
(PID.TID 0000.0001) %MON dynstat_sst_mean             =   1.8178395482337E+01
(PID.TID 0000.0001) %MON dynstat_sst_sd               =   1.0162200461110E+01
(PID.TID 0000.0001) %MON dynstat_sst_del2             =   1.1224634324224E-03
(PID.TID 0000.0001) %MON dynstat_sss_max              =   3.9473004424293E+01
(PID.TID 0000.0001) %MON dynstat_sss_min              =   1.6150053506098E+01
(PID.TID 0000.0001) %MON dynstat_sss_mean             =   3.4647958811638E+01
(PID.TID 0000.0001) %MON dynstat_sss_sd               =   1.2906457676619E+00
(PID.TID 0000.0001) %MON dynstat_sss_del2             =   1.4514465056515E-03
(PID.TID 0000.0001) %MON forcing_qnet_max             =   1.9975606689453E+03
(PID.TID 0000.0001) %MON forcing_qnet_min             =  -1.4501696777344E+03
(PID.TID 0000.0001) %MON forcing_qnet_mean            =  -1.5703755467663E+01
(PID.TID 0000.0001) %MON forcing_qnet_sd              =   2.2432877028623E+02
(PID.TID 0000.0001) %MON forcing_qnet_del2            =   5.4383111372525E-01
(PID.TID 0000.0001) %MON forcing_qsw_max              =   0.0000000000000E+00
(PID.TID 0000.0001) %MON forcing_qsw_min              =  -1.1166491718667E+02
(PID.TID 0000.0001) %MON forcing_qsw_mean             =  -2.0003883142309E+01
(PID.TID 0000.0001) %MON forcing_qsw_sd               =   2.9868549987615E+01
(PID.TID 0000.0001) %MON forcing_qsw_del2             =   2.2021080740927E-02
(PID.TID 0000.0001) %MON forcing_empmr_max            =   2.0054522901773E-02
(PID.TID 0000.0001) %MON forcing_empmr_min            =  -4.6990238130093E-02
(PID.TID 0000.0001) %MON forcing_empmr_mean           =   6.2468371657210E-06
(PID.TID 0000.0001) %MON forcing_empmr_sd             =   4.0220668265205E-04
(PID.TID 0000.0001) %MON forcing_empmr_del2           =   4.5404912791312E-06
(PID.TID 0000.0001) %MON forcing_fu_max               =   1.2098260998842E+00
(PID.TID 0000.0001) %MON forcing_fu_min               =  -7.2560238838196E-01
(PID.TID 0000.0001) %MON forcing_fu_mean              =   9.8714407561750E-03
(PID.TID 0000.0001) %MON forcing_fu_sd                =   1.2007014660265E-01
(PID.TID 0000.0001) %MON forcing_fu_del2              =   1.5861524755791E-04
(PID.TID 0000.0001) %MON forcing_fv_max               =   8.7683382710434E-01
(PID.TID 0000.0001) %MON forcing_fv_min               =  -1.4923424596091E+00
(PID.TID 0000.0001) %MON forcing_fv_mean              =  -2.0013295302773E-03
(PID.TID 0000.0001) %MON forcing_fv_sd                =   1.0654294865689E-01
(PID.TID 0000.0001) %MON forcing_fv_del2              =   1.5866252953808E-04
(PID.TID 0000.0001) %MON trAdv_CFL_u_max              =   2.8111552187731E-02
(PID.TID 0000.0001) %MON trAdv_CFL_v_max              =   2.0651467419689E-02
(PID.TID 0000.0001) %MON trAdv_CFL_w_max              =   1.2287140151722E-01
(PID.TID 0000.0001) %MON advcfl_uvel_max              =   2.8487583357789E-02
(PID.TID 0000.0001) %MON advcfl_vvel_max              =   2.0418655323524E-02
(PID.TID 0000.0001) %MON advcfl_wvel_max              =   1.1641494993795E-01
(PID.TID 0000.0001) %MON advcfl_W_hf_max              =   1.2287140151722E-01
(PID.TID 0000.0001) %MON pe_b_mean                    =   1.8746102431086E-03
(PID.TID 0000.0001) %MON ke_max                       =   2.5834244162561E+00
(PID.TID 0000.0001) %MON ke_mean                      =   8.8371786019350E-04
(PID.TID 0000.0001) %MON ke_vol                       =   1.3350064351420E+18
(PID.TID 0000.0001) %MON vort_r_min                   =  -9.7413110586898E-05
(PID.TID 0000.0001) %MON vort_r_max                   =   1.0277752161240E-04
(PID.TID 0000.0001) %MON vort_a_mean                  =  -1.9725068852501E-05
(PID.TID 0000.0001) %MON vort_a_sd                    =   7.4539010661529E-05
(PID.TID 0000.0001) %MON vort_p_mean                  =  -2.1669073021478E-05
(PID.TID 0000.0001) %MON vort_p_sd                    =   9.3606687779113E-05
(PID.TID 0000.0001) %MON surfExpan_theta_mean         =   9.0742449126129E-06
(PID.TID 0000.0001) %MON surfExpan_salt_mean          =  -8.2985894359080E-06
(PID.TID 0000.0001) // =======================================================
(PID.TID 0000.0001) // End MONITOR dynamic field statistics
(PID.TID 0000.0001) // =======================================================
(PID.TID 0000.0001) // =======================================================
(PID.TID 0000.0001) // Begin MONITOR SEAICE statistics
(PID.TID 0000.0001) // =======================================================
(PID.TID 0000.0001) %MON seaice_tsnumber              =                174724
(PID.TID 0000.0001) %MON seaice_time_sec              =   7.8625800000000E+07
(PID.TID 0000.0001) %MON seaice_uice_max              =   1.4107925947816E+00
(PID.TID 0000.0001) %MON seaice_uice_min              =  -1.4931844367100E+00
(PID.TID 0000.0001) %MON seaice_uice_mean             =   1.1038244674027E-04
(PID.TID 0000.0001) %MON seaice_uice_sd               =   1.5496501216594E-01
(PID.TID 0000.0001) %MON seaice_uice_del2             =   3.3471483916434E-04
(PID.TID 0000.0001) %MON seaice_vice_max              =   2.6034983371755E+00
(PID.TID 0000.0001) %MON seaice_vice_min              =  -1.5389003183614E+00
(PID.TID 0000.0001) %MON seaice_vice_mean             =  -2.4674662915125E-02
(PID.TID 0000.0001) %MON seaice_vice_sd               =   1.6325034814614E-01
(PID.TID 0000.0001) %MON seaice_vice_del2             =   3.1979115854904E-04
(PID.TID 0000.0001) %MON seaice_area_max              =   1.0045881419586E+00
(PID.TID 0000.0001) %MON seaice_area_min              =   0.0000000000000E+00
(PID.TID 0000.0001) %MON seaice_area_mean             =   5.7316769395112E-02
(PID.TID 0000.0001) %MON seaice_area_sd               =   2.2147609757041E-01
(PID.TID 0000.0001) %MON seaice_area_del2             =   3.0647087031254E-04
(PID.TID 0000.0001) %MON seaice_heff_max              =   9.9490534325124E+00
(PID.TID 0000.0001) %MON seaice_heff_min              =   0.0000000000000E+00
(PID.TID 0000.0001) %MON seaice_heff_mean             =   1.4995163207921E-01
(PID.TID 0000.0001) %MON seaice_heff_sd               =   7.2124779169101E-01
(PID.TID 0000.0001) %MON seaice_heff_del2             =   1.4430825545211E-03
(PID.TID 0000.0001) %MON seaice_hsnow_max             =   3.2862021052078E+00
(PID.TID 0000.0001) %MON seaice_hsnow_min             =   0.0000000000000E+00
(PID.TID 0000.0001) %MON seaice_hsnow_mean            =   1.2712106106311E-02
(PID.TID 0000.0001) %MON seaice_hsnow_sd              =   6.8893023638744E-02
(PID.TID 0000.0001) %MON seaice_hsnow_del2            =   4.0140986891655E-04
(PID.TID 0000.0001) // =======================================================
(PID.TID 0000.0001) // End MONITOR SEAICE statistics
(PID.TID 0000.0001) // =======================================================
(PID.TID 0000.0001) // =======================================================
(PID.TID 0000.0001) // Begin MONITOR dynamic field statistics
(PID.TID 0000.0001) // =======================================================
(PID.TID 0000.0001) %MON time_tsnumber                =                174725
(PID.TID 0000.0001) %MON time_secondsf                =   7.8626250000000E+07
(PID.TID 0000.0001) %MON dynstat_eta_max              =   2.0536359467529E+00
(PID.TID 0000.0001) %MON dynstat_eta_min              =  -1.1526021201078E+01
(PID.TID 0000.0001) %MON dynstat_eta_mean             =   6.6060327186706E-02
(PID.TID 0000.0001) %MON dynstat_eta_sd               =   8.5089391354557E-01
(PID.TID 0000.0001) %MON dynstat_eta_del2             =   2.0144388107057E-03
(PID.TID 0000.0001) %MON dynstat_uvel_max             =   1.7029322263532E+00
(PID.TID 0000.0001) %MON dynstat_uvel_min             =  -2.7373694572880E+00
(PID.TID 0000.0001) %MON dynstat_uvel_mean            =   7.1888856649113E-04
(PID.TID 0000.0001) %MON dynstat_uvel_sd              =   3.0105265330981E-02
(PID.TID 0000.0001) %MON dynstat_uvel_del2            =   3.2231819431380E-05
(PID.TID 0000.0001) %MON dynstat_vvel_max             =   2.3979319726526E+00
(PID.TID 0000.0001) %MON dynstat_vvel_min             =  -2.1626560416955E+00
(PID.TID 0000.0001) %MON dynstat_vvel_mean            =   9.3323129171080E-04
(PID.TID 0000.0001) %MON dynstat_vvel_sd              =   3.0367763684096E-02
(PID.TID 0000.0001) %MON dynstat_vvel_del2            =   3.0805869219700E-05
(PID.TID 0000.0001) %MON dynstat_wvel_max             =   7.9824431900546E-03
(PID.TID 0000.0001) %MON dynstat_wvel_min             =  -1.0225181783325E-02
(PID.TID 0000.0001) %MON dynstat_wvel_mean            =  -9.2247954074352E-08
(PID.TID 0000.0001) %MON dynstat_wvel_sd              =   9.3629191108356E-05
(PID.TID 0000.0001) %MON dynstat_wvel_del2            =   2.1568388463152E-07
(PID.TID 0000.0001) %MON dynstat_theta_max            =   3.2521191582915E+01
(PID.TID 0000.0001) %MON dynstat_theta_min            =  -2.0269863875709E+00
(PID.TID 0000.0001) %MON dynstat_theta_mean           =   3.5921395079518E+00
(PID.TID 0000.0001) %MON dynstat_theta_sd             =   4.4421517847776E+00
(PID.TID 0000.0001) %MON dynstat_theta_del2           =   1.2093581120514E-04
(PID.TID 0000.0001) %MON dynstat_salt_max             =   4.0655992606725E+01
(PID.TID 0000.0001) %MON dynstat_salt_min             =   1.6148115840943E+01
(PID.TID 0000.0001) %MON dynstat_salt_mean            =   3.4724831804947E+01
(PID.TID 0000.0001) %MON dynstat_salt_sd              =   3.7964004609855E-01
(PID.TID 0000.0001) %MON dynstat_salt_del2            =   7.0605412200770E-05
(PID.TID 0000.0001) %MON dynstat_sst_max              =   3.2521191582915E+01
(PID.TID 0000.0001) %MON dynstat_sst_min              =  -2.0269863875709E+00
(PID.TID 0000.0001) %MON dynstat_sst_mean             =   1.8178575000774E+01
(PID.TID 0000.0001) %MON dynstat_sst_sd               =   1.0162548418390E+01
(PID.TID 0000.0001) %MON dynstat_sst_del2             =   1.1220447291235E-03
(PID.TID 0000.0001) %MON dynstat_sss_max              =   3.9473121491047E+01
(PID.TID 0000.0001) %MON dynstat_sss_min              =   1.6148115840943E+01
(PID.TID 0000.0001) %MON dynstat_sss_mean             =   3.4647889607897E+01
(PID.TID 0000.0001) %MON dynstat_sss_sd               =   1.2907708897799E+00
(PID.TID 0000.0001) %MON dynstat_sss_del2             =   1.4519017235644E-03
(PID.TID 0000.0001) %MON forcing_qnet_max             =   2.3068444824219E+03
(PID.TID 0000.0001) %MON forcing_qnet_min             =  -2.7620432128906E+03
(PID.TID 0000.0001) %MON forcing_qnet_mean            =  -1.6877177320819E+01
(PID.TID 0000.0001) %MON forcing_qnet_sd              =   2.2381193959912E+02
(PID.TID 0000.0001) %MON forcing_qnet_del2            =   5.6369528353775E-01
(PID.TID 0000.0001) %MON forcing_qsw_max              =   0.0000000000000E+00
(PID.TID 0000.0001) %MON forcing_qsw_min              =  -1.1160175502454E+02
(PID.TID 0000.0001) %MON forcing_qsw_mean             =  -2.0221030054731E+01
(PID.TID 0000.0001) %MON forcing_qsw_sd               =   3.0033326538340E+01
(PID.TID 0000.0001) %MON forcing_qsw_del2             =   2.1764723405169E-02
(PID.TID 0000.0001) %MON forcing_empmr_max            =   2.0074868574739E-02
(PID.TID 0000.0001) %MON forcing_empmr_min            =  -5.1159352064133E-02
(PID.TID 0000.0001) %MON forcing_empmr_mean           =   5.8629565834791E-06
(PID.TID 0000.0001) %MON forcing_empmr_sd             =   4.0999515006168E-04
(PID.TID 0000.0001) %MON forcing_empmr_del2           =   4.6325134762230E-06
(PID.TID 0000.0001) %MON forcing_fu_max               =   1.2372668056102E+00
(PID.TID 0000.0001) %MON forcing_fu_min               =  -7.2304463386536E-01
(PID.TID 0000.0001) %MON forcing_fu_mean              =   9.8693328400830E-03
(PID.TID 0000.0001) %MON forcing_fu_sd                =   1.2012182603693E-01
(PID.TID 0000.0001) %MON forcing_fu_del2              =   1.5845952934495E-04
(PID.TID 0000.0001) %MON forcing_fv_max               =   8.7648651681446E-01
(PID.TID 0000.0001) %MON forcing_fv_min               =  -1.5005077873152E+00
(PID.TID 0000.0001) %MON forcing_fv_mean              =  -1.9811035431929E-03
(PID.TID 0000.0001) %MON forcing_fv_sd                =   1.0651356731246E-01
(PID.TID 0000.0001) %MON forcing_fv_del2              =   1.5845812385224E-04
(PID.TID 0000.0001) %MON trAdv_CFL_u_max              =   2.8235032329598E-02
(PID.TID 0000.0001) %MON trAdv_CFL_v_max              =   2.0778775610574E-02
(PID.TID 0000.0001) %MON trAdv_CFL_w_max              =   1.2234084698384E-01
(PID.TID 0000.0001) %MON advcfl_uvel_max              =   2.8612715218563E-02
(PID.TID 0000.0001) %MON advcfl_vvel_max              =   2.0711818475018E-02
(PID.TID 0000.0001) %MON advcfl_wvel_max              =   1.1587358349923E-01
(PID.TID 0000.0001) %MON advcfl_W_hf_max              =   1.2234084698384E-01
(PID.TID 0000.0001) %MON pe_b_mean                    =   1.8690379859859E-03
(PID.TID 0000.0001) %MON ke_max                       =   2.6094554964972E+00
(PID.TID 0000.0001) %MON ke_mean                      =   8.8236970931041E-04
(PID.TID 0000.0001) %MON ke_vol                       =   1.3350064351420E+18
(PID.TID 0000.0001) %MON vort_r_min                   =  -9.7810603120953E-05
(PID.TID 0000.0001) %MON vort_r_max                   =   1.0331723917578E-04
(PID.TID 0000.0001) %MON vort_a_mean                  =  -1.9725069225825E-05
(PID.TID 0000.0001) %MON vort_a_sd                    =   7.4539009366530E-05
(PID.TID 0000.0001) %MON vort_p_mean                  =  -2.1669073431594E-05
(PID.TID 0000.0001) %MON vort_p_sd                    =   9.3606669411021E-05
(PID.TID 0000.0001) %MON surfExpan_theta_mean         =   8.5536068777395E-06
(PID.TID 0000.0001) %MON surfExpan_salt_mean          =  -8.6137570515704E-06
(PID.TID 0000.0001) // =======================================================
(PID.TID 0000.0001) // End MONITOR dynamic field statistics
(PID.TID 0000.0001) // =======================================================
(PID.TID 0000.0001) // =======================================================
(PID.TID 0000.0001) // Begin MONITOR SEAICE statistics
(PID.TID 0000.0001) // =======================================================
(PID.TID 0000.0001) %MON seaice_tsnumber              =                174725
(PID.TID 0000.0001) %MON seaice_time_sec              =   7.8626250000000E+07
(PID.TID 0000.0001) %MON seaice_uice_max              =   1.4156140217043E+00
(PID.TID 0000.0001) %MON seaice_uice_min              =  -1.5251142111206E+00
(PID.TID 0000.0001) %MON seaice_uice_mean             =   6.1030582963097E-05
(PID.TID 0000.0001) %MON seaice_uice_sd               =   1.5481415188278E-01
(PID.TID 0000.0001) %MON seaice_uice_del2             =   3.3492029497367E-04
(PID.TID 0000.0001) %MON seaice_vice_max              =   2.5096200523801E+00
(PID.TID 0000.0001) %MON seaice_vice_min              =  -1.5366354297191E+00
(PID.TID 0000.0001) %MON seaice_vice_mean             =  -2.4594331749348E-02
(PID.TID 0000.0001) %MON seaice_vice_sd               =   1.6324565645073E-01
(PID.TID 0000.0001) %MON seaice_vice_del2             =   3.1954824375565E-04
(PID.TID 0000.0001) %MON seaice_area_max              =   1.0044025702887E+00
(PID.TID 0000.0001) %MON seaice_area_min              =   0.0000000000000E+00
(PID.TID 0000.0001) %MON seaice_area_mean             =   5.7318639805112E-02
(PID.TID 0000.0001) %MON seaice_area_sd               =   2.2147071344257E-01
(PID.TID 0000.0001) %MON seaice_area_del2             =   3.0616155582845E-04
(PID.TID 0000.0001) %MON seaice_heff_max              =   9.9490487725090E+00
(PID.TID 0000.0001) %MON seaice_heff_min              =   0.0000000000000E+00
(PID.TID 0000.0001) %MON seaice_heff_mean             =   1.4994780441651E-01
(PID.TID 0000.0001) %MON seaice_heff_sd               =   7.2123499469267E-01
(PID.TID 0000.0001) %MON seaice_heff_del2             =   1.4420077726990E-03
(PID.TID 0000.0001) %MON seaice_hsnow_max             =   3.2862007115548E+00
(PID.TID 0000.0001) %MON seaice_hsnow_min             =   0.0000000000000E+00
(PID.TID 0000.0001) %MON seaice_hsnow_mean            =   1.2711149597089E-02
(PID.TID 0000.0001) %MON seaice_hsnow_sd              =   6.8883064474065E-02
(PID.TID 0000.0001) %MON seaice_hsnow_del2            =   4.0105121202678E-04
(PID.TID 0000.0001) // =======================================================
(PID.TID 0000.0001) // End MONITOR SEAICE statistics
(PID.TID 0000.0001) // =======================================================
(PID.TID 0000.0001) // =======================================================
(PID.TID 0000.0001) // Begin MONITOR dynamic field statistics
(PID.TID 0000.0001) // =======================================================
(PID.TID 0000.0001) %MON time_tsnumber                =                174726
(PID.TID 0000.0001) %MON time_secondsf                =   7.8626700000000E+07
(PID.TID 0000.0001) %MON dynstat_eta_max              =   2.1567276552005E+00
(PID.TID 0000.0001) %MON dynstat_eta_min              =  -1.1580150039640E+01
(PID.TID 0000.0001) %MON dynstat_eta_mean             =   6.5899689844537E-02
(PID.TID 0000.0001) %MON dynstat_eta_sd               =   8.5101847518623E-01
(PID.TID 0000.0001) %MON dynstat_eta_del2             =   2.0142717664716E-03
(PID.TID 0000.0001) %MON dynstat_uvel_max             =   1.7246248305139E+00
(PID.TID 0000.0001) %MON dynstat_uvel_min             =  -2.7487724964356E+00
(PID.TID 0000.0001) %MON dynstat_uvel_mean            =   6.9455130929018E-04
(PID.TID 0000.0001) %MON dynstat_uvel_sd              =   3.0069187970435E-02
(PID.TID 0000.0001) %MON dynstat_uvel_del2            =   3.2325577691668E-05
(PID.TID 0000.0001) %MON dynstat_vvel_max             =   2.2816022601692E+00
(PID.TID 0000.0001) %MON dynstat_vvel_min             =  -2.1613180083319E+00
(PID.TID 0000.0001) %MON dynstat_vvel_mean            =   9.7419486507077E-04
(PID.TID 0000.0001) %MON dynstat_vvel_sd              =   3.0357884064796E-02
(PID.TID 0000.0001) %MON dynstat_vvel_del2            =   3.0870902268099E-05
(PID.TID 0000.0001) %MON dynstat_wvel_max             =   7.9488064285136E-03
(PID.TID 0000.0001) %MON dynstat_wvel_min             =  -1.0189340687295E-02
(PID.TID 0000.0001) %MON dynstat_wvel_mean            =  -9.3837633081042E-08
(PID.TID 0000.0001) %MON dynstat_wvel_sd              =   9.3810159008998E-05
(PID.TID 0000.0001) %MON dynstat_wvel_del2            =   2.1634147320501E-07
(PID.TID 0000.0001) %MON dynstat_theta_max            =   3.2521952938502E+01
(PID.TID 0000.0001) %MON dynstat_theta_min            =  -2.0273127547709E+00
(PID.TID 0000.0001) %MON dynstat_theta_mean           =   3.5921388175327E+00
(PID.TID 0000.0001) %MON dynstat_theta_sd             =   4.4421527183378E+00
(PID.TID 0000.0001) %MON dynstat_theta_del2           =   1.2100062205354E-04
(PID.TID 0000.0001) %MON dynstat_salt_max             =   4.0655992534460E+01
(PID.TID 0000.0001) %MON dynstat_salt_min             =   1.6146160357004E+01
(PID.TID 0000.0001) %MON dynstat_salt_mean            =   3.4724831156225E+01
(PID.TID 0000.0001) %MON dynstat_salt_sd              =   3.7964173494187E-01
(PID.TID 0000.0001) %MON dynstat_salt_del2            =   7.0529189578603E-05
(PID.TID 0000.0001) %MON dynstat_sst_max              =   3.2521952938502E+01
(PID.TID 0000.0001) %MON dynstat_sst_min              =  -2.0273127547709E+00
(PID.TID 0000.0001) %MON dynstat_sst_mean             =   1.8178759347060E+01
(PID.TID 0000.0001) %MON dynstat_sst_sd               =   1.0162893996033E+01
(PID.TID 0000.0001) %MON dynstat_sst_del2             =   1.1216051843334E-03
(PID.TID 0000.0001) %MON dynstat_sss_max              =   3.9473260260917E+01
(PID.TID 0000.0001) %MON dynstat_sss_min              =   1.6146160357004E+01
(PID.TID 0000.0001) %MON dynstat_sss_mean             =   3.4647820340282E+01
(PID.TID 0000.0001) %MON dynstat_sss_sd               =   1.2908960246245E+00
(PID.TID 0000.0001) %MON dynstat_sss_del2             =   1.4523543809248E-03
(PID.TID 0000.0001) %MON forcing_qnet_max             =   1.9405578613281E+03
(PID.TID 0000.0001) %MON forcing_qnet_min             =  -1.6395040350656E+03
(PID.TID 0000.0001) %MON forcing_qnet_mean            =  -1.7412683165100E+01
(PID.TID 0000.0001) %MON forcing_qnet_sd              =   2.2286552335837E+02
(PID.TID 0000.0001) %MON forcing_qnet_del2            =   5.4367771944212E-01
(PID.TID 0000.0001) %MON forcing_qsw_max              =   0.0000000000000E+00
(PID.TID 0000.0001) %MON forcing_qsw_min              =  -1.1151733730295E+02
(PID.TID 0000.0001) %MON forcing_qsw_mean             =  -2.0329148097088E+01
(PID.TID 0000.0001) %MON forcing_qsw_sd               =   3.0122556338052E+01
(PID.TID 0000.0001) %MON forcing_qsw_del2             =   2.1733148235308E-02
(PID.TID 0000.0001) %MON forcing_empmr_max            =   2.0081378519535E-02
(PID.TID 0000.0001) %MON forcing_empmr_min            =  -5.7251777499914E-02
(PID.TID 0000.0001) %MON forcing_empmr_mean           =   5.9623416868962E-06
(PID.TID 0000.0001) %MON forcing_empmr_sd             =   4.1352934715464E-04
(PID.TID 0000.0001) %MON forcing_empmr_del2           =   4.6714812285074E-06
(PID.TID 0000.0001) %MON forcing_fu_max               =   1.2609637788065E+00
(PID.TID 0000.0001) %MON forcing_fu_min               =  -7.1801275014877E-01
(PID.TID 0000.0001) %MON forcing_fu_mean              =   9.8806359410043E-03
(PID.TID 0000.0001) %MON forcing_fu_sd                =   1.2020981519275E-01
(PID.TID 0000.0001) %MON forcing_fu_del2              =   1.5844155191125E-04
(PID.TID 0000.0001) %MON forcing_fv_max               =   8.7480191979397E-01
(PID.TID 0000.0001) %MON forcing_fv_min               =  -1.5052521380792E+00
(PID.TID 0000.0001) %MON forcing_fv_mean              =  -1.9561115499627E-03
(PID.TID 0000.0001) %MON forcing_fv_sd                =   1.0649376809885E-01
(PID.TID 0000.0001) %MON forcing_fv_del2              =   1.5830923804532E-04
(PID.TID 0000.0001) %MON trAdv_CFL_u_max              =   2.8352650789222E-02
(PID.TID 0000.0001) %MON trAdv_CFL_v_max              =   2.1060342937038E-02
(PID.TID 0000.0001) %MON trAdv_CFL_w_max              =   1.2174941503004E-01
(PID.TID 0000.0001) %MON advcfl_uvel_max              =   2.8731906988927E-02
(PID.TID 0000.0001) %MON advcfl_vvel_max              =   2.0992478484228E-02
(PID.TID 0000.0001) %MON advcfl_wvel_max              =   1.1527279353018E-01
(PID.TID 0000.0001) %MON advcfl_W_hf_max              =   1.2174941503004E-01
(PID.TID 0000.0001) %MON pe_b_mean                    =   1.8632795421176E-03
(PID.TID 0000.0001) %MON ke_max                       =   2.6344832234229E+00
(PID.TID 0000.0001) %MON ke_mean                      =   8.8105481536429E-04
(PID.TID 0000.0001) %MON ke_vol                       =   1.3350064351420E+18
(PID.TID 0000.0001) %MON vort_r_min                   =  -9.8190544493608E-05
(PID.TID 0000.0001) %MON vort_r_max                   =   1.0383415886850E-04
(PID.TID 0000.0001) %MON vort_a_mean                  =  -1.9725069604316E-05
(PID.TID 0000.0001) %MON vort_a_sd                    =   7.4539008934721E-05
(PID.TID 0000.0001) %MON vort_p_mean                  =  -2.1669073847388E-05
(PID.TID 0000.0001) %MON vort_p_sd                    =   9.3606654458388E-05
(PID.TID 0000.0001) %MON surfExpan_theta_mean         =   8.0489056508626E-06
(PID.TID 0000.0001) %MON surfExpan_salt_mean          =  -8.8058240213693E-06
(PID.TID 0000.0001) // =======================================================
(PID.TID 0000.0001) // End MONITOR dynamic field statistics
(PID.TID 0000.0001) // =======================================================
(PID.TID 0000.0001) // =======================================================
(PID.TID 0000.0001) // Begin MONITOR SEAICE statistics
(PID.TID 0000.0001) // =======================================================
(PID.TID 0000.0001) %MON seaice_tsnumber              =                174726
(PID.TID 0000.0001) %MON seaice_time_sec              =   7.8626700000000E+07
(PID.TID 0000.0001) %MON seaice_uice_max              =   1.4198238009257E+00
(PID.TID 0000.0001) %MON seaice_uice_min              =  -1.5575024052021E+00
(PID.TID 0000.0001) %MON seaice_uice_mean             =   1.9063678157621E-05
(PID.TID 0000.0001) %MON seaice_uice_sd               =   1.5465131048791E-01
(PID.TID 0000.0001) %MON seaice_uice_del2             =   3.3508758329836E-04
(PID.TID 0000.0001) %MON seaice_vice_max              =   2.3979319726526E+00
(PID.TID 0000.0001) %MON seaice_vice_min              =  -1.5346410380769E+00
(PID.TID 0000.0001) %MON seaice_vice_mean             =  -2.4513778854765E-02
(PID.TID 0000.0001) %MON seaice_vice_sd               =   1.6324943752707E-01
(PID.TID 0000.0001) %MON seaice_vice_del2             =   3.1923235720602E-04
(PID.TID 0000.0001) %MON seaice_area_max              =   1.0042138932752E+00
(PID.TID 0000.0001) %MON seaice_area_min              =   0.0000000000000E+00
(PID.TID 0000.0001) %MON seaice_area_mean             =   5.7320532987879E-02
(PID.TID 0000.0001) %MON seaice_area_sd               =   2.2146534248356E-01
(PID.TID 0000.0001) %MON seaice_area_del2             =   3.0586509069387E-04
(PID.TID 0000.0001) %MON seaice_heff_max              =   9.9490412433367E+00
(PID.TID 0000.0001) %MON seaice_heff_min              =   0.0000000000000E+00
(PID.TID 0000.0001) %MON seaice_heff_mean             =   1.4994396120855E-01
(PID.TID 0000.0001) %MON seaice_heff_sd               =   7.2122216706144E-01
(PID.TID 0000.0001) %MON seaice_heff_del2             =   1.4409528135497E-03
(PID.TID 0000.0001) %MON seaice_hsnow_max             =   3.2861983609331E+00
(PID.TID 0000.0001) %MON seaice_hsnow_min             =   0.0000000000000E+00
(PID.TID 0000.0001) %MON seaice_hsnow_mean            =   1.2710179650236E-02
(PID.TID 0000.0001) %MON seaice_hsnow_sd              =   6.8873113265582E-02
(PID.TID 0000.0001) %MON seaice_hsnow_del2            =   4.0069833635194E-04
(PID.TID 0000.0001) // =======================================================
(PID.TID 0000.0001) // End MONITOR SEAICE statistics
(PID.TID 0000.0001) // =======================================================
(PID.TID 0000.0001) // =======================================================
(PID.TID 0000.0001) // Begin MONITOR dynamic field statistics
(PID.TID 0000.0001) // =======================================================
(PID.TID 0000.0001) %MON time_tsnumber                =                174727
(PID.TID 0000.0001) %MON time_secondsf                =   7.8627150000000E+07
(PID.TID 0000.0001) %MON dynstat_eta_max              =   2.2405627643001E+00
(PID.TID 0000.0001) %MON dynstat_eta_min              =  -1.1625872149856E+01
(PID.TID 0000.0001) %MON dynstat_eta_mean             =   6.5736776639895E-02
(PID.TID 0000.0001) %MON dynstat_eta_sd               =   8.5111290764986E-01
(PID.TID 0000.0001) %MON dynstat_eta_del2             =   2.0141538280331E-03
(PID.TID 0000.0001) %MON dynstat_uvel_max             =   1.7450002720174E+00
(PID.TID 0000.0001) %MON dynstat_uvel_min             =  -2.7595989563621E+00
(PID.TID 0000.0001) %MON dynstat_uvel_mean            =   6.7344980416717E-04
(PID.TID 0000.0001) %MON dynstat_uvel_sd              =   3.0031966844126E-02
(PID.TID 0000.0001) %MON dynstat_uvel_del2            =   3.2417718789083E-05
(PID.TID 0000.0001) %MON dynstat_vvel_max             =   2.1470639046231E+00
(PID.TID 0000.0001) %MON dynstat_vvel_min             =  -2.1596941989614E+00
(PID.TID 0000.0001) %MON dynstat_vvel_mean            =   1.0165379039647E-03
(PID.TID 0000.0001) %MON dynstat_vvel_sd              =   3.0350055118598E-02
(PID.TID 0000.0001) %MON dynstat_vvel_del2            =   3.0934161489558E-05
(PID.TID 0000.0001) %MON dynstat_wvel_max             =   7.9182035183969E-03
(PID.TID 0000.0001) %MON dynstat_wvel_min             =  -1.0154898981407E-02
(PID.TID 0000.0001) %MON dynstat_wvel_mean            =  -9.3647280800313E-08
(PID.TID 0000.0001) %MON dynstat_wvel_sd              =   9.3990852622579E-05
(PID.TID 0000.0001) %MON dynstat_wvel_del2            =   2.1699169862100E-07
(PID.TID 0000.0001) %MON dynstat_theta_max            =   3.2522581474740E+01
(PID.TID 0000.0001) %MON dynstat_theta_min            =  -2.0276362409061E+00
(PID.TID 0000.0001) %MON dynstat_theta_mean           =   3.5921381892731E+00
(PID.TID 0000.0001) %MON dynstat_theta_sd             =   4.4421536313111E+00
(PID.TID 0000.0001) %MON dynstat_theta_del2           =   1.2106556969634E-04
(PID.TID 0000.0001) %MON dynstat_salt_max             =   4.0655992464842E+01
(PID.TID 0000.0001) %MON dynstat_salt_min             =   1.6144193395028E+01
(PID.TID 0000.0001) %MON dynstat_salt_mean            =   3.4724830496893E+01
(PID.TID 0000.0001) %MON dynstat_salt_sd              =   3.7964337402204E-01
(PID.TID 0000.0001) %MON dynstat_salt_del2            =   7.0453872047105E-05
(PID.TID 0000.0001) %MON dynstat_sst_max              =   3.2522581474740E+01
(PID.TID 0000.0001) %MON dynstat_sst_min              =  -2.0276362409061E+00
(PID.TID 0000.0001) %MON dynstat_sst_mean             =   1.8178937400707E+01
(PID.TID 0000.0001) %MON dynstat_sst_sd               =   1.0163235409779E+01
(PID.TID 0000.0001) %MON dynstat_sst_del2             =   1.1211592247560E-03
(PID.TID 0000.0001) %MON dynstat_sss_max              =   3.9473435419391E+01
(PID.TID 0000.0001) %MON dynstat_sss_min              =   1.6144193395028E+01
(PID.TID 0000.0001) %MON dynstat_sss_mean             =   3.4647751454227E+01
(PID.TID 0000.0001) %MON dynstat_sss_sd               =   1.2910215028664E+00
(PID.TID 0000.0001) %MON dynstat_sss_del2             =   1.4528114542307E-03
(PID.TID 0000.0001) %MON forcing_qnet_max             =   1.7299118652344E+03
(PID.TID 0000.0001) %MON forcing_qnet_min             =  -1.5927849231577E+03
(PID.TID 0000.0001) %MON forcing_qnet_mean            =  -1.7542407830451E+01
(PID.TID 0000.0001) %MON forcing_qnet_sd              =   2.2246823093200E+02
(PID.TID 0000.0001) %MON forcing_qnet_del2            =   5.3661106427671E-01
(PID.TID 0000.0001) %MON forcing_qsw_max              =   0.0000000000000E+00
(PID.TID 0000.0001) %MON forcing_qsw_min              =  -1.1185255775207E+02
(PID.TID 0000.0001) %MON forcing_qsw_mean             =  -2.0424652223907E+01
(PID.TID 0000.0001) %MON forcing_qsw_sd               =   3.0206459993763E+01
(PID.TID 0000.0001) %MON forcing_qsw_del2             =   2.1693105745206E-02
(PID.TID 0000.0001) %MON forcing_empmr_max            =   2.0063746720552E-02
(PID.TID 0000.0001) %MON forcing_empmr_min            =  -6.1845015734434E-02
(PID.TID 0000.0001) %MON forcing_empmr_mean           =   5.5391834388128E-06
(PID.TID 0000.0001) %MON forcing_empmr_sd             =   4.1991512298555E-04
(PID.TID 0000.0001) %MON forcing_empmr_del2           =   4.7400643202115E-06
(PID.TID 0000.0001) %MON forcing_fu_max               =   1.2811319138566E+00
(PID.TID 0000.0001) %MON forcing_fu_min               =  -7.1292659640312E-01
(PID.TID 0000.0001) %MON forcing_fu_mean              =   9.8818243334729E-03
(PID.TID 0000.0001) %MON forcing_fu_sd                =   1.2028319339333E-01
(PID.TID 0000.0001) %MON forcing_fu_del2              =   1.5842377376938E-04
(PID.TID 0000.0001) %MON forcing_fv_max               =   8.7554140631781E-01
(PID.TID 0000.0001) %MON forcing_fv_min               =  -1.5077297091092E+00
(PID.TID 0000.0001) %MON forcing_fv_mean              =  -1.9264713359793E-03
(PID.TID 0000.0001) %MON forcing_fv_sd                =   1.0646809193637E-01
(PID.TID 0000.0001) %MON forcing_fv_del2              =   1.5815113919137E-04
(PID.TID 0000.0001) %MON trAdv_CFL_u_max              =   2.8464322030832E-02
(PID.TID 0000.0001) %MON trAdv_CFL_v_max              =   2.1326937622275E-02
(PID.TID 0000.0001) %MON trAdv_CFL_w_max              =   1.2110190256431E-01
(PID.TID 0000.0001) %MON advcfl_uvel_max              =   2.8845071988952E-02
(PID.TID 0000.0001) %MON advcfl_vvel_max              =   2.1258214099768E-02
(PID.TID 0000.0001) %MON advcfl_wvel_max              =   1.1461708196093E-01
(PID.TID 0000.0001) %MON advcfl_W_hf_max              =   1.2110190256431E-01
(PID.TID 0000.0001) %MON pe_b_mean                    =   1.8573783732610E-03
(PID.TID 0000.0001) %MON ke_max                       =   2.6584677214886E+00
(PID.TID 0000.0001) %MON ke_mean                      =   8.7977381540884E-04
(PID.TID 0000.0001) %MON ke_vol                       =   1.3350064351420E+18
(PID.TID 0000.0001) %MON vort_r_min                   =  -9.8552337351153E-05
(PID.TID 0000.0001) %MON vort_r_max                   =   1.0432777166361E-04
(PID.TID 0000.0001) %MON vort_a_mean                  =  -1.9725069982445E-05
(PID.TID 0000.0001) %MON vort_a_sd                    =   7.4539009371837E-05
(PID.TID 0000.0001) %MON vort_p_mean                  =  -2.1669074262783E-05
(PID.TID 0000.0001) %MON vort_p_sd                    =   9.3606642992749E-05
(PID.TID 0000.0001) %MON surfExpan_theta_mean         =   7.5580638175367E-06
(PID.TID 0000.0001) %MON surfExpan_salt_mean          =  -8.9032117229154E-06
(PID.TID 0000.0001) // =======================================================
(PID.TID 0000.0001) // End MONITOR dynamic field statistics
(PID.TID 0000.0001) // =======================================================
(PID.TID 0000.0001) // =======================================================
(PID.TID 0000.0001) // Begin MONITOR SEAICE statistics
(PID.TID 0000.0001) // =======================================================
(PID.TID 0000.0001) %MON seaice_tsnumber              =                174727
(PID.TID 0000.0001) %MON seaice_time_sec              =   7.8627150000000E+07
(PID.TID 0000.0001) %MON seaice_uice_max              =   1.4234856134679E+00
(PID.TID 0000.0001) %MON seaice_uice_min              =  -1.5906837351823E+00
(PID.TID 0000.0001) %MON seaice_uice_mean             =  -2.7455081434770E-05
(PID.TID 0000.0001) %MON seaice_uice_sd               =   1.5449914822608E-01
(PID.TID 0000.0001) %MON seaice_uice_del2             =   3.3522225254640E-04
(PID.TID 0000.0001) %MON seaice_vice_max              =   2.2816022601692E+00
(PID.TID 0000.0001) %MON seaice_vice_min              =  -1.5323362859639E+00
(PID.TID 0000.0001) %MON seaice_vice_mean             =  -2.4432849248358E-02
(PID.TID 0000.0001) %MON seaice_vice_sd               =   1.6325044407511E-01
(PID.TID 0000.0001) %MON seaice_vice_del2             =   3.1895878269809E-04
(PID.TID 0000.0001) %MON seaice_area_max              =   1.0040229611717E+00
(PID.TID 0000.0001) %MON seaice_area_min              =   0.0000000000000E+00
(PID.TID 0000.0001) %MON seaice_area_mean             =   5.7322429494393E-02
(PID.TID 0000.0001) %MON seaice_area_sd               =   2.2145992373876E-01
(PID.TID 0000.0001) %MON seaice_area_del2             =   3.0557655284511E-04
(PID.TID 0000.0001) %MON seaice_heff_max              =   9.9490336998592E+00
(PID.TID 0000.0001) %MON seaice_heff_min              =   0.0000000000000E+00
(PID.TID 0000.0001) %MON seaice_heff_mean             =   1.4994011216568E-01
(PID.TID 0000.0001) %MON seaice_heff_sd               =   7.2120933872807E-01
(PID.TID 0000.0001) %MON seaice_heff_del2             =   1.4399207162448E-03
(PID.TID 0000.0001) %MON seaice_hsnow_max             =   3.2861960043727E+00
(PID.TID 0000.0001) %MON seaice_hsnow_min             =   0.0000000000000E+00
(PID.TID 0000.0001) %MON seaice_hsnow_mean            =   1.2709224213621E-02
(PID.TID 0000.0001) %MON seaice_hsnow_sd              =   6.8863357178782E-02
(PID.TID 0000.0001) %MON seaice_hsnow_del2            =   4.0035240961036E-04
(PID.TID 0000.0001) // =======================================================
(PID.TID 0000.0001) // End MONITOR SEAICE statistics
(PID.TID 0000.0001) // =======================================================
(PID.TID 0000.0001) // =======================================================
(PID.TID 0000.0001) // Begin MONITOR dynamic field statistics
(PID.TID 0000.0001) // =======================================================
(PID.TID 0000.0001) %MON time_tsnumber                =                174728
(PID.TID 0000.0001) %MON time_secondsf                =   7.8627600000000E+07
(PID.TID 0000.0001) %MON dynstat_eta_max              =   2.3038525591664E+00
(PID.TID 0000.0001) %MON dynstat_eta_min              =  -1.1662650484469E+01
(PID.TID 0000.0001) %MON dynstat_eta_mean             =   6.5572709065697E-02
(PID.TID 0000.0001) %MON dynstat_eta_sd               =   8.5117656121240E-01
(PID.TID 0000.0001) %MON dynstat_eta_del2             =   2.0140840568526E-03
(PID.TID 0000.0001) %MON dynstat_uvel_max             =   1.7638963444262E+00
(PID.TID 0000.0001) %MON dynstat_uvel_min             =  -2.7698502866276E+00
(PID.TID 0000.0001) %MON dynstat_uvel_mean            =   6.5584135670509E-04
(PID.TID 0000.0001) %MON dynstat_uvel_sd              =   2.9993818518725E-02
(PID.TID 0000.0001) %MON dynstat_uvel_del2            =   3.2508974476436E-05
(PID.TID 0000.0001) %MON dynstat_vvel_max             =   2.1195619183356E+00
(PID.TID 0000.0001) %MON dynstat_vvel_min             =  -2.1577344797386E+00
(PID.TID 0000.0001) %MON dynstat_vvel_mean            =   1.0601789920233E-03
(PID.TID 0000.0001) %MON dynstat_vvel_sd              =   3.0344253600877E-02
(PID.TID 0000.0001) %MON dynstat_vvel_del2            =   3.0996038553880E-05
(PID.TID 0000.0001) %MON dynstat_wvel_max             =   7.8904495234634E-03
(PID.TID 0000.0001) %MON dynstat_wvel_min             =  -1.0121926694273E-02
(PID.TID 0000.0001) %MON dynstat_wvel_mean            =  -9.1556625168769E-08
(PID.TID 0000.0001) %MON dynstat_wvel_sd              =   9.4171556712721E-05
(PID.TID 0000.0001) %MON dynstat_wvel_del2            =   2.1763652216235E-07
(PID.TID 0000.0001) %MON dynstat_theta_max            =   3.2523167943042E+01
(PID.TID 0000.0001) %MON dynstat_theta_min            =  -2.0279571540250E+00
(PID.TID 0000.0001) %MON dynstat_theta_mean           =   3.5921376259431E+00
(PID.TID 0000.0001) %MON dynstat_theta_sd             =   4.4421545513961E+00
(PID.TID 0000.0001) %MON dynstat_theta_del2           =   1.2113034441928E-04
(PID.TID 0000.0001) %MON dynstat_salt_max             =   4.0655992398140E+01
(PID.TID 0000.0001) %MON dynstat_salt_min             =   1.6142220165249E+01
(PID.TID 0000.0001) %MON dynstat_salt_mean            =   3.4724829827281E+01
(PID.TID 0000.0001) %MON dynstat_salt_sd              =   3.7964495564534E-01
(PID.TID 0000.0001) %MON dynstat_salt_del2            =   7.0379677677235E-05
(PID.TID 0000.0001) %MON dynstat_sst_max              =   3.2523167943042E+01
(PID.TID 0000.0001) %MON dynstat_sst_min              =  -2.0279571540250E+00
(PID.TID 0000.0001) %MON dynstat_sst_mean             =   1.8179115298893E+01
(PID.TID 0000.0001) %MON dynstat_sst_sd               =   1.0163576081313E+01
(PID.TID 0000.0001) %MON dynstat_sst_del2             =   1.1207150113181E-03
(PID.TID 0000.0001) %MON dynstat_sss_max              =   3.9473673228615E+01
(PID.TID 0000.0001) %MON dynstat_sss_min              =   1.6142220165249E+01
(PID.TID 0000.0001) %MON dynstat_sss_mean             =   3.4647682679108E+01
(PID.TID 0000.0001) %MON dynstat_sss_sd               =   1.2911460188839E+00
(PID.TID 0000.0001) %MON dynstat_sss_del2             =   1.4533262573069E-03
(PID.TID 0000.0001) %MON forcing_qnet_max             =   1.8101226806641E+03
(PID.TID 0000.0001) %MON forcing_qnet_min             =  -1.6713337934980E+03
(PID.TID 0000.0001) %MON forcing_qnet_mean            =  -1.7718613620379E+01
(PID.TID 0000.0001) %MON forcing_qnet_sd              =   2.2240029369930E+02
(PID.TID 0000.0001) %MON forcing_qnet_del2            =   5.3853495021304E-01
(PID.TID 0000.0001) %MON forcing_qsw_max              =   0.0000000000000E+00
(PID.TID 0000.0001) %MON forcing_qsw_min              =  -1.1209481893708E+02
(PID.TID 0000.0001) %MON forcing_qsw_mean             =  -2.0507651408566E+01
(PID.TID 0000.0001) %MON forcing_qsw_sd               =   3.0284705915651E+01
(PID.TID 0000.0001) %MON forcing_qsw_del2             =   2.1644672245706E-02
(PID.TID 0000.0001) %MON forcing_empmr_max            =   2.0048283040524E-02
(PID.TID 0000.0001) %MON forcing_empmr_min            =  -7.1054428815842E-02
(PID.TID 0000.0001) %MON forcing_empmr_mean           =   5.3539683953217E-06
(PID.TID 0000.0001) %MON forcing_empmr_sd             =   4.2543407007511E-04
(PID.TID 0000.0001) %MON forcing_empmr_del2           =   4.7924994054566E-06
(PID.TID 0000.0001) %MON forcing_fu_max               =   1.2977960100323E+00
(PID.TID 0000.0001) %MON forcing_fu_min               =  -7.0752230286598E-01
(PID.TID 0000.0001) %MON forcing_fu_mean              =   9.8770577810181E-03
(PID.TID 0000.0001) %MON forcing_fu_sd                =   1.2033729989607E-01
(PID.TID 0000.0001) %MON forcing_fu_del2              =   1.5841677569656E-04
(PID.TID 0000.0001) %MON forcing_fv_max               =   8.8601760976773E-01
(PID.TID 0000.0001) %MON forcing_fv_min               =  -1.5168621169877E+00
(PID.TID 0000.0001) %MON forcing_fv_mean              =  -1.8985709258653E-03
(PID.TID 0000.0001) %MON forcing_fv_sd                =   1.0645549058188E-01
(PID.TID 0000.0001) %MON forcing_fv_del2              =   1.5812192861525E-04
(PID.TID 0000.0001) %MON trAdv_CFL_u_max              =   2.8570061006145E-02
(PID.TID 0000.0001) %MON trAdv_CFL_v_max              =   2.1576347433576E-02
(PID.TID 0000.0001) %MON trAdv_CFL_w_max              =   1.2040631068205E-01
(PID.TID 0000.0001) %MON advcfl_uvel_max              =   2.8952225370355E-02
(PID.TID 0000.0001) %MON advcfl_vvel_max              =   2.1506820217585E-02
(PID.TID 0000.0001) %MON advcfl_wvel_max              =   1.1391450784110E-01
(PID.TID 0000.0001) %MON advcfl_W_hf_max              =   1.2040631068205E-01
(PID.TID 0000.0001) %MON pe_b_mean                    =   1.8513658471983E-03
(PID.TID 0000.0001) %MON ke_max                       =   2.6813871260862E+00
(PID.TID 0000.0001) %MON ke_mean                      =   8.7853242025234E-04
(PID.TID 0000.0001) %MON ke_vol                       =   1.3350064351420E+18
(PID.TID 0000.0001) %MON vort_r_min                   =  -9.8895743955926E-05
(PID.TID 0000.0001) %MON vort_r_max                   =   1.0479790694941E-04
(PID.TID 0000.0001) %MON vort_a_mean                  =  -1.9725070354713E-05
(PID.TID 0000.0001) %MON vort_a_sd                    =   7.4539010686198E-05
(PID.TID 0000.0001) %MON vort_p_mean                  =  -2.1669074671740E-05
(PID.TID 0000.0001) %MON vort_p_sd                    =   9.3606635151159E-05
(PID.TID 0000.0001) %MON surfExpan_theta_mean         =   7.0719608198488E-06
(PID.TID 0000.0001) %MON surfExpan_salt_mean          =  -8.9082577532725E-06
(PID.TID 0000.0001) // =======================================================
(PID.TID 0000.0001) // End MONITOR dynamic field statistics
(PID.TID 0000.0001) // =======================================================
(PID.TID 0000.0001) // =======================================================
(PID.TID 0000.0001) // Begin MONITOR SEAICE statistics
(PID.TID 0000.0001) // =======================================================
(PID.TID 0000.0001) %MON seaice_tsnumber              =                174728
(PID.TID 0000.0001) %MON seaice_time_sec              =   7.8627600000000E+07
(PID.TID 0000.0001) %MON seaice_uice_max              =   1.4269613430334E+00
(PID.TID 0000.0001) %MON seaice_uice_min              =  -1.6246224204774E+00
(PID.TID 0000.0001) %MON seaice_uice_mean             =  -6.9134573337339E-05
(PID.TID 0000.0001) %MON seaice_uice_sd               =   1.5434976345666E-01
(PID.TID 0000.0001) %MON seaice_uice_del2             =   3.3537959913749E-04
(PID.TID 0000.0001) %MON seaice_vice_max              =   2.1470639046231E+00
(PID.TID 0000.0001) %MON seaice_vice_min              =  -1.5298250435587E+00
(PID.TID 0000.0001) %MON seaice_vice_mean             =  -2.4346312971830E-02
(PID.TID 0000.0001) %MON seaice_vice_sd               =   1.6324406741583E-01
(PID.TID 0000.0001) %MON seaice_vice_del2             =   3.1864465462446E-04
(PID.TID 0000.0001) %MON seaice_area_max              =   1.0038466501015E+00
(PID.TID 0000.0001) %MON seaice_area_min              =   0.0000000000000E+00
(PID.TID 0000.0001) %MON seaice_area_mean             =   5.7324307175470E-02
(PID.TID 0000.0001) %MON seaice_area_sd               =   2.2145439345221E-01
(PID.TID 0000.0001) %MON seaice_area_del2             =   3.0529348701397E-04
(PID.TID 0000.0001) %MON seaice_heff_max              =   9.9490318979108E+00
(PID.TID 0000.0001) %MON seaice_heff_min              =   0.0000000000000E+00
(PID.TID 0000.0001) %MON seaice_heff_mean             =   1.4993625956668E-01
(PID.TID 0000.0001) %MON seaice_heff_sd               =   7.2119655398471E-01
(PID.TID 0000.0001) %MON seaice_heff_del2             =   1.4389134552720E-03
(PID.TID 0000.0001) %MON seaice_hsnow_max             =   3.2861950857755E+00
(PID.TID 0000.0001) %MON seaice_hsnow_min             =   0.0000000000000E+00
(PID.TID 0000.0001) %MON seaice_hsnow_mean            =   1.2708258235460E-02
(PID.TID 0000.0001) %MON seaice_hsnow_sd              =   6.8853652245821E-02
(PID.TID 0000.0001) %MON seaice_hsnow_del2            =   4.0001434904853E-04
(PID.TID 0000.0001) // =======================================================
(PID.TID 0000.0001) // End MONITOR SEAICE statistics
(PID.TID 0000.0001) // =======================================================
(PID.TID 0000.0001) // =======================================================
(PID.TID 0000.0001) // Begin MONITOR dynamic field statistics
(PID.TID 0000.0001) // =======================================================
(PID.TID 0000.0001) %MON time_tsnumber                =                174729
(PID.TID 0000.0001) %MON time_secondsf                =   7.8628050000000E+07
(PID.TID 0000.0001) %MON dynstat_eta_max              =   2.3454281406852E+00
(PID.TID 0000.0001) %MON dynstat_eta_min              =  -1.1690156067494E+01
(PID.TID 0000.0001) %MON dynstat_eta_mean             =   6.5408730437893E-02
(PID.TID 0000.0001) %MON dynstat_eta_sd               =   8.5120888713671E-01
(PID.TID 0000.0001) %MON dynstat_eta_del2             =   2.0140594878470E-03
(PID.TID 0000.0001) %MON dynstat_uvel_max             =   1.7811523359598E+00
(PID.TID 0000.0001) %MON dynstat_uvel_min             =  -2.7795352603096E+00
(PID.TID 0000.0001) %MON dynstat_uvel_mean            =   6.4196300191762E-04
(PID.TID 0000.0001) %MON dynstat_uvel_sd              =   2.9954892872580E-02
(PID.TID 0000.0001) %MON dynstat_uvel_del2            =   3.2597798989830E-05
(PID.TID 0000.0001) %MON dynstat_vvel_max             =   2.1421813873942E+00
(PID.TID 0000.0001) %MON dynstat_vvel_min             =  -2.1553908212511E+00
(PID.TID 0000.0001) %MON dynstat_vvel_mean            =   1.1050244912685E-03
(PID.TID 0000.0001) %MON dynstat_vvel_sd              =   3.0340348125648E-02
(PID.TID 0000.0001) %MON dynstat_vvel_del2            =   3.1056593817739E-05
(PID.TID 0000.0001) %MON dynstat_wvel_max             =   7.8653390881942E-03
(PID.TID 0000.0001) %MON dynstat_wvel_min             =  -1.0090464223355E-02
(PID.TID 0000.0001) %MON dynstat_wvel_mean            =  -8.7496482004494E-08
(PID.TID 0000.0001) %MON dynstat_wvel_sd              =   9.4351976700635E-05
(PID.TID 0000.0001) %MON dynstat_wvel_del2            =   2.1827702173551E-07
(PID.TID 0000.0001) %MON dynstat_theta_max            =   3.2523633534332E+01
(PID.TID 0000.0001) %MON dynstat_theta_min            =  -2.0282714340099E+00
(PID.TID 0000.0001) %MON dynstat_theta_mean           =   3.5921371276228E+00
(PID.TID 0000.0001) %MON dynstat_theta_sd             =   4.4421554889068E+00
(PID.TID 0000.0001) %MON dynstat_theta_del2           =   1.2119469083967E-04
(PID.TID 0000.0001) %MON dynstat_salt_max             =   4.0655992334610E+01
(PID.TID 0000.0001) %MON dynstat_salt_min             =   1.6140246501305E+01
(PID.TID 0000.0001) %MON dynstat_salt_mean            =   3.4724829149581E+01
(PID.TID 0000.0001) %MON dynstat_salt_sd              =   3.7964649184685E-01
(PID.TID 0000.0001) %MON dynstat_salt_del2            =   7.0305389263182E-05
(PID.TID 0000.0001) %MON dynstat_sst_max              =   3.2523633534332E+01
(PID.TID 0000.0001) %MON dynstat_sst_min              =  -2.0282714340099E+00
(PID.TID 0000.0001) %MON dynstat_sst_mean             =   1.8179288167994E+01
(PID.TID 0000.0001) %MON dynstat_sst_sd               =   1.0163914121562E+01
(PID.TID 0000.0001) %MON dynstat_sst_del2             =   1.1202286878070E-03
(PID.TID 0000.0001) %MON dynstat_sss_max              =   3.9474048544974E+01
(PID.TID 0000.0001) %MON dynstat_sss_min              =   1.6140246501305E+01
(PID.TID 0000.0001) %MON dynstat_sss_mean             =   3.4647614386723E+01
(PID.TID 0000.0001) %MON dynstat_sss_sd               =   1.2912710314020E+00
(PID.TID 0000.0001) %MON dynstat_sss_del2             =   1.4538100388324E-03
(PID.TID 0000.0001) %MON forcing_qnet_max             =   1.6315313550292E+03
(PID.TID 0000.0001) %MON forcing_qnet_min             =  -1.8980224341331E+03
(PID.TID 0000.0001) %MON forcing_qnet_mean            =  -1.7888828446884E+01
(PID.TID 0000.0001) %MON forcing_qnet_sd              =   2.2186815520726E+02
(PID.TID 0000.0001) %MON forcing_qnet_del2            =   5.1986946979653E-01
(PID.TID 0000.0001) %MON forcing_qsw_max              =   0.0000000000000E+00
(PID.TID 0000.0001) %MON forcing_qsw_min              =  -1.1221980920234E+02
(PID.TID 0000.0001) %MON forcing_qsw_mean             =  -2.0578390216702E+01
(PID.TID 0000.0001) %MON forcing_qsw_sd               =   3.0356855682021E+01
(PID.TID 0000.0001) %MON forcing_qsw_del2             =   2.1587996737943E-02
(PID.TID 0000.0001) %MON forcing_empmr_max            =   2.0063474774361E-02
(PID.TID 0000.0001) %MON forcing_empmr_min            =  -7.6679646968842E-02
(PID.TID 0000.0001) %MON forcing_empmr_mean           =   5.2694942421726E-06
(PID.TID 0000.0001) %MON forcing_empmr_sd             =   4.3336350359902E-04
(PID.TID 0000.0001) %MON forcing_empmr_del2           =   4.8690527468743E-06
(PID.TID 0000.0001) %MON forcing_fu_max               =   1.3108479763501E+00
(PID.TID 0000.0001) %MON forcing_fu_min               =  -7.0100623369217E-01
(PID.TID 0000.0001) %MON forcing_fu_mean              =   9.8696678807954E-03
(PID.TID 0000.0001) %MON forcing_fu_sd                =   1.2038980243647E-01
(PID.TID 0000.0001) %MON forcing_fu_del2              =   1.5830405786582E-04
(PID.TID 0000.0001) %MON forcing_fv_max               =   8.9264976633672E-01
(PID.TID 0000.0001) %MON forcing_fv_min               =  -1.5222247089269E+00
(PID.TID 0000.0001) %MON forcing_fv_mean              =  -1.8699641615888E-03
(PID.TID 0000.0001) %MON forcing_fv_sd                =   1.0645179593999E-01
(PID.TID 0000.0001) %MON forcing_fv_del2              =   1.5802492053407E-04
(PID.TID 0000.0001) %MON trAdv_CFL_u_max              =   2.8669958206464E-02
(PID.TID 0000.0001) %MON trAdv_CFL_v_max              =   2.1806605167001E-02
(PID.TID 0000.0001) %MON trAdv_CFL_w_max              =   1.1966945269363E-01
(PID.TID 0000.0001) %MON advcfl_uvel_max              =   2.9053458834886E-02
(PID.TID 0000.0001) %MON advcfl_vvel_max              =   2.1736335972823E-02
(PID.TID 0000.0001) %MON advcfl_wvel_max              =   1.1317181979776E-01
(PID.TID 0000.0001) %MON advcfl_W_hf_max              =   1.1966945269363E-01
(PID.TID 0000.0001) %MON pe_b_mean                    =   1.8452781520993E-03
(PID.TID 0000.0001) %MON ke_max                       =   2.7032341608239E+00
(PID.TID 0000.0001) %MON ke_mean                      =   8.7733121531792E-04
(PID.TID 0000.0001) %MON ke_vol                       =   1.3350064351420E+18
(PID.TID 0000.0001) %MON vort_r_min                   =  -9.9220809187614E-05
(PID.TID 0000.0001) %MON vort_r_max                   =   1.0524466391884E-04
(PID.TID 0000.0001) %MON vort_a_mean                  =  -1.9725070715840E-05
(PID.TID 0000.0001) %MON vort_a_sd                    =   7.4539012860634E-05
(PID.TID 0000.0001) %MON vort_p_mean                  =  -2.1669075068458E-05
(PID.TID 0000.0001) %MON vort_p_sd                    =   9.3606631106016E-05
(PID.TID 0000.0001) %MON surfExpan_theta_mean         =   6.5871918883177E-06
(PID.TID 0000.0001) %MON surfExpan_salt_mean          =  -8.8173457570125E-06
(PID.TID 0000.0001) // =======================================================
(PID.TID 0000.0001) // End MONITOR dynamic field statistics
(PID.TID 0000.0001) // =======================================================
(PID.TID 0000.0001) // =======================================================
(PID.TID 0000.0001) // Begin MONITOR SEAICE statistics
(PID.TID 0000.0001) // =======================================================
(PID.TID 0000.0001) %MON seaice_tsnumber              =                174729
(PID.TID 0000.0001) %MON seaice_time_sec              =   7.8628050000000E+07
(PID.TID 0000.0001) %MON seaice_uice_max              =   1.4299029916675E+00
(PID.TID 0000.0001) %MON seaice_uice_min              =  -1.6591508007157E+00
(PID.TID 0000.0001) %MON seaice_uice_mean             =  -1.1425099592596E-04
(PID.TID 0000.0001) %MON seaice_uice_sd               =   1.5420890130698E-01
(PID.TID 0000.0001) %MON seaice_uice_del2             =   3.3554548347909E-04
(PID.TID 0000.0001) %MON seaice_vice_max              =   2.0024039155954E+00
(PID.TID 0000.0001) %MON seaice_vice_min              =  -1.5271027904253E+00
(PID.TID 0000.0001) %MON seaice_vice_mean             =  -2.4258716673671E-02
(PID.TID 0000.0001) %MON seaice_vice_sd               =   1.6323863678204E-01
(PID.TID 0000.0001) %MON seaice_vice_del2             =   3.1834621264068E-04
(PID.TID 0000.0001) %MON seaice_area_max              =   1.0038814748195E+00
(PID.TID 0000.0001) %MON seaice_area_min              =   0.0000000000000E+00
(PID.TID 0000.0001) %MON seaice_area_mean             =   5.7326173656335E-02
(PID.TID 0000.0001) %MON seaice_area_sd               =   2.2144880222835E-01
(PID.TID 0000.0001) %MON seaice_area_del2             =   3.0501505955313E-04
(PID.TID 0000.0001) %MON seaice_heff_max              =   9.9490329624935E+00
(PID.TID 0000.0001) %MON seaice_heff_min              =   0.0000000000000E+00
(PID.TID 0000.0001) %MON seaice_heff_mean             =   1.4993240118481E-01
(PID.TID 0000.0001) %MON seaice_heff_sd               =   7.2118378809869E-01
(PID.TID 0000.0001) %MON seaice_heff_del2             =   1.4379273025326E-03
(PID.TID 0000.0001) %MON seaice_hsnow_max             =   3.2861955987320E+00
(PID.TID 0000.0001) %MON seaice_hsnow_min             =   0.0000000000000E+00
(PID.TID 0000.0001) %MON seaice_hsnow_mean            =   1.2707290564412E-02
(PID.TID 0000.0001) %MON seaice_hsnow_sd              =   6.8844058158149E-02
(PID.TID 0000.0001) %MON seaice_hsnow_del2            =   3.9968282070195E-04
(PID.TID 0000.0001) // =======================================================
(PID.TID 0000.0001) // End MONITOR SEAICE statistics
(PID.TID 0000.0001) // =======================================================
(PID.TID 0000.0001) // =======================================================
(PID.TID 0000.0001) // Begin MONITOR dynamic field statistics
(PID.TID 0000.0001) // =======================================================
(PID.TID 0000.0001) %MON time_tsnumber                =                174730
(PID.TID 0000.0001) %MON time_secondsf                =   7.8628500000000E+07
(PID.TID 0000.0001) %MON dynstat_eta_max              =   2.3642872761591E+00
(PID.TID 0000.0001) %MON dynstat_eta_min              =  -1.1708276665204E+01
(PID.TID 0000.0001) %MON dynstat_eta_mean             =   6.5245740142437E-02
(PID.TID 0000.0001) %MON dynstat_eta_sd               =   8.5120967827423E-01
(PID.TID 0000.0001) %MON dynstat_eta_del2             =   2.0140752456812E-03
(PID.TID 0000.0001) %MON dynstat_uvel_max             =   1.7966138731369E+00
(PID.TID 0000.0001) %MON dynstat_uvel_min             =  -2.7886441593239E+00
(PID.TID 0000.0001) %MON dynstat_uvel_mean            =   6.3203570618894E-04
(PID.TID 0000.0001) %MON dynstat_uvel_sd              =   2.9915375509045E-02
(PID.TID 0000.0001) %MON dynstat_uvel_del2            =   3.2685476907872E-05
(PID.TID 0000.0001) %MON dynstat_vvel_max             =   2.1627556494969E+00
(PID.TID 0000.0001) %MON dynstat_vvel_min             =  -2.1526236989391E+00
(PID.TID 0000.0001) %MON dynstat_vvel_mean            =   1.1509841701650E-03
(PID.TID 0000.0001) %MON dynstat_vvel_sd              =   3.0338278824049E-02
(PID.TID 0000.0001) %MON dynstat_vvel_del2            =   3.1116152816077E-05
(PID.TID 0000.0001) %MON dynstat_wvel_max             =   7.8426499392834E-03
(PID.TID 0000.0001) %MON dynstat_wvel_min             =  -1.0060543737214E-02
(PID.TID 0000.0001) %MON dynstat_wvel_mean            =  -8.2259053401683E-08
(PID.TID 0000.0001) %MON dynstat_wvel_sd              =   9.4530991482834E-05
(PID.TID 0000.0001) %MON dynstat_wvel_del2            =   2.1891412221758E-07
(PID.TID 0000.0001) %MON dynstat_theta_max            =   3.2524042325591E+01
(PID.TID 0000.0001) %MON dynstat_theta_min            =  -2.0285834288609E+00
(PID.TID 0000.0001) %MON dynstat_theta_mean           =   3.5921366923842E+00
(PID.TID 0000.0001) %MON dynstat_theta_sd             =   4.4421564462497E+00
(PID.TID 0000.0001) %MON dynstat_theta_del2           =   1.2125880470947E-04
(PID.TID 0000.0001) %MON dynstat_salt_max             =   4.0655992274496E+01
(PID.TID 0000.0001) %MON dynstat_salt_min             =   1.6138290714454E+01
(PID.TID 0000.0001) %MON dynstat_salt_mean            =   3.4724828463668E+01
(PID.TID 0000.0001) %MON dynstat_salt_sd              =   3.7964797788766E-01
(PID.TID 0000.0001) %MON dynstat_salt_del2            =   7.0231675091452E-05
(PID.TID 0000.0001) %MON dynstat_sst_max              =   3.2524042325591E+01
(PID.TID 0000.0001) %MON dynstat_sst_min              =  -2.0285834288609E+00
(PID.TID 0000.0001) %MON dynstat_sst_mean             =   1.8179457851645E+01
(PID.TID 0000.0001) %MON dynstat_sst_sd               =   1.0164249549157E+01
(PID.TID 0000.0001) %MON dynstat_sst_del2             =   1.1196899679453E-03
(PID.TID 0000.0001) %MON dynstat_sss_max              =   3.9475111334442E+01
(PID.TID 0000.0001) %MON dynstat_sss_min              =   1.6138290714454E+01
(PID.TID 0000.0001) %MON dynstat_sss_mean             =   3.4647546363203E+01
(PID.TID 0000.0001) %MON dynstat_sss_sd               =   1.2913944945000E+00
(PID.TID 0000.0001) %MON dynstat_sss_del2             =   1.4542969833814E-03
(PID.TID 0000.0001) %MON forcing_qnet_max             =   1.6796499738595E+03
(PID.TID 0000.0001) %MON forcing_qnet_min             =  -2.3332588443037E+03
(PID.TID 0000.0001) %MON forcing_qnet_mean            =  -1.7982678864114E+01
(PID.TID 0000.0001) %MON forcing_qnet_sd              =   2.2191552503602E+02
(PID.TID 0000.0001) %MON forcing_qnet_del2            =   5.2671862756410E-01
(PID.TID 0000.0001) %MON forcing_qsw_max              =   0.0000000000000E+00
(PID.TID 0000.0001) %MON forcing_qsw_min              =  -1.1222732147946E+02
(PID.TID 0000.0001) %MON forcing_qsw_mean             =  -2.0637046128519E+01
(PID.TID 0000.0001) %MON forcing_qsw_sd               =   3.0422469863012E+01
(PID.TID 0000.0001) %MON forcing_qsw_del2             =   2.1523167592423E-02
(PID.TID 0000.0001) %MON forcing_empmr_max            =   2.0062932744622E-02
(PID.TID 0000.0001) %MON forcing_empmr_min            =  -8.2974135875702E-02
(PID.TID 0000.0001) %MON forcing_empmr_mean           =   5.0928867111259E-06
(PID.TID 0000.0001) %MON forcing_empmr_sd             =   4.4004212269213E-04
(PID.TID 0000.0001) %MON forcing_empmr_del2           =   4.9359498817587E-06
(PID.TID 0000.0001) %MON forcing_fu_max               =   1.3201223146963E+00
(PID.TID 0000.0001) %MON forcing_fu_min               =  -6.9689100980759E-01
(PID.TID 0000.0001) %MON forcing_fu_mean              =   9.8614186022497E-03
(PID.TID 0000.0001) %MON forcing_fu_sd                =   1.2045259336717E-01
(PID.TID 0000.0001) %MON forcing_fu_del2              =   1.5831135304871E-04
(PID.TID 0000.0001) %MON forcing_fv_max               =   8.9788259283897E-01
(PID.TID 0000.0001) %MON forcing_fv_min               =  -1.5231758299634E+00
(PID.TID 0000.0001) %MON forcing_fv_mean              =  -1.8370716857463E-03
(PID.TID 0000.0001) %MON forcing_fv_sd                =   1.0645765058479E-01
(PID.TID 0000.0001) %MON forcing_fv_del2              =   1.5785021781141E-04
(PID.TID 0000.0001) %MON trAdv_CFL_u_max              =   2.8763913393066E-02
(PID.TID 0000.0001) %MON trAdv_CFL_v_max              =   2.2016043458696E-02
(PID.TID 0000.0001) %MON trAdv_CFL_w_max              =   1.1889867913708E-01
(PID.TID 0000.0001) %MON advcfl_uvel_max              =   2.9148670802988E-02
(PID.TID 0000.0001) %MON advcfl_vvel_max              =   2.1945099374507E-02
(PID.TID 0000.0001) %MON advcfl_wvel_max              =   1.1239637434008E-01
(PID.TID 0000.0001) %MON advcfl_W_hf_max              =   1.1889867913708E-01
(PID.TID 0000.0001) %MON pe_b_mean                    =   1.8391432075946E-03
(PID.TID 0000.0001) %MON ke_max                       =   2.7239754020157E+00
(PID.TID 0000.0001) %MON ke_mean                      =   8.7617390975029E-04
(PID.TID 0000.0001) %MON ke_vol                       =   1.3350064351420E+18
(PID.TID 0000.0001) %MON vort_r_min                   =  -9.9527067827970E-05
(PID.TID 0000.0001) %MON vort_r_max                   =   1.0566767877183E-04
(PID.TID 0000.0001) %MON vort_a_mean                  =  -1.9725071060828E-05
(PID.TID 0000.0001) %MON vort_a_sd                    =   7.4539015885203E-05
(PID.TID 0000.0001) %MON vort_p_mean                  =  -2.1669075447446E-05
(PID.TID 0000.0001) %MON vort_p_sd                    =   9.3606630819938E-05
(PID.TID 0000.0001) %MON surfExpan_theta_mean         =   6.1048623265237E-06
(PID.TID 0000.0001) %MON surfExpan_salt_mean          =  -8.6641451973177E-06
(PID.TID 0000.0001) // =======================================================
(PID.TID 0000.0001) // End MONITOR dynamic field statistics
(PID.TID 0000.0001) // =======================================================
(PID.TID 0000.0001) // =======================================================
(PID.TID 0000.0001) // Begin MONITOR SEAICE statistics
(PID.TID 0000.0001) // =======================================================
(PID.TID 0000.0001) %MON seaice_tsnumber              =                174730
(PID.TID 0000.0001) %MON seaice_time_sec              =   7.8628500000000E+07
(PID.TID 0000.0001) %MON seaice_uice_max              =   1.4327150532731E+00
(PID.TID 0000.0001) %MON seaice_uice_min              =  -1.6942678801667E+00
(PID.TID 0000.0001) %MON seaice_uice_mean             =  -1.5893560016916E-04
(PID.TID 0000.0001) %MON seaice_uice_sd               =   1.5407650128391E-01
(PID.TID 0000.0001) %MON seaice_uice_del2             =   3.3572592810159E-04
(PID.TID 0000.0001) %MON seaice_vice_max              =   1.8434012572250E+00
(PID.TID 0000.0001) %MON seaice_vice_min              =  -1.5241528214983E+00
(PID.TID 0000.0001) %MON seaice_vice_mean             =  -2.4167818325314E-02
(PID.TID 0000.0001) %MON seaice_vice_sd               =   1.6322729737796E-01
(PID.TID 0000.0001) %MON seaice_vice_del2             =   3.1801687535708E-04
(PID.TID 0000.0001) %MON seaice_area_max              =   1.0039199789206E+00
(PID.TID 0000.0001) %MON seaice_area_min              =   0.0000000000000E+00
(PID.TID 0000.0001) %MON seaice_area_mean             =   5.7328038210111E-02
(PID.TID 0000.0001) %MON seaice_area_sd               =   2.2144319255488E-01
(PID.TID 0000.0001) %MON seaice_area_del2             =   3.0474152219746E-04
(PID.TID 0000.0001) %MON seaice_heff_max              =   9.9490301951966E+00
(PID.TID 0000.0001) %MON seaice_heff_min              =   0.0000000000000E+00
(PID.TID 0000.0001) %MON seaice_heff_mean             =   1.4992853627280E-01
(PID.TID 0000.0001) %MON seaice_heff_sd               =   7.2117104830668E-01
(PID.TID 0000.0001) %MON seaice_heff_del2             =   1.4369619548069E-03
(PID.TID 0000.0001) %MON seaice_hsnow_max             =   3.2861951517783E+00
(PID.TID 0000.0001) %MON seaice_hsnow_min             =   0.0000000000000E+00
(PID.TID 0000.0001) %MON seaice_hsnow_mean            =   1.2706324193468E-02
(PID.TID 0000.0001) %MON seaice_hsnow_sd              =   6.8834548466741E-02
(PID.TID 0000.0001) %MON seaice_hsnow_del2            =   3.9935782347278E-04
(PID.TID 0000.0001) // =======================================================
(PID.TID 0000.0001) // End MONITOR SEAICE statistics
(PID.TID 0000.0001) // =======================================================
(PID.TID 0000.0001) // =======================================================
(PID.TID 0000.0001) // Begin MONITOR dynamic field statistics
(PID.TID 0000.0001) // =======================================================
(PID.TID 0000.0001) %MON time_tsnumber                =                174731
(PID.TID 0000.0001) %MON time_secondsf                =   7.8628950000000E+07
(PID.TID 0000.0001) %MON dynstat_eta_max              =   2.3597519547180E+00
(PID.TID 0000.0001) %MON dynstat_eta_min              =  -1.1717129144341E+01
(PID.TID 0000.0001) %MON dynstat_eta_mean             =   6.5084896411938E-02
(PID.TID 0000.0001) %MON dynstat_eta_sd               =   8.5117935501960E-01
(PID.TID 0000.0001) %MON dynstat_eta_del2             =   2.0141263977748E-03
(PID.TID 0000.0001) %MON dynstat_uvel_max             =   1.8101347043350E+00
(PID.TID 0000.0001) %MON dynstat_uvel_min             =  -2.7971848733883E+00
(PID.TID 0000.0001) %MON dynstat_uvel_mean            =   6.2624624267985E-04
(PID.TID 0000.0001) %MON dynstat_uvel_sd              =   2.9875436983579E-02
(PID.TID 0000.0001) %MON dynstat_uvel_del2            =   3.2772451895363E-05
(PID.TID 0000.0001) %MON dynstat_vvel_max             =   2.1811436521360E+00
(PID.TID 0000.0001) %MON dynstat_vvel_min             =  -2.1494020817947E+00
(PID.TID 0000.0001) %MON dynstat_vvel_mean            =   1.1979690262449E-03
(PID.TID 0000.0001) %MON dynstat_vvel_sd              =   3.0337900154462E-02
(PID.TID 0000.0001) %MON dynstat_vvel_del2            =   3.1174776512490E-05
(PID.TID 0000.0001) %MON dynstat_wvel_max             =   7.8221102554245E-03
(PID.TID 0000.0001) %MON dynstat_wvel_min             =  -1.0032137159950E-02
(PID.TID 0000.0001) %MON dynstat_wvel_mean            =  -7.5350297701655E-08
(PID.TID 0000.0001) %MON dynstat_wvel_sd              =   9.4708148401164E-05
(PID.TID 0000.0001) %MON dynstat_wvel_del2            =   2.1954864308517E-07
(PID.TID 0000.0001) %MON dynstat_theta_max            =   3.2524279732473E+01
(PID.TID 0000.0001) %MON dynstat_theta_min            =  -2.0288931684534E+00
(PID.TID 0000.0001) %MON dynstat_theta_mean           =   3.5921363152379E+00
(PID.TID 0000.0001) %MON dynstat_theta_sd             =   4.4421574163742E+00
(PID.TID 0000.0001) %MON dynstat_theta_del2           =   1.2132257111309E-04
(PID.TID 0000.0001) %MON dynstat_salt_max             =   4.0655992218025E+01
(PID.TID 0000.0001) %MON dynstat_salt_min             =   1.6136365341921E+01
(PID.TID 0000.0001) %MON dynstat_salt_mean            =   3.4724827770079E+01
(PID.TID 0000.0001) %MON dynstat_salt_sd              =   3.7964942861431E-01
(PID.TID 0000.0001) %MON dynstat_salt_del2            =   7.0159238703304E-05
(PID.TID 0000.0001) %MON dynstat_sst_max              =   3.2524279732473E+01
(PID.TID 0000.0001) %MON dynstat_sst_min              =  -2.0288931684534E+00
(PID.TID 0000.0001) %MON dynstat_sst_mean             =   1.8179620703495E+01
(PID.TID 0000.0001) %MON dynstat_sst_sd               =   1.0164580699609E+01
(PID.TID 0000.0001) %MON dynstat_sst_del2             =   1.1191453369155E-03
(PID.TID 0000.0001) %MON dynstat_sss_max              =   3.9478442166410E+01
(PID.TID 0000.0001) %MON dynstat_sss_min              =   1.6136365341921E+01
(PID.TID 0000.0001) %MON dynstat_sss_mean             =   3.4647479131994E+01
(PID.TID 0000.0001) %MON dynstat_sss_sd               =   1.2915199641239E+00
(PID.TID 0000.0001) %MON dynstat_sss_del2             =   1.4548087854729E-03
(PID.TID 0000.0001) %MON forcing_qnet_max             =   1.7217354457602E+03
(PID.TID 0000.0001) %MON forcing_qnet_min             =  -3.0256237160210E+03
(PID.TID 0000.0001) %MON forcing_qnet_mean            =  -1.7991474811589E+01
(PID.TID 0000.0001) %MON forcing_qnet_sd              =   2.2182019081884E+02
(PID.TID 0000.0001) %MON forcing_qnet_del2            =   5.3252513125048E-01
(PID.TID 0000.0001) %MON forcing_qsw_max              =   0.0000000000000E+00
(PID.TID 0000.0001) %MON forcing_qsw_min              =  -1.1211740190254E+02
(PID.TID 0000.0001) %MON forcing_qsw_mean             =  -2.0683365119007E+01
(PID.TID 0000.0001) %MON forcing_qsw_sd               =   3.0481377143485E+01
(PID.TID 0000.0001) %MON forcing_qsw_del2             =   2.1450215432803E-02
(PID.TID 0000.0001) %MON forcing_empmr_max            =   2.0103352144361E-02
(PID.TID 0000.0001) %MON forcing_empmr_min            =  -8.7266758084297E-02
(PID.TID 0000.0001) %MON forcing_empmr_mean           =   5.0407090539269E-06
(PID.TID 0000.0001) %MON forcing_empmr_sd             =   4.4359164836406E-04
(PID.TID 0000.0001) %MON forcing_empmr_del2           =   4.9756688315866E-06
(PID.TID 0000.0001) %MON forcing_fu_max               =   1.3254236152711E+00
(PID.TID 0000.0001) %MON forcing_fu_min               =  -6.9989016652107E-01
(PID.TID 0000.0001) %MON forcing_fu_mean              =   9.8366847038012E-03
(PID.TID 0000.0001) %MON forcing_fu_sd                =   1.2047713306782E-01
(PID.TID 0000.0001) %MON forcing_fu_del2              =   1.5828974717789E-04
(PID.TID 0000.0001) %MON forcing_fv_max               =   9.0354688561994E-01
(PID.TID 0000.0001) %MON forcing_fv_min               =  -1.5214031345989E+00
(PID.TID 0000.0001) %MON forcing_fv_mean              =  -1.8056380016718E-03
(PID.TID 0000.0001) %MON forcing_fv_sd                =   1.0644906008537E-01
(PID.TID 0000.0001) %MON forcing_fv_del2              =   1.5764675137655E-04
(PID.TID 0000.0001) %MON trAdv_CFL_u_max              =   2.8852007945697E-02
(PID.TID 0000.0001) %MON trAdv_CFL_v_max              =   2.2203226446896E-02
(PID.TID 0000.0001) %MON trAdv_CFL_w_max              =   1.1810119832771E-01
(PID.TID 0000.0001) %MON advcfl_uvel_max              =   2.9237943742977E-02
(PID.TID 0000.0001) %MON advcfl_vvel_max              =   2.2131679187768E-02
(PID.TID 0000.0001) %MON advcfl_wvel_max              =   1.1159545411346E-01
(PID.TID 0000.0001) %MON advcfl_W_hf_max              =   1.1810119832771E-01
(PID.TID 0000.0001) %MON pe_b_mean                    =   1.8329965476506E-03
(PID.TID 0000.0001) %MON ke_max                       =   2.7436077545133E+00
(PID.TID 0000.0001) %MON ke_mean                      =   8.7506125928404E-04
(PID.TID 0000.0001) %MON ke_vol                       =   1.3350064351420E+18
(PID.TID 0000.0001) %MON vort_r_min                   =  -9.9814260343984E-05
(PID.TID 0000.0001) %MON vort_r_max                   =   1.0606713306011E-04
(PID.TID 0000.0001) %MON vort_a_mean                  =  -1.9725071385008E-05
(PID.TID 0000.0001) %MON vort_a_sd                    =   7.4539019739447E-05
(PID.TID 0000.0001) %MON vort_p_mean                  =  -2.1669075803575E-05
(PID.TID 0000.0001) %MON vort_p_sd                    =   9.3606634460171E-05
(PID.TID 0000.0001) %MON surfExpan_theta_mean         =   5.6519438774356E-06
(PID.TID 0000.0001) %MON surfExpan_salt_mean          =  -8.4225687358059E-06
(PID.TID 0000.0001) // =======================================================
(PID.TID 0000.0001) // End MONITOR dynamic field statistics
(PID.TID 0000.0001) // =======================================================
(PID.TID 0000.0001) // =======================================================
(PID.TID 0000.0001) // Begin MONITOR SEAICE statistics
(PID.TID 0000.0001) // =======================================================
(PID.TID 0000.0001) %MON seaice_tsnumber              =                174731
(PID.TID 0000.0001) %MON seaice_time_sec              =   7.8628950000000E+07
(PID.TID 0000.0001) %MON seaice_uice_max              =   1.4351869448716E+00
(PID.TID 0000.0001) %MON seaice_uice_min              =  -1.7298760710579E+00
(PID.TID 0000.0001) %MON seaice_uice_mean             =  -2.0448037575638E-04
(PID.TID 0000.0001) %MON seaice_uice_sd               =   1.5394831441360E-01
(PID.TID 0000.0001) %MON seaice_uice_del2             =   3.3595478977960E-04
(PID.TID 0000.0001) %MON seaice_vice_max              =   1.6765342839211E+00
(PID.TID 0000.0001) %MON seaice_vice_min              =  -1.5209113344445E+00
(PID.TID 0000.0001) %MON seaice_vice_mean             =  -2.4073845890510E-02
(PID.TID 0000.0001) %MON seaice_vice_sd               =   1.6321671449155E-01
(PID.TID 0000.0001) %MON seaice_vice_del2             =   3.1777469371624E-04
(PID.TID 0000.0001) %MON seaice_area_max              =   1.0039630619839E+00
(PID.TID 0000.0001) %MON seaice_area_min              =   0.0000000000000E+00
(PID.TID 0000.0001) %MON seaice_area_mean             =   5.7329880279484E-02
(PID.TID 0000.0001) %MON seaice_area_sd               =   2.2143750578125E-01
(PID.TID 0000.0001) %MON seaice_area_del2             =   3.0447653053631E-04
(PID.TID 0000.0001) %MON seaice_heff_max              =   9.9490274213715E+00
(PID.TID 0000.0001) %MON seaice_heff_min              =   0.0000000000000E+00
(PID.TID 0000.0001) %MON seaice_heff_mean             =   1.4992467512027E-01
(PID.TID 0000.0001) %MON seaice_heff_sd               =   7.2115835364337E-01
(PID.TID 0000.0001) %MON seaice_heff_del2             =   1.4360161330628E-03
(PID.TID 0000.0001) %MON seaice_hsnow_max             =   3.2861939867099E+00
(PID.TID 0000.0001) %MON seaice_hsnow_min             =   0.0000000000000E+00
(PID.TID 0000.0001) %MON seaice_hsnow_mean            =   1.2705370043691E-02
(PID.TID 0000.0001) %MON seaice_hsnow_sd              =   6.8825212473010E-02
(PID.TID 0000.0001) %MON seaice_hsnow_del2            =   3.9903835534376E-04
(PID.TID 0000.0001) // =======================================================
(PID.TID 0000.0001) // End MONITOR SEAICE statistics
(PID.TID 0000.0001) // =======================================================
(PID.TID 0000.0001) // =======================================================
(PID.TID 0000.0001) // Begin MONITOR dynamic field statistics
(PID.TID 0000.0001) // =======================================================
(PID.TID 0000.0001) %MON time_tsnumber                =                174732
(PID.TID 0000.0001) %MON time_secondsf                =   7.8629400000000E+07
(PID.TID 0000.0001) %MON dynstat_eta_max              =   2.3315507788836E+00
(PID.TID 0000.0001) %MON dynstat_eta_min              =  -1.1717032442402E+01
(PID.TID 0000.0001) %MON dynstat_eta_mean             =   6.4927753958340E-02
(PID.TID 0000.0001) %MON dynstat_eta_sd               =   8.5111831324017E-01
(PID.TID 0000.0001) %MON dynstat_eta_del2             =   2.0142063838794E-03
(PID.TID 0000.0001) %MON dynstat_uvel_max             =   1.8226480588875E+00
(PID.TID 0000.0001) %MON dynstat_uvel_min             =  -2.8051701468709E+00
(PID.TID 0000.0001) %MON dynstat_uvel_mean            =   6.2476822377152E-04
(PID.TID 0000.0001) %MON dynstat_uvel_sd              =   2.9835323530813E-02
(PID.TID 0000.0001) %MON dynstat_uvel_del2            =   3.2857396267840E-05
(PID.TID 0000.0001) %MON dynstat_vvel_max             =   2.1972358120597E+00
(PID.TID 0000.0001) %MON dynstat_vvel_min             =  -2.1457033704856E+00
(PID.TID 0000.0001) %MON dynstat_vvel_mean            =   1.2458683957221E-03
(PID.TID 0000.0001) %MON dynstat_vvel_sd              =   3.0339134298965E-02
(PID.TID 0000.0001) %MON dynstat_vvel_del2            =   3.1233074338266E-05
(PID.TID 0000.0001) %MON dynstat_wvel_max             =   7.8033972199216E-03
(PID.TID 0000.0001) %MON dynstat_wvel_min             =  -1.0005199020761E-02
(PID.TID 0000.0001) %MON dynstat_wvel_mean            =  -6.6140972026504E-08
(PID.TID 0000.0001) %MON dynstat_wvel_sd              =   9.4883279652868E-05
(PID.TID 0000.0001) %MON dynstat_wvel_del2            =   2.2018152925766E-07
(PID.TID 0000.0001) %MON dynstat_theta_max            =   3.2524236149907E+01
(PID.TID 0000.0001) %MON dynstat_theta_min            =  -2.0292007108464E+00
(PID.TID 0000.0001) %MON dynstat_theta_mean           =   3.5921359905496E+00
(PID.TID 0000.0001) %MON dynstat_theta_sd             =   4.4421584013742E+00
(PID.TID 0000.0001) %MON dynstat_theta_del2           =   1.2138520793178E-04
(PID.TID 0000.0001) %MON dynstat_salt_max             =   4.0655992165406E+01
(PID.TID 0000.0001) %MON dynstat_salt_min             =   1.6134476476364E+01
(PID.TID 0000.0001) %MON dynstat_salt_mean            =   3.4724827069778E+01
(PID.TID 0000.0001) %MON dynstat_salt_sd              =   3.7965083174545E-01
(PID.TID 0000.0001) %MON dynstat_salt_del2            =   7.0085634174914E-05
(PID.TID 0000.0001) %MON dynstat_sst_max              =   3.2524236149907E+01
(PID.TID 0000.0001) %MON dynstat_sst_min              =  -2.0292007108464E+00
(PID.TID 0000.0001) %MON dynstat_sst_mean             =   1.8179779920497E+01
(PID.TID 0000.0001) %MON dynstat_sst_sd               =   1.0164908390998E+01
(PID.TID 0000.0001) %MON dynstat_sst_del2             =   1.1184500963450E-03
(PID.TID 0000.0001) %MON dynstat_sss_max              =   3.9478480480457E+01
(PID.TID 0000.0001) %MON dynstat_sss_min              =   1.6134476476364E+01
(PID.TID 0000.0001) %MON dynstat_sss_mean             =   3.4647411861325E+01
(PID.TID 0000.0001) %MON dynstat_sss_sd               =   1.2916434878343E+00
(PID.TID 0000.0001) %MON dynstat_sss_del2             =   1.4552338546616E-03
(PID.TID 0000.0001) %MON forcing_qnet_max             =   1.7588760992254E+03
(PID.TID 0000.0001) %MON forcing_qnet_min             =  -4.3181776848976E+03
(PID.TID 0000.0001) %MON forcing_qnet_mean            =  -1.7979285085191E+01
(PID.TID 0000.0001) %MON forcing_qnet_sd              =   2.2195125520507E+02
(PID.TID 0000.0001) %MON forcing_qnet_del2            =   5.4203917014222E-01
(PID.TID 0000.0001) %MON forcing_qsw_max              =   0.0000000000000E+00
(PID.TID 0000.0001) %MON forcing_qsw_min              =  -1.1191830142853E+02
(PID.TID 0000.0001) %MON forcing_qsw_mean             =  -2.0716942885213E+01
(PID.TID 0000.0001) %MON forcing_qsw_sd               =   3.0533478362698E+01
(PID.TID 0000.0001) %MON forcing_qsw_del2             =   2.1369429634310E-02
(PID.TID 0000.0001) %MON forcing_empmr_max            =   2.0151093602180E-02
(PID.TID 0000.0001) %MON forcing_empmr_min            =  -8.9891828596592E-02
(PID.TID 0000.0001) %MON forcing_empmr_mean           =   5.0693953069750E-06
(PID.TID 0000.0001) %MON forcing_empmr_sd             =   4.4901987498359E-04
(PID.TID 0000.0001) %MON forcing_empmr_del2           =   5.0334015672277E-06
(PID.TID 0000.0001) %MON forcing_fu_max               =   1.3256829804856E+00
(PID.TID 0000.0001) %MON forcing_fu_min               =  -7.0434090495110E-01
(PID.TID 0000.0001) %MON forcing_fu_mean              =   9.8127521075287E-03
(PID.TID 0000.0001) %MON forcing_fu_sd                =   1.2053035748601E-01
(PID.TID 0000.0001) %MON forcing_fu_del2              =   1.5845298304816E-04
(PID.TID 0000.0001) %MON forcing_fv_max               =   9.0304886934851E-01
(PID.TID 0000.0001) %MON forcing_fv_min               =  -1.5178101606757E+00
(PID.TID 0000.0001) %MON forcing_fv_mean              =  -1.7771176962229E-03
(PID.TID 0000.0001) %MON forcing_fv_sd                =   1.0645841864755E-01
(PID.TID 0000.0001) %MON forcing_fv_del2              =   1.5754601892098E-04
(PID.TID 0000.0001) %MON trAdv_CFL_u_max              =   2.8934373318168E-02
(PID.TID 0000.0001) %MON trAdv_CFL_v_max              =   2.2367038615093E-02
(PID.TID 0000.0001) %MON trAdv_CFL_w_max              =   1.1728469396636E-01
(PID.TID 0000.0001) %MON advcfl_uvel_max              =   2.9321410867041E-02
(PID.TID 0000.0001) %MON advcfl_vvel_max              =   2.2294963490716E-02
(PID.TID 0000.0001) %MON advcfl_wvel_max              =   1.1077688007015E-01
(PID.TID 0000.0001) %MON advcfl_W_hf_max              =   1.1728469396636E-01
(PID.TID 0000.0001) %MON pe_b_mean                    =   1.8268851578327E-03
(PID.TID 0000.0001) %MON ke_max                       =   2.7621395410591E+00
(PID.TID 0000.0001) %MON ke_mean                      =   8.7399815902908E-04
(PID.TID 0000.0001) %MON ke_vol                       =   1.3350064351420E+18
(PID.TID 0000.0001) %MON vort_r_min                   =  -1.0008249183193E-04
(PID.TID 0000.0001) %MON vort_r_max                   =   1.0644341669056E-04
(PID.TID 0000.0001) %MON vort_a_mean                  =  -1.9725071684189E-05
(PID.TID 0000.0001) %MON vort_a_sd                    =   7.4539024387641E-05
(PID.TID 0000.0001) %MON vort_p_mean                  =  -2.1669076132243E-05
(PID.TID 0000.0001) %MON vort_p_sd                    =   9.3606642116250E-05
(PID.TID 0000.0001) %MON surfExpan_theta_mean         =   5.2530529900576E-06
(PID.TID 0000.0001) %MON surfExpan_salt_mean          =  -8.0634944735005E-06
(PID.TID 0000.0001) // =======================================================
(PID.TID 0000.0001) // End MONITOR dynamic field statistics
(PID.TID 0000.0001) // =======================================================
(PID.TID 0000.0001) // =======================================================
(PID.TID 0000.0001) // Begin MONITOR SEAICE statistics
(PID.TID 0000.0001) // =======================================================
(PID.TID 0000.0001) %MON seaice_tsnumber              =                174732
(PID.TID 0000.0001) %MON seaice_time_sec              =   7.8629400000000E+07
(PID.TID 0000.0001) %MON seaice_uice_max              =   1.4374619715001E+00
(PID.TID 0000.0001) %MON seaice_uice_min              =  -1.7657581011591E+00
(PID.TID 0000.0001) %MON seaice_uice_mean             =  -2.4797276449452E-04
(PID.TID 0000.0001) %MON seaice_uice_sd               =   1.5382737181834E-01
(PID.TID 0000.0001) %MON seaice_uice_del2             =   3.3612566111952E-04
(PID.TID 0000.0001) %MON seaice_vice_max              =   1.4990797064641E+00
(PID.TID 0000.0001) %MON seaice_vice_min              =  -1.5172494188431E+00
(PID.TID 0000.0001) %MON seaice_vice_mean             =  -2.3978306628681E-02
(PID.TID 0000.0001) %MON seaice_vice_sd               =   1.6320485742969E-01
(PID.TID 0000.0001) %MON seaice_vice_del2             =   3.1754699922210E-04
(PID.TID 0000.0001) %MON seaice_area_max              =   1.0040107124259E+00
(PID.TID 0000.0001) %MON seaice_area_min              =   0.0000000000000E+00
(PID.TID 0000.0001) %MON seaice_area_mean             =   5.7331710123845E-02
(PID.TID 0000.0001) %MON seaice_area_sd               =   2.2143177067484E-01
(PID.TID 0000.0001) %MON seaice_area_del2             =   3.0421842249534E-04
(PID.TID 0000.0001) %MON seaice_heff_max              =   9.9490275135309E+00
(PID.TID 0000.0001) %MON seaice_heff_min              =   0.0000000000000E+00
(PID.TID 0000.0001) %MON seaice_heff_mean             =   1.4992082095973E-01
(PID.TID 0000.0001) %MON seaice_heff_sd               =   7.2114573650094E-01
(PID.TID 0000.0001) %MON seaice_heff_del2             =   1.4350893706413E-03
(PID.TID 0000.0001) %MON seaice_hsnow_max             =   3.2861940180830E+00
(PID.TID 0000.0001) %MON seaice_hsnow_min             =   0.0000000000000E+00
(PID.TID 0000.0001) %MON seaice_hsnow_mean            =   1.2704407575933E-02
(PID.TID 0000.0001) %MON seaice_hsnow_sd              =   6.8815961908556E-02
(PID.TID 0000.0001) %MON seaice_hsnow_del2            =   3.9872465940871E-04
(PID.TID 0000.0001) // =======================================================
(PID.TID 0000.0001) // End MONITOR SEAICE statistics
(PID.TID 0000.0001) // =======================================================
(PID.TID 0000.0001) // =======================================================
(PID.TID 0000.0001) // Begin MONITOR dynamic field statistics
(PID.TID 0000.0001) // =======================================================
(PID.TID 0000.0001) %MON time_tsnumber                =                174733
(PID.TID 0000.0001) %MON time_secondsf                =   7.8629850000000E+07
(PID.TID 0000.0001) %MON dynstat_eta_max              =   2.2798727795205E+00
(PID.TID 0000.0001) %MON dynstat_eta_min              =  -1.1708471299898E+01
(PID.TID 0000.0001) %MON dynstat_eta_mean             =   6.4775637347864E-02
(PID.TID 0000.0001) %MON dynstat_eta_sd               =   8.5102714441363E-01
(PID.TID 0000.0001) %MON dynstat_eta_del2             =   2.0143060827142E-03
(PID.TID 0000.0001) %MON dynstat_uvel_max             =   1.8393505152758E+00
(PID.TID 0000.0001) %MON dynstat_uvel_min             =  -2.8126162004564E+00
(PID.TID 0000.0001) %MON dynstat_uvel_mean            =   6.2775857440729E-04
(PID.TID 0000.0001) %MON dynstat_uvel_sd              =   2.9794985078856E-02
(PID.TID 0000.0001) %MON dynstat_uvel_del2            =   3.2941737033794E-05
(PID.TID 0000.0001) %MON dynstat_vvel_max             =   2.2109454229036E+00
(PID.TID 0000.0001) %MON dynstat_vvel_min             =  -2.1415128851936E+00
(PID.TID 0000.0001) %MON dynstat_vvel_mean            =   1.2945505429811E-03
(PID.TID 0000.0001) %MON dynstat_vvel_sd              =   3.0341912234652E-02
(PID.TID 0000.0001) %MON dynstat_vvel_del2            =   3.1290653155256E-05
(PID.TID 0000.0001) %MON dynstat_wvel_max             =   7.7861638226008E-03
(PID.TID 0000.0001) %MON dynstat_wvel_min             =  -9.9796416968171E-03
(PID.TID 0000.0001) %MON dynstat_wvel_mean            =  -5.5168614444648E-08
(PID.TID 0000.0001) %MON dynstat_wvel_sd              =   9.5056156727347E-05
(PID.TID 0000.0001) %MON dynstat_wvel_del2            =   2.2081317715249E-07
(PID.TID 0000.0001) %MON dynstat_theta_max            =   3.2523974595578E+01
(PID.TID 0000.0001) %MON dynstat_theta_min            =  -2.0295104526323E+00
(PID.TID 0000.0001) %MON dynstat_theta_mean           =   3.5921357555687E+00
(PID.TID 0000.0001) %MON dynstat_theta_sd             =   4.4421595976890E+00
(PID.TID 0000.0001) %MON dynstat_theta_del2           =   1.2144583728174E-04
(PID.TID 0000.0001) %MON dynstat_salt_max             =   4.0655992116829E+01
(PID.TID 0000.0001) %MON dynstat_salt_min             =   1.6132629110603E+01
(PID.TID 0000.0001) %MON dynstat_salt_mean            =   3.4724826364422E+01
(PID.TID 0000.0001) %MON dynstat_salt_sd              =   3.7965217456049E-01
(PID.TID 0000.0001) %MON dynstat_salt_del2            =   7.0012066107544E-05
(PID.TID 0000.0001) %MON dynstat_sst_max              =   3.2523974595578E+01
(PID.TID 0000.0001) %MON dynstat_sst_min              =  -2.0295104526323E+00
(PID.TID 0000.0001) %MON dynstat_sst_mean             =   1.8179908320754E+01
(PID.TID 0000.0001) %MON dynstat_sst_sd               =   1.0165220595527E+01
(PID.TID 0000.0001) %MON dynstat_sst_del2             =   1.1174929829897E-03
(PID.TID 0000.0001) %MON dynstat_sss_max              =   3.9478417876497E+01
(PID.TID 0000.0001) %MON dynstat_sss_min              =   1.6132629110603E+01
(PID.TID 0000.0001) %MON dynstat_sss_mean             =   3.4647346330258E+01
(PID.TID 0000.0001) %MON dynstat_sss_sd               =   1.2917645495358E+00
(PID.TID 0000.0001) %MON dynstat_sss_del2             =   1.4555906603970E-03
(PID.TID 0000.0001) %MON forcing_qnet_max             =   1.7896177116820E+03
(PID.TID 0000.0001) %MON forcing_qnet_min             =  -7.9539006433344E+03
(PID.TID 0000.0001) %MON forcing_qnet_mean            =  -1.9396792304657E+01
(PID.TID 0000.0001) %MON forcing_qnet_sd              =   2.2422471111690E+02
(PID.TID 0000.0001) %MON forcing_qnet_del2            =   6.2859265362452E-01
(PID.TID 0000.0001) %MON forcing_qsw_max              =   0.0000000000000E+00
(PID.TID 0000.0001) %MON forcing_qsw_min              =  -1.1175195518862E+02
(PID.TID 0000.0001) %MON forcing_qsw_mean             =  -2.1006675202214E+01
(PID.TID 0000.0001) %MON forcing_qsw_sd               =   3.0882531793948E+01
(PID.TID 0000.0001) %MON forcing_qsw_del2             =   2.1036224725321E-02
(PID.TID 0000.0001) %MON forcing_empmr_max            =   2.0198022946715E-02
(PID.TID 0000.0001) %MON forcing_empmr_min            =  -9.6691310405731E-02
(PID.TID 0000.0001) %MON forcing_empmr_mean           =   4.8198616672575E-06
(PID.TID 0000.0001) %MON forcing_empmr_sd             =   4.5580202665649E-04
(PID.TID 0000.0001) %MON forcing_empmr_del2           =   5.1162202833412E-06
(PID.TID 0000.0001) %MON forcing_fu_max               =   1.3207721451287E+00
(PID.TID 0000.0001) %MON forcing_fu_min               =  -7.8900222074125E-01
(PID.TID 0000.0001) %MON forcing_fu_mean              =   9.7898654223330E-03
(PID.TID 0000.0001) %MON forcing_fu_sd                =   1.2057748066930E-01
(PID.TID 0000.0001) %MON forcing_fu_del2              =   1.5846361492252E-04
(PID.TID 0000.0001) %MON forcing_fv_max               =   8.9906612029915E-01
(PID.TID 0000.0001) %MON forcing_fv_min               =  -1.5124705119004E+00
(PID.TID 0000.0001) %MON forcing_fv_mean              =  -1.7448477559869E-03
(PID.TID 0000.0001) %MON forcing_fv_sd                =   1.0646188676345E-01
(PID.TID 0000.0001) %MON forcing_fv_del2              =   1.5740840210158E-04
(PID.TID 0000.0001) %MON trAdv_CFL_u_max              =   2.9011176821310E-02
(PID.TID 0000.0001) %MON trAdv_CFL_v_max              =   2.2506597324933E-02
(PID.TID 0000.0001) %MON trAdv_CFL_w_max              =   1.1645636290537E-01
(PID.TID 0000.0001) %MON advcfl_uvel_max              =   2.9399241724025E-02
(PID.TID 0000.0001) %MON advcfl_vvel_max              =   2.2434072489195E-02
(PID.TID 0000.0001) %MON advcfl_wvel_max              =   1.0994794905508E-01
(PID.TID 0000.0001) %MON advcfl_W_hf_max              =   1.1645636290537E-01
(PID.TID 0000.0001) %MON pe_b_mean                    =   1.8208507067956E-03
(PID.TID 0000.0001) %MON ke_max                       =   2.7795857922941E+00
(PID.TID 0000.0001) %MON ke_mean                      =   8.7298121530577E-04
(PID.TID 0000.0001) %MON ke_vol                       =   1.3350064351420E+18
(PID.TID 0000.0001) %MON vort_r_min                   =  -1.0033192950889E-04
(PID.TID 0000.0001) %MON vort_r_max                   =   1.0679702072848E-04
(PID.TID 0000.0001) %MON vort_a_mean                  =  -1.9725071954744E-05
(PID.TID 0000.0001) %MON vort_a_sd                    =   7.4539029791842E-05
(PID.TID 0000.0001) %MON vort_p_mean                  =  -2.1669076429462E-05
(PID.TID 0000.0001) %MON vort_p_sd                    =   9.3606653440441E-05
(PID.TID 0000.0001) %MON surfExpan_theta_mean         =   4.8925625506856E-06
(PID.TID 0000.0001) %MON surfExpan_salt_mean          =  -7.6191429770940E-06
(PID.TID 0000.0001) // =======================================================
(PID.TID 0000.0001) // End MONITOR dynamic field statistics
(PID.TID 0000.0001) // =======================================================
(PID.TID 0000.0001) // =======================================================
(PID.TID 0000.0001) // Begin MONITOR SEAICE statistics
(PID.TID 0000.0001) // =======================================================
(PID.TID 0000.0001) %MON seaice_tsnumber              =                174733
(PID.TID 0000.0001) %MON seaice_time_sec              =   7.8629850000000E+07
(PID.TID 0000.0001) %MON seaice_uice_max              =   1.4394205190905E+00
(PID.TID 0000.0001) %MON seaice_uice_min              =  -1.8017062381122E+00
(PID.TID 0000.0001) %MON seaice_uice_mean             =  -2.9285660451342E-04
(PID.TID 0000.0001) %MON seaice_uice_sd               =   1.5371658789527E-01
(PID.TID 0000.0001) %MON seaice_uice_del2             =   3.3634288496078E-04
(PID.TID 0000.0001) %MON seaice_vice_max              =   1.4568600508124E+00
(PID.TID 0000.0001) %MON seaice_vice_min              =  -1.5131118634946E+00
(PID.TID 0000.0001) %MON seaice_vice_mean             =  -2.3880541963116E-02
(PID.TID 0000.0001) %MON seaice_vice_sd               =   1.6319408597538E-01
(PID.TID 0000.0001) %MON seaice_vice_del2             =   3.1738308511726E-04
(PID.TID 0000.0001) %MON seaice_area_max              =   1.0040614131026E+00
(PID.TID 0000.0001) %MON seaice_area_min              =   0.0000000000000E+00
(PID.TID 0000.0001) %MON seaice_area_mean             =   5.7333513163178E-02
(PID.TID 0000.0001) %MON seaice_area_sd               =   2.2142592264981E-01
(PID.TID 0000.0001) %MON seaice_area_del2             =   3.0396681113381E-04
(PID.TID 0000.0001) %MON seaice_heff_max              =   9.9490151607002E+00
(PID.TID 0000.0001) %MON seaice_heff_min              =   0.0000000000000E+00
(PID.TID 0000.0001) %MON seaice_heff_mean             =   1.4991697790006E-01
(PID.TID 0000.0001) %MON seaice_heff_sd               =   7.2113322281051E-01
(PID.TID 0000.0001) %MON seaice_heff_del2             =   1.4341800161910E-03
(PID.TID 0000.0001) %MON seaice_hsnow_max             =   3.2861899759056E+00
(PID.TID 0000.0001) %MON seaice_hsnow_min             =   0.0000000000000E+00
(PID.TID 0000.0001) %MON seaice_hsnow_mean            =   1.2703477826129E-02
(PID.TID 0000.0001) %MON seaice_hsnow_sd              =   6.8806879009158E-02
(PID.TID 0000.0001) %MON seaice_hsnow_del2            =   3.9841677347835E-04
(PID.TID 0000.0001) // =======================================================
(PID.TID 0000.0001) // End MONITOR SEAICE statistics
(PID.TID 0000.0001) // =======================================================
(PID.TID 0000.0001) // =======================================================
(PID.TID 0000.0001) // Begin MONITOR dynamic field statistics
(PID.TID 0000.0001) // =======================================================
(PID.TID 0000.0001) %MON time_tsnumber                =                174734
(PID.TID 0000.0001) %MON time_secondsf                =   7.8630300000000E+07
(PID.TID 0000.0001) %MON dynstat_eta_max              =   2.3767144591116E+00
(PID.TID 0000.0001) %MON dynstat_eta_min              =  -1.1692114318385E+01
(PID.TID 0000.0001) %MON dynstat_eta_mean             =   6.4629756376749E-02
(PID.TID 0000.0001) %MON dynstat_eta_sd               =   8.5090633243739E-01
(PID.TID 0000.0001) %MON dynstat_eta_del2             =   2.0144171632451E-03
(PID.TID 0000.0001) %MON dynstat_uvel_max             =   1.8557741768257E+00
(PID.TID 0000.0001) %MON dynstat_uvel_min             =  -2.8195364135474E+00
(PID.TID 0000.0001) %MON dynstat_uvel_mean            =   6.3534295900730E-04
(PID.TID 0000.0001) %MON dynstat_uvel_sd              =   2.9755068544763E-02
(PID.TID 0000.0001) %MON dynstat_uvel_del2            =   3.3024429101042E-05
(PID.TID 0000.0001) %MON dynstat_vvel_max             =   2.2222108476458E+00
(PID.TID 0000.0001) %MON dynstat_vvel_min             =  -2.1368201390725E+00
(PID.TID 0000.0001) %MON dynstat_vvel_mean            =   1.3438820686740E-03
(PID.TID 0000.0001) %MON dynstat_vvel_sd              =   3.0346118902907E-02
(PID.TID 0000.0001) %MON dynstat_vvel_del2            =   3.1348554279340E-05
(PID.TID 0000.0001) %MON dynstat_wvel_max             =   7.7700269242220E-03
(PID.TID 0000.0001) %MON dynstat_wvel_min             =  -9.9553223843919E-03
(PID.TID 0000.0001) %MON dynstat_wvel_mean            =  -4.2446821019446E-08
(PID.TID 0000.0001) %MON dynstat_wvel_sd              =   9.5227442693688E-05
(PID.TID 0000.0001) %MON dynstat_wvel_del2            =   2.2144441510409E-07
(PID.TID 0000.0001) %MON dynstat_theta_max            =   3.2523443703712E+01
(PID.TID 0000.0001) %MON dynstat_theta_min            =  -2.0298182363624E+00
(PID.TID 0000.0001) %MON dynstat_theta_mean           =   3.5921356015192E+00
(PID.TID 0000.0001) %MON dynstat_theta_sd             =   4.4421609690463E+00
(PID.TID 0000.0001) %MON dynstat_theta_del2           =   1.2149068505461E-04
(PID.TID 0000.0001) %MON dynstat_salt_max             =   4.0655992072462E+01
(PID.TID 0000.0001) %MON dynstat_salt_min             =   1.6130827052360E+01
(PID.TID 0000.0001) %MON dynstat_salt_mean            =   3.4724825656665E+01
(PID.TID 0000.0001) %MON dynstat_salt_sd              =   3.7965336960528E-01
(PID.TID 0000.0001) %MON dynstat_salt_del2            =   6.9924616233563E-05
(PID.TID 0000.0001) %MON dynstat_sst_max              =   3.2523443703712E+01
(PID.TID 0000.0001) %MON dynstat_sst_min              =  -2.0298182363624E+00
(PID.TID 0000.0001) %MON dynstat_sst_mean             =   1.8180069546999E+01
(PID.TID 0000.0001) %MON dynstat_sst_sd               =   1.0165547262173E+01
(PID.TID 0000.0001) %MON dynstat_sst_del2             =   1.1138774032829E-03
(PID.TID 0000.0001) %MON dynstat_sss_max              =   3.9478283624044E+01
(PID.TID 0000.0001) %MON dynstat_sss_min              =   1.6130827052360E+01
(PID.TID 0000.0001) %MON dynstat_sss_mean             =   3.4647281369567E+01
(PID.TID 0000.0001) %MON dynstat_sss_sd               =   1.2918720305147E+00
(PID.TID 0000.0001) %MON dynstat_sss_del2             =   1.4548948886493E-03
(PID.TID 0000.0001) %MON forcing_qnet_max             =   2.0163520507812E+03
(PID.TID 0000.0001) %MON forcing_qnet_min             =  -3.5934628059885E+04
(PID.TID 0000.0001) %MON forcing_qnet_mean            =  -2.0645926487815E+01
(PID.TID 0000.0001) %MON forcing_qnet_sd              =   2.6120964168890E+02
(PID.TID 0000.0001) %MON forcing_qnet_del2            =   1.5458526584090E+00
(PID.TID 0000.0001) %MON forcing_qsw_max              =   0.0000000000000E+00
(PID.TID 0000.0001) %MON forcing_qsw_min              =  -1.1183417553065E+02
(PID.TID 0000.0001) %MON forcing_qsw_mean             =  -2.1132451376463E+01
(PID.TID 0000.0001) %MON forcing_qsw_sd               =   3.1014882343593E+01
(PID.TID 0000.0001) %MON forcing_qsw_del2             =   2.1012266671951E-02
(PID.TID 0000.0001) %MON forcing_empmr_max            =   2.0252006128430E-02
(PID.TID 0000.0001) %MON forcing_empmr_min            =  -1.0838702321053E-01
(PID.TID 0000.0001) %MON forcing_empmr_mean           =   4.5933193257996E-06
(PID.TID 0000.0001) %MON forcing_empmr_sd             =   4.7345653102218E-04
(PID.TID 0000.0001) %MON forcing_empmr_del2           =   5.3048407372334E-06
(PID.TID 0000.0001) %MON forcing_fu_max               =   1.3112902479836E+00
(PID.TID 0000.0001) %MON forcing_fu_min               =  -9.5313662917163E-01
(PID.TID 0000.0001) %MON forcing_fu_mean              =   9.7688006267523E-03
(PID.TID 0000.0001) %MON forcing_fu_sd                =   1.2063150432076E-01
(PID.TID 0000.0001) %MON forcing_fu_del2              =   1.5856233563980E-04
(PID.TID 0000.0001) %MON forcing_fv_max               =   8.9249110972381E-01
(PID.TID 0000.0001) %MON forcing_fv_min               =  -1.5060369593115E+00
(PID.TID 0000.0001) %MON forcing_fv_mean              =  -1.7103888759769E-03
(PID.TID 0000.0001) %MON forcing_fv_sd                =   1.0646789968513E-01
(PID.TID 0000.0001) %MON forcing_fv_del2              =   1.5726067410957E-04
(PID.TID 0000.0001) %MON trAdv_CFL_u_max              =   2.9082556459098E-02
(PID.TID 0000.0001) %MON trAdv_CFL_v_max              =   2.2621275134589E-02
(PID.TID 0000.0001) %MON trAdv_CFL_w_max              =   1.1562166383465E-01
(PID.TID 0000.0001) %MON advcfl_uvel_max              =   2.9471576163901E-02
(PID.TID 0000.0001) %MON advcfl_vvel_max              =   2.2548380763235E-02
(PID.TID 0000.0001) %MON advcfl_wvel_max              =   1.0911410886515E-01
(PID.TID 0000.0001) %MON advcfl_W_hf_max              =   1.1562166383465E-01
(PID.TID 0000.0001) %MON pe_b_mean                    =   1.8149300485953E-03
(PID.TID 0000.0001) %MON ke_max                       =   2.7959578853084E+00
(PID.TID 0000.0001) %MON ke_mean                      =   8.7202571273592E-04
(PID.TID 0000.0001) %MON ke_vol                       =   1.3350064351420E+18
(PID.TID 0000.0001) %MON vort_r_min                   =  -1.0056254969936E-04
(PID.TID 0000.0001) %MON vort_r_max                   =   1.0712835201528E-04
(PID.TID 0000.0001) %MON vort_a_mean                  =  -1.9725072193688E-05
(PID.TID 0000.0001) %MON vort_a_sd                    =   7.4539035910198E-05
(PID.TID 0000.0001) %MON vort_p_mean                  =  -2.1669076691955E-05
(PID.TID 0000.0001) %MON vort_p_sd                    =   9.3606668680502E-05
(PID.TID 0000.0001) %MON surfExpan_theta_mean         =   4.5741092015837E-06
(PID.TID 0000.0001) %MON surfExpan_salt_mean          =  -7.0913170615861E-06
(PID.TID 0000.0001) // =======================================================
(PID.TID 0000.0001) // End MONITOR dynamic field statistics
(PID.TID 0000.0001) // =======================================================
(PID.TID 0000.0001) // =======================================================
(PID.TID 0000.0001) // Begin MONITOR SEAICE statistics
(PID.TID 0000.0001) // =======================================================
(PID.TID 0000.0001) %MON seaice_tsnumber              =                174734
(PID.TID 0000.0001) %MON seaice_time_sec              =   7.8630300000000E+07
(PID.TID 0000.0001) %MON seaice_uice_max              =   1.4412344537451E+00
(PID.TID 0000.0001) %MON seaice_uice_min              =  -1.8374338278564E+00
(PID.TID 0000.0001) %MON seaice_uice_mean             =  -3.2479861168337E-04
(PID.TID 0000.0001) %MON seaice_uice_sd               =   1.5359344074256E-01
(PID.TID 0000.0001) %MON seaice_uice_del2             =   3.3649565524824E-04
(PID.TID 0000.0001) %MON seaice_vice_max              =   1.4357198627290E+00
(PID.TID 0000.0001) %MON seaice_vice_min              =  -1.5088306716231E+00
(PID.TID 0000.0001) %MON seaice_vice_mean             =  -2.3789473678335E-02
(PID.TID 0000.0001) %MON seaice_vice_sd               =   1.6319357945650E-01
(PID.TID 0000.0001) %MON seaice_vice_del2             =   3.1722268555562E-04
(PID.TID 0000.0001) %MON seaice_area_max              =   1.0041149553704E+00
(PID.TID 0000.0001) %MON seaice_area_min              =   0.0000000000000E+00
(PID.TID 0000.0001) %MON seaice_area_mean             =   5.7335304468016E-02
(PID.TID 0000.0001) %MON seaice_area_sd               =   2.2142000921738E-01
(PID.TID 0000.0001) %MON seaice_area_del2             =   3.0372157889008E-04
(PID.TID 0000.0001) %MON seaice_heff_max              =   9.9490181183991E+00
(PID.TID 0000.0001) %MON seaice_heff_min              =   0.0000000000000E+00
(PID.TID 0000.0001) %MON seaice_heff_mean             =   1.4991314454811E-01
(PID.TID 0000.0001) %MON seaice_heff_sd               =   7.2112078709956E-01
(PID.TID 0000.0001) %MON seaice_heff_del2             =   1.4332893427098E-03
(PID.TID 0000.0001) %MON seaice_hsnow_max             =   3.2861904818003E+00
(PID.TID 0000.0001) %MON seaice_hsnow_min             =   0.0000000000000E+00
(PID.TID 0000.0001) %MON seaice_hsnow_mean            =   1.2702562927891E-02
(PID.TID 0000.0001) %MON seaice_hsnow_sd              =   6.8797985060493E-02
(PID.TID 0000.0001) %MON seaice_hsnow_del2            =   3.9811475920061E-04
(PID.TID 0000.0001) // =======================================================
(PID.TID 0000.0001) // End MONITOR SEAICE statistics
(PID.TID 0000.0001) // =======================================================
(PID.TID 0000.0001) // =======================================================
(PID.TID 0000.0001) // Begin MONITOR dynamic field statistics
(PID.TID 0000.0001) // =======================================================
(PID.TID 0000.0001) %MON time_tsnumber                =                174735
(PID.TID 0000.0001) %MON time_secondsf                =   7.8630750000000E+07
(PID.TID 0000.0001) %MON dynstat_eta_max              =   2.4819624798276E+00
(PID.TID 0000.0001) %MON dynstat_eta_min              =  -1.1668739901932E+01
(PID.TID 0000.0001) %MON dynstat_eta_mean             =   6.4491290986941E-02
(PID.TID 0000.0001) %MON dynstat_eta_sd               =   8.5075699437158E-01
(PID.TID 0000.0001) %MON dynstat_eta_del2             =   2.0145288804775E-03
(PID.TID 0000.0001) %MON dynstat_uvel_max             =   1.8719159073391E+00
(PID.TID 0000.0001) %MON dynstat_uvel_min             =  -2.8259372160837E+00
(PID.TID 0000.0001) %MON dynstat_uvel_mean            =   6.4763446853290E-04
(PID.TID 0000.0001) %MON dynstat_uvel_sd              =   2.9715442283052E-02
(PID.TID 0000.0001) %MON dynstat_uvel_del2            =   3.3106707110052E-05
(PID.TID 0000.0001) %MON dynstat_vvel_max             =   2.2309972590623E+00
(PID.TID 0000.0001) %MON dynstat_vvel_min             =  -2.1316215402022E+00
(PID.TID 0000.0001) %MON dynstat_vvel_mean            =   1.3937233647143E-03
(PID.TID 0000.0001) %MON dynstat_vvel_sd              =   3.0351530881251E-02
(PID.TID 0000.0001) %MON dynstat_vvel_del2            =   3.1406554379188E-05
(PID.TID 0000.0001) %MON dynstat_wvel_max             =   7.7545878796520E-03
(PID.TID 0000.0001) %MON dynstat_wvel_min             =  -9.9321009181690E-03
(PID.TID 0000.0001) %MON dynstat_wvel_mean            =  -2.8081335668755E-08
(PID.TID 0000.0001) %MON dynstat_wvel_sd              =   9.5397238316455E-05
(PID.TID 0000.0001) %MON dynstat_wvel_del2            =   2.2207534941136E-07
(PID.TID 0000.0001) %MON dynstat_theta_max            =   3.2522732534494E+01
(PID.TID 0000.0001) %MON dynstat_theta_min            =  -2.0301243021634E+00
(PID.TID 0000.0001) %MON dynstat_theta_mean           =   3.5921354666097E+00
(PID.TID 0000.0001) %MON dynstat_theta_sd             =   4.4421622690644E+00
(PID.TID 0000.0001) %MON dynstat_theta_del2           =   1.2155482883504E-04
(PID.TID 0000.0001) %MON dynstat_salt_max             =   4.0655992032449E+01
(PID.TID 0000.0001) %MON dynstat_salt_min             =   1.6129073234285E+01
(PID.TID 0000.0001) %MON dynstat_salt_mean            =   3.4724824938629E+01
(PID.TID 0000.0001) %MON dynstat_salt_sd              =   3.7965470354221E-01
(PID.TID 0000.0001) %MON dynstat_salt_del2            =   6.9855059502604E-05
(PID.TID 0000.0001) %MON dynstat_sst_max              =   3.2522732534494E+01
(PID.TID 0000.0001) %MON dynstat_sst_min              =  -2.0301243021634E+00
(PID.TID 0000.0001) %MON dynstat_sst_mean             =   1.8180199053011E+01
(PID.TID 0000.0001) %MON dynstat_sst_sd               =   1.0165851912133E+01
(PID.TID 0000.0001) %MON dynstat_sst_del2             =   1.1136713966647E-03
(PID.TID 0000.0001) %MON dynstat_sss_max              =   3.9478067561401E+01
(PID.TID 0000.0001) %MON dynstat_sss_min              =   1.6129073234285E+01
(PID.TID 0000.0001) %MON dynstat_sss_mean             =   3.4647215792420E+01
(PID.TID 0000.0001) %MON dynstat_sss_sd               =   1.2919981163269E+00
(PID.TID 0000.0001) %MON dynstat_sss_del2             =   1.4554867042852E-03
(PID.TID 0000.0001) %MON forcing_qnet_max             =   1.8364262516310E+03
(PID.TID 0000.0001) %MON forcing_qnet_min             =  -2.5187844238281E+03
(PID.TID 0000.0001) %MON forcing_qnet_mean            =  -1.9981996359125E+01
(PID.TID 0000.0001) %MON forcing_qnet_sd              =   2.2271161126911E+02
(PID.TID 0000.0001) %MON forcing_qnet_del2            =   5.2279514382476E-01
(PID.TID 0000.0001) %MON forcing_qsw_max              =   0.0000000000000E+00
(PID.TID 0000.0001) %MON forcing_qsw_min              =  -1.1181962328609E+02
(PID.TID 0000.0001) %MON forcing_qsw_mean             =  -2.1245478976976E+01
(PID.TID 0000.0001) %MON forcing_qsw_sd               =   3.1138466259396E+01
(PID.TID 0000.0001) %MON forcing_qsw_del2             =   2.0981781764352E-02
(PID.TID 0000.0001) %MON forcing_empmr_max            =   2.0299749448895E-02
(PID.TID 0000.0001) %MON forcing_empmr_min            =  -1.1131460964680E-01
(PID.TID 0000.0001) %MON forcing_empmr_mean           =   4.4653485213033E-06
(PID.TID 0000.0001) %MON forcing_empmr_sd             =   4.7089395809476E-04
(PID.TID 0000.0001) %MON forcing_empmr_del2           =   5.2813987611310E-06
(PID.TID 0000.0001) %MON forcing_fu_max               =   1.2975236254518E+00
(PID.TID 0000.0001) %MON forcing_fu_min               =  -1.0616114246826E+00
(PID.TID 0000.0001) %MON forcing_fu_mean              =   9.7433482616433E-03
(PID.TID 0000.0001) %MON forcing_fu_sd                =   1.2065804614097E-01
(PID.TID 0000.0001) %MON forcing_fu_del2              =   1.5868512028714E-04
(PID.TID 0000.0001) %MON forcing_fv_max               =   8.8254430220873E-01
(PID.TID 0000.0001) %MON forcing_fv_min               =  -1.4990586536139E+00
(PID.TID 0000.0001) %MON forcing_fv_mean              =  -1.6808243682150E-03
(PID.TID 0000.0001) %MON forcing_fv_sd                =   1.0645868427699E-01
(PID.TID 0000.0001) %MON forcing_fv_del2              =   1.5706473958152E-04
(PID.TID 0000.0001) %MON trAdv_CFL_u_max              =   2.9148578554167E-02
(PID.TID 0000.0001) %MON trAdv_CFL_v_max              =   2.2710717515949E-02
(PID.TID 0000.0001) %MON trAdv_CFL_w_max              =   1.1478598918727E-01
(PID.TID 0000.0001) %MON advcfl_uvel_max              =   2.9538481396460E-02
(PID.TID 0000.0001) %MON advcfl_vvel_max              =   2.2637534927148E-02
(PID.TID 0000.0001) %MON advcfl_wvel_max              =   1.0828084086907E-01
(PID.TID 0000.0001) %MON advcfl_W_hf_max              =   1.1478598918727E-01
(PID.TID 0000.0001) %MON pe_b_mean                    =   1.8091621040872E-03
(PID.TID 0000.0001) %MON ke_max                       =   2.8112580622096E+00
(PID.TID 0000.0001) %MON ke_mean                      =   8.7112138351097E-04
(PID.TID 0000.0001) %MON ke_vol                       =   1.3350064351420E+18
(PID.TID 0000.0001) %MON vort_r_min                   =  -1.0077425341087E-04
(PID.TID 0000.0001) %MON vort_r_max                   =   1.0743764846901E-04
(PID.TID 0000.0001) %MON vort_a_mean                  =  -1.9725072398680E-05
(PID.TID 0000.0001) %MON vort_a_sd                    =   7.4539042700744E-05
(PID.TID 0000.0001) %MON vort_p_mean                  =  -2.1669076917150E-05
(PID.TID 0000.0001) %MON vort_p_sd                    =   9.3606687604843E-05
(PID.TID 0000.0001) %MON surfExpan_theta_mean         =   4.3113272389084E-06
(PID.TID 0000.0001) %MON surfExpan_salt_mean          =  -6.4800250107122E-06
(PID.TID 0000.0001) // =======================================================
(PID.TID 0000.0001) // End MONITOR dynamic field statistics
(PID.TID 0000.0001) // =======================================================
(PID.TID 0000.0001) // =======================================================
(PID.TID 0000.0001) // Begin MONITOR SEAICE statistics
(PID.TID 0000.0001) // =======================================================
(PID.TID 0000.0001) %MON seaice_tsnumber              =                174735
(PID.TID 0000.0001) %MON seaice_time_sec              =   7.8630750000000E+07
(PID.TID 0000.0001) %MON seaice_uice_max              =   1.4428655280831E+00
(PID.TID 0000.0001) %MON seaice_uice_min              =  -1.8727236020220E+00
(PID.TID 0000.0001) %MON seaice_uice_mean             =  -3.7157670003275E-04
(PID.TID 0000.0001) %MON seaice_uice_sd               =   1.5349994650739E-01
(PID.TID 0000.0001) %MON seaice_uice_del2             =   3.3670889346145E-04
(PID.TID 0000.0001) %MON seaice_vice_max              =   1.4507104212551E+00
(PID.TID 0000.0001) %MON seaice_vice_min              =  -1.5037741280069E+00
(PID.TID 0000.0001) %MON seaice_vice_mean             =  -2.3703859909061E-02
(PID.TID 0000.0001) %MON seaice_vice_sd               =   1.6320382896133E-01
(PID.TID 0000.0001) %MON seaice_vice_del2             =   3.1716703475731E-04
(PID.TID 0000.0001) %MON seaice_area_max              =   1.0041665712459E+00
(PID.TID 0000.0001) %MON seaice_area_min              =   0.0000000000000E+00
(PID.TID 0000.0001) %MON seaice_area_mean             =   5.7337089888222E-02
(PID.TID 0000.0001) %MON seaice_area_sd               =   2.2141405012572E-01
(PID.TID 0000.0001) %MON seaice_area_del2             =   3.0348242457298E-04
(PID.TID 0000.0001) %MON seaice_heff_max              =   9.9490124545156E+00
(PID.TID 0000.0001) %MON seaice_heff_min              =   0.0000000000000E+00
(PID.TID 0000.0001) %MON seaice_heff_mean             =   1.4990931554581E-01
(PID.TID 0000.0001) %MON seaice_heff_sd               =   7.2110841034535E-01
(PID.TID 0000.0001) %MON seaice_heff_del2             =   1.4324172453851E-03
(PID.TID 0000.0001) %MON seaice_hsnow_max             =   3.2861885910138E+00
(PID.TID 0000.0001) %MON seaice_hsnow_min             =   0.0000000000000E+00
(PID.TID 0000.0001) %MON seaice_hsnow_mean            =   1.2701658444440E-02
(PID.TID 0000.0001) %MON seaice_hsnow_sd              =   6.8789188642632E-02
(PID.TID 0000.0001) %MON seaice_hsnow_del2            =   3.9781839784252E-04
(PID.TID 0000.0001) // =======================================================
(PID.TID 0000.0001) // End MONITOR SEAICE statistics
(PID.TID 0000.0001) // =======================================================
(PID.TID 0000.0001) // =======================================================
(PID.TID 0000.0001) // Begin MONITOR dynamic field statistics
(PID.TID 0000.0001) // =======================================================
(PID.TID 0000.0001) %MON time_tsnumber                =                174736
(PID.TID 0000.0001) %MON time_secondsf                =   7.8631200000000E+07
(PID.TID 0000.0001) %MON dynstat_eta_max              =   2.5680326218984E+00
(PID.TID 0000.0001) %MON dynstat_eta_min              =  -1.1639254960888E+01
(PID.TID 0000.0001) %MON dynstat_eta_mean             =   6.4361455305392E-02
(PID.TID 0000.0001) %MON dynstat_eta_sd               =   8.5058004057861E-01
(PID.TID 0000.0001) %MON dynstat_eta_del2             =   2.0146294141828E-03
(PID.TID 0000.0001) %MON dynstat_uvel_max             =   1.8877654807748E+00
(PID.TID 0000.0001) %MON dynstat_uvel_min             =  -2.8318339503267E+00
(PID.TID 0000.0001) %MON dynstat_uvel_mean            =   6.6474287090394E-04
(PID.TID 0000.0001) %MON dynstat_uvel_sd              =   2.9676624273068E-02
(PID.TID 0000.0001) %MON dynstat_uvel_del2            =   3.3187702561984E-05
(PID.TID 0000.0001) %MON dynstat_vvel_max             =   2.2372877659333E+00
(PID.TID 0000.0001) %MON dynstat_vvel_min             =  -2.1259220097414E+00
(PID.TID 0000.0001) %MON dynstat_vvel_mean            =   1.4439118761975E-03
(PID.TID 0000.0001) %MON dynstat_vvel_sd              =   3.0358050572248E-02
(PID.TID 0000.0001) %MON dynstat_vvel_del2            =   3.1464939703753E-05
(PID.TID 0000.0001) %MON dynstat_wvel_max             =   7.7394844341587E-03
(PID.TID 0000.0001) %MON dynstat_wvel_min             =  -9.9097892491311E-03
(PID.TID 0000.0001) %MON dynstat_wvel_mean            =  -1.2106290400868E-08
(PID.TID 0000.0001) %MON dynstat_wvel_sd              =   9.5565950605925E-05
(PID.TID 0000.0001) %MON dynstat_wvel_del2            =   2.2270614792835E-07
(PID.TID 0000.0001) %MON dynstat_theta_max            =   3.2521776763974E+01
(PID.TID 0000.0001) %MON dynstat_theta_min            =  -2.0304289702485E+00
(PID.TID 0000.0001) %MON dynstat_theta_mean           =   3.5921353825508E+00
(PID.TID 0000.0001) %MON dynstat_theta_sd             =   4.4421636770445E+00
(PID.TID 0000.0001) %MON dynstat_theta_del2           =   1.2161744337813E-04
(PID.TID 0000.0001) %MON dynstat_salt_max             =   4.0655991996913E+01
(PID.TID 0000.0001) %MON dynstat_salt_min             =   1.6127369623865E+01
(PID.TID 0000.0001) %MON dynstat_salt_mean            =   3.4724824217154E+01
(PID.TID 0000.0001) %MON dynstat_salt_sd              =   3.7965600587039E-01
(PID.TID 0000.0001) %MON dynstat_salt_del2            =   6.9784041002088E-05
(PID.TID 0000.0001) %MON dynstat_sst_max              =   3.2521776763974E+01
(PID.TID 0000.0001) %MON dynstat_sst_min              =  -2.0304289702485E+00
(PID.TID 0000.0001) %MON dynstat_sst_mean             =   1.8180347897927E+01
(PID.TID 0000.0001) %MON dynstat_sst_sd               =   1.0166167544184E+01
(PID.TID 0000.0001) %MON dynstat_sst_del2             =   1.1132690363234E-03
(PID.TID 0000.0001) %MON dynstat_sss_max              =   3.9477761455206E+01
(PID.TID 0000.0001) %MON dynstat_sss_min              =   1.6127369623865E+01
(PID.TID 0000.0001) %MON dynstat_sss_mean             =   3.4647148736710E+01
(PID.TID 0000.0001) %MON dynstat_sss_sd               =   1.2921225066773E+00
(PID.TID 0000.0001) %MON dynstat_sss_del2             =   1.4559658251485E-03
(PID.TID 0000.0001) %MON forcing_qnet_max             =   1.8512998287907E+03
(PID.TID 0000.0001) %MON forcing_qnet_min             =  -1.3416376154500E+03
(PID.TID 0000.0001) %MON forcing_qnet_mean            =  -2.0595192341562E+01
(PID.TID 0000.0001) %MON forcing_qnet_sd              =   2.2283804730086E+02
(PID.TID 0000.0001) %MON forcing_qnet_del2            =   5.0951526524256E-01
(PID.TID 0000.0001) %MON forcing_qsw_max              =   0.0000000000000E+00
(PID.TID 0000.0001) %MON forcing_qsw_min              =  -1.1175030511268E+02
(PID.TID 0000.0001) %MON forcing_qsw_mean             =  -2.1345698729813E+01
(PID.TID 0000.0001) %MON forcing_qsw_sd               =   3.1252836728584E+01
(PID.TID 0000.0001) %MON forcing_qsw_del2             =   2.0944683844102E-02
(PID.TID 0000.0001) %MON forcing_empmr_max            =   2.0355358719826E-02
(PID.TID 0000.0001) %MON forcing_empmr_min            =  -1.1834482103586E-01
(PID.TID 0000.0001) %MON forcing_empmr_mean           =   4.4925400253087E-06
(PID.TID 0000.0001) %MON forcing_empmr_sd             =   4.7721681312685E-04
(PID.TID 0000.0001) %MON forcing_empmr_del2           =   5.3594473135049E-06
(PID.TID 0000.0001) %MON forcing_fu_max               =   1.2793379755879E+00
(PID.TID 0000.0001) %MON forcing_fu_min               =  -1.0313192550786E+00
(PID.TID 0000.0001) %MON forcing_fu_mean              =   9.7104481722709E-03
(PID.TID 0000.0001) %MON forcing_fu_sd                =   1.2066382047991E-01
(PID.TID 0000.0001) %MON forcing_fu_del2              =   1.5874220884679E-04
(PID.TID 0000.0001) %MON forcing_fv_max               =   8.7582169458683E-01
(PID.TID 0000.0001) %MON forcing_fv_min               =  -1.4943099877996E+00
(PID.TID 0000.0001) %MON forcing_fv_mean              =  -1.6522538060324E-03
(PID.TID 0000.0001) %MON forcing_fv_sd                =   1.0643800907149E-01
(PID.TID 0000.0001) %MON forcing_fv_del2              =   1.5685055233704E-04
(PID.TID 0000.0001) %MON trAdv_CFL_u_max              =   2.9209401356710E-02
(PID.TID 0000.0001) %MON trAdv_CFL_v_max              =   2.2774752522715E-02
(PID.TID 0000.0001) %MON trAdv_CFL_w_max              =   1.1395310177863E-01
(PID.TID 0000.0001) %MON advcfl_uvel_max              =   2.9600117788714E-02
(PID.TID 0000.0001) %MON advcfl_vvel_max              =   2.2701363588714E-02
(PID.TID 0000.0001) %MON advcfl_wvel_max              =   1.0745182657012E-01
(PID.TID 0000.0001) %MON advcfl_W_hf_max              =   1.1395310177863E-01
(PID.TID 0000.0001) %MON pe_b_mean                    =   1.8035844801388E-03
(PID.TID 0000.0001) %MON ke_max                       =   2.8255068592895E+00
(PID.TID 0000.0001) %MON ke_mean                      =   8.7028026256435E-04
(PID.TID 0000.0001) %MON ke_vol                       =   1.3350064351420E+18
(PID.TID 0000.0001) %MON vort_r_min                   =  -1.0096687281668E-04
(PID.TID 0000.0001) %MON vort_r_max                   =   1.0772547903527E-04
(PID.TID 0000.0001) %MON vort_a_mean                  =  -1.9725072568048E-05
(PID.TID 0000.0001) %MON vort_a_sd                    =   7.4539050109206E-05
(PID.TID 0000.0001) %MON vort_p_mean                  =  -2.1669077103210E-05
(PID.TID 0000.0001) %MON vort_p_sd                    =   9.3606710178318E-05
(PID.TID 0000.0001) %MON surfExpan_theta_mean         =   4.1085827744193E-06
(PID.TID 0000.0001) %MON surfExpan_salt_mean          =  -5.7811230515080E-06
(PID.TID 0000.0001) // =======================================================
(PID.TID 0000.0001) // End MONITOR dynamic field statistics
(PID.TID 0000.0001) // =======================================================
(PID.TID 0000.0001) // =======================================================
(PID.TID 0000.0001) // Begin MONITOR SEAICE statistics
(PID.TID 0000.0001) // =======================================================
(PID.TID 0000.0001) %MON seaice_tsnumber              =                174736
(PID.TID 0000.0001) %MON seaice_time_sec              =   7.8631200000000E+07
(PID.TID 0000.0001) %MON seaice_uice_max              =   1.4442506165732E+00
(PID.TID 0000.0001) %MON seaice_uice_min              =  -1.9071728716342E+00
(PID.TID 0000.0001) %MON seaice_uice_mean             =  -4.0652246810195E-04
(PID.TID 0000.0001) %MON seaice_uice_sd               =   1.5340345084501E-01
(PID.TID 0000.0001) %MON seaice_uice_del2             =   3.3687367350871E-04
(PID.TID 0000.0001) %MON seaice_vice_max              =   1.4754392493264E+00
(PID.TID 0000.0001) %MON seaice_vice_min              =  -1.4980705001368E+00
(PID.TID 0000.0001) %MON seaice_vice_mean             =  -2.3615062816376E-02
(PID.TID 0000.0001) %MON seaice_vice_sd               =   1.6322072474185E-01
(PID.TID 0000.0001) %MON seaice_vice_del2             =   3.1717650218628E-04
(PID.TID 0000.0001) %MON seaice_area_max              =   1.0042188098652E+00
(PID.TID 0000.0001) %MON seaice_area_min              =   0.0000000000000E+00
(PID.TID 0000.0001) %MON seaice_area_mean             =   5.7338904005987E-02
(PID.TID 0000.0001) %MON seaice_area_sd               =   2.2140812591625E-01
(PID.TID 0000.0001) %MON seaice_area_del2             =   3.0324983935390E-04
(PID.TID 0000.0001) %MON seaice_heff_max              =   9.9490115767285E+00
(PID.TID 0000.0001) %MON seaice_heff_min              =   0.0000000000000E+00
(PID.TID 0000.0001) %MON seaice_heff_mean             =   1.4990550271744E-01
(PID.TID 0000.0001) %MON seaice_heff_sd               =   7.2109612588133E-01
(PID.TID 0000.0001) %MON seaice_heff_del2             =   1.4315635691242E-03
(PID.TID 0000.0001) %MON seaice_hsnow_max             =   3.2861886155150E+00
(PID.TID 0000.0001) %MON seaice_hsnow_min             =   0.0000000000000E+00
(PID.TID 0000.0001) %MON seaice_hsnow_mean            =   1.2700757472679E-02
(PID.TID 0000.0001) %MON seaice_hsnow_sd              =   6.8780571215416E-02
(PID.TID 0000.0001) %MON seaice_hsnow_del2            =   3.9752738693385E-04
(PID.TID 0000.0001) // =======================================================
(PID.TID 0000.0001) // End MONITOR SEAICE statistics
(PID.TID 0000.0001) // =======================================================
(PID.TID 0000.0001) // =======================================================
(PID.TID 0000.0001) // Begin MONITOR dynamic field statistics
(PID.TID 0000.0001) // =======================================================
(PID.TID 0000.0001) %MON time_tsnumber                =                174737
(PID.TID 0000.0001) %MON time_secondsf                =   7.8631650000000E+07
(PID.TID 0000.0001) %MON dynstat_eta_max              =   2.6346345477486E+00
(PID.TID 0000.0001) %MON dynstat_eta_min              =  -1.1604657000576E+01
(PID.TID 0000.0001) %MON dynstat_eta_mean             =   6.4241521133741E-02
(PID.TID 0000.0001) %MON dynstat_eta_sd               =   8.5037650136135E-01
(PID.TID 0000.0001) %MON dynstat_eta_del2             =   2.0147076842279E-03
(PID.TID 0000.0001) %MON dynstat_uvel_max             =   1.9033133720006E+00
(PID.TID 0000.0001) %MON dynstat_uvel_min             =  -2.8372483453846E+00
(PID.TID 0000.0001) %MON dynstat_uvel_mean            =   6.8675976837991E-04
(PID.TID 0000.0001) %MON dynstat_uvel_sd              =   2.9638561677941E-02
(PID.TID 0000.0001) %MON dynstat_uvel_del2            =   3.3268295392393E-05
(PID.TID 0000.0001) %MON dynstat_vvel_max             =   2.2410897674956E+00
(PID.TID 0000.0001) %MON dynstat_vvel_min             =  -2.1197357616001E+00
(PID.TID 0000.0001) %MON dynstat_vvel_mean            =   1.4942734649283E-03
(PID.TID 0000.0001) %MON dynstat_vvel_sd              =   3.0365466475837E-02
(PID.TID 0000.0001) %MON dynstat_vvel_del2            =   3.1523564683688E-05
(PID.TID 0000.0001) %MON dynstat_wvel_max             =   7.7243524792516E-03
(PID.TID 0000.0001) %MON dynstat_wvel_min             =  -9.8881505562060E-03
(PID.TID 0000.0001) %MON dynstat_wvel_mean            =   5.4140499982228E-09
(PID.TID 0000.0001) %MON dynstat_wvel_sd              =   9.5734665506141E-05
(PID.TID 0000.0001) %MON dynstat_wvel_del2            =   2.2333725615658E-07
(PID.TID 0000.0001) %MON dynstat_theta_max            =   3.2520606219341E+01
(PID.TID 0000.0001) %MON dynstat_theta_min            =  -2.0307326134201E+00
(PID.TID 0000.0001) %MON dynstat_theta_mean           =   3.5921353237892E+00
(PID.TID 0000.0001) %MON dynstat_theta_sd             =   4.4421650832946E+00
(PID.TID 0000.0001) %MON dynstat_theta_del2           =   1.2167988770309E-04
(PID.TID 0000.0001) %MON dynstat_salt_max             =   4.0655991965954E+01
(PID.TID 0000.0001) %MON dynstat_salt_min             =   1.6125716972415E+01
(PID.TID 0000.0001) %MON dynstat_salt_mean            =   3.4724823495371E+01
(PID.TID 0000.0001) %MON dynstat_salt_sd              =   3.7965728820022E-01
(PID.TID 0000.0001) %MON dynstat_salt_del2            =   6.9714366546973E-05
(PID.TID 0000.0001) %MON dynstat_sst_max              =   3.2520606219341E+01
(PID.TID 0000.0001) %MON dynstat_sst_min              =  -2.0307326134201E+00
(PID.TID 0000.0001) %MON dynstat_sst_mean             =   1.8180477118763E+01
(PID.TID 0000.0001) %MON dynstat_sst_sd               =   1.0166465680119E+01
(PID.TID 0000.0001) %MON dynstat_sst_del2             =   1.1129139650575E-03
(PID.TID 0000.0001) %MON dynstat_sss_max              =   3.9477361607502E+01
(PID.TID 0000.0001) %MON dynstat_sss_min              =   1.6125716972415E+01
(PID.TID 0000.0001) %MON dynstat_sss_mean             =   3.4647084301188E+01
(PID.TID 0000.0001) %MON dynstat_sss_sd               =   1.2922483063197E+00
(PID.TID 0000.0001) %MON dynstat_sss_del2             =   1.4564755982813E-03
(PID.TID 0000.0001) %MON forcing_qnet_max             =   2.3229360351562E+03
(PID.TID 0000.0001) %MON forcing_qnet_min             =  -1.9281120605469E+03
(PID.TID 0000.0001) %MON forcing_qnet_mean            =  -2.0556865850366E+01
(PID.TID 0000.0001) %MON forcing_qnet_sd              =   2.2375753448809E+02
(PID.TID 0000.0001) %MON forcing_qnet_del2            =   5.3826184260256E-01
(PID.TID 0000.0001) %MON forcing_qsw_max              =   0.0000000000000E+00
(PID.TID 0000.0001) %MON forcing_qsw_min              =  -1.1156469777693E+02
(PID.TID 0000.0001) %MON forcing_qsw_mean             =  -2.1432787826853E+01
(PID.TID 0000.0001) %MON forcing_qsw_sd               =   3.1357740241977E+01
(PID.TID 0000.0001) %MON forcing_qsw_del2             =   2.0901251394559E-02
(PID.TID 0000.0001) %MON forcing_empmr_max            =   2.0422361791134E-02
(PID.TID 0000.0001) %MON forcing_empmr_min            =  -1.2036386877298E-01
(PID.TID 0000.0001) %MON forcing_empmr_mean           =   4.2120337039232E-06
(PID.TID 0000.0001) %MON forcing_empmr_sd             =   4.7921849424719E-04
(PID.TID 0000.0001) %MON forcing_empmr_del2           =   5.3829654968562E-06
(PID.TID 0000.0001) %MON forcing_fu_max               =   1.2571469155769E+00
(PID.TID 0000.0001) %MON forcing_fu_min               =  -8.7047339783851E-01
(PID.TID 0000.0001) %MON forcing_fu_mean              =   9.6857346596889E-03
(PID.TID 0000.0001) %MON forcing_fu_sd                =   1.2069950545230E-01
(PID.TID 0000.0001) %MON forcing_fu_del2              =   1.5889656937184E-04
(PID.TID 0000.0001) %MON forcing_fv_max               =   8.7079331787062E-01
(PID.TID 0000.0001) %MON forcing_fv_min               =  -1.4966358960001E+00
(PID.TID 0000.0001) %MON forcing_fv_mean              =  -1.6236630514517E-03
(PID.TID 0000.0001) %MON forcing_fv_sd                =   1.0643043954561E-01
(PID.TID 0000.0001) %MON forcing_fv_del2              =   1.5659999214535E-04
(PID.TID 0000.0001) %MON trAdv_CFL_u_max              =   2.9265248995069E-02
(PID.TID 0000.0001) %MON trAdv_CFL_v_max              =   2.2813455476349E-02
(PID.TID 0000.0001) %MON trAdv_CFL_w_max              =   1.1312530250375E-01
(PID.TID 0000.0001) %MON advcfl_uvel_max              =   2.9656712467032E-02
(PID.TID 0000.0001) %MON advcfl_vvel_max              =   2.2739941826679E-02
(PID.TID 0000.0001) %MON advcfl_wvel_max              =   1.0662922336868E-01
(PID.TID 0000.0001) %MON advcfl_W_hf_max              =   1.1312530250375E-01
(PID.TID 0000.0001) %MON pe_b_mean                    =   1.7982369349129E-03
(PID.TID 0000.0001) %MON ke_max                       =   2.8387339603506E+00
(PID.TID 0000.0001) %MON ke_mean                      =   8.6949467382508E-04
(PID.TID 0000.0001) %MON ke_vol                       =   1.3350064351420E+18
(PID.TID 0000.0001) %MON vort_r_min                   =  -1.0114085651049E-04
(PID.TID 0000.0001) %MON vort_r_max                   =   1.0799253949032E-04
(PID.TID 0000.0001) %MON vort_a_mean                  =  -1.9725072700923E-05
(PID.TID 0000.0001) %MON vort_a_sd                    =   7.4539058087810E-05
(PID.TID 0000.0001) %MON vort_p_mean                  =  -2.1669077249180E-05
(PID.TID 0000.0001) %MON vort_p_sd                    =   9.3606736242029E-05
(PID.TID 0000.0001) %MON surfExpan_theta_mean         =   3.9558065719071E-06
(PID.TID 0000.0001) %MON surfExpan_salt_mean          =  -5.0080723536323E-06
(PID.TID 0000.0001) // =======================================================
(PID.TID 0000.0001) // End MONITOR dynamic field statistics
(PID.TID 0000.0001) // =======================================================
(PID.TID 0000.0001) // =======================================================
(PID.TID 0000.0001) // Begin MONITOR SEAICE statistics
(PID.TID 0000.0001) // =======================================================
(PID.TID 0000.0001) %MON seaice_tsnumber              =                174737
(PID.TID 0000.0001) %MON seaice_time_sec              =   7.8631650000000E+07
(PID.TID 0000.0001) %MON seaice_uice_max              =   1.4453778011978E+00
(PID.TID 0000.0001) %MON seaice_uice_min              =  -1.9405004010656E+00
(PID.TID 0000.0001) %MON seaice_uice_mean             =  -4.5028071405092E-04
(PID.TID 0000.0001) %MON seaice_uice_sd               =   1.5333175499456E-01
(PID.TID 0000.0001) %MON seaice_uice_del2             =   3.3698295568683E-04
(PID.TID 0000.0001) %MON seaice_vice_max              =   1.4917367504536E+00
(PID.TID 0000.0001) %MON seaice_vice_min              =  -1.4917536781778E+00
(PID.TID 0000.0001) %MON seaice_vice_mean             =  -2.3527539422675E-02
(PID.TID 0000.0001) %MON seaice_vice_sd               =   1.6324793726315E-01
(PID.TID 0000.0001) %MON seaice_vice_del2             =   3.1727069065480E-04
(PID.TID 0000.0001) %MON seaice_area_max              =   1.0042739372762E+00
(PID.TID 0000.0001) %MON seaice_area_min              =   0.0000000000000E+00
(PID.TID 0000.0001) %MON seaice_area_mean             =   5.7340722693865E-02
(PID.TID 0000.0001) %MON seaice_area_sd               =   2.2140221124089E-01
(PID.TID 0000.0001) %MON seaice_area_del2             =   3.0302341173927E-04
(PID.TID 0000.0001) %MON seaice_heff_max              =   9.9490049527740E+00
(PID.TID 0000.0001) %MON seaice_heff_min              =   0.0000000000000E+00
(PID.TID 0000.0001) %MON seaice_heff_mean             =   1.4990169700434E-01
(PID.TID 0000.0001) %MON seaice_heff_sd               =   7.2108390744622E-01
(PID.TID 0000.0001) %MON seaice_heff_del2             =   1.4307272874314E-03
(PID.TID 0000.0001) %MON seaice_hsnow_max             =   3.2861867276684E+00
(PID.TID 0000.0001) %MON seaice_hsnow_min             =   0.0000000000000E+00
(PID.TID 0000.0001) %MON seaice_hsnow_mean            =   1.2699866714347E-02
(PID.TID 0000.0001) %MON seaice_hsnow_sd              =   6.8772069327783E-02
(PID.TID 0000.0001) %MON seaice_hsnow_del2            =   3.9724159700953E-04
(PID.TID 0000.0001) // =======================================================
(PID.TID 0000.0001) // End MONITOR SEAICE statistics
(PID.TID 0000.0001) // =======================================================
(PID.TID 0000.0001) // =======================================================
(PID.TID 0000.0001) // Begin MONITOR dynamic field statistics
(PID.TID 0000.0001) // =======================================================
(PID.TID 0000.0001) %MON time_tsnumber                =                174738
(PID.TID 0000.0001) %MON time_secondsf                =   7.8632100000000E+07
(PID.TID 0000.0001) %MON dynstat_eta_max              =   2.6816497077946E+00
(PID.TID 0000.0001) %MON dynstat_eta_min              =  -1.1566031306256E+01
(PID.TID 0000.0001) %MON dynstat_eta_mean             =   6.4132122775826E-02
(PID.TID 0000.0001) %MON dynstat_eta_sd               =   8.5014804521796E-01
(PID.TID 0000.0001) %MON dynstat_eta_del2             =   2.0147541732044E-03
(PID.TID 0000.0001) %MON dynstat_uvel_max             =   1.9185492630651E+00
(PID.TID 0000.0001) %MON dynstat_uvel_min             =  -2.8421989526724E+00
(PID.TID 0000.0001) %MON dynstat_uvel_mean            =   7.1373504586943E-04
(PID.TID 0000.0001) %MON dynstat_uvel_sd              =   2.9601712901344E-02
(PID.TID 0000.0001) %MON dynstat_uvel_del2            =   3.3347798611164E-05
(PID.TID 0000.0001) %MON dynstat_vvel_max             =   2.2424316927077E+00
(PID.TID 0000.0001) %MON dynstat_vvel_min             =  -2.1130846837592E+00
(PID.TID 0000.0001) %MON dynstat_vvel_mean            =   1.5446383194629E-03
(PID.TID 0000.0001) %MON dynstat_vvel_sd              =   3.0373633747061E-02
(PID.TID 0000.0001) %MON dynstat_vvel_del2            =   3.1582682054286E-05
(PID.TID 0000.0001) %MON dynstat_wvel_max             =   7.7088161778601E-03
(PID.TID 0000.0001) %MON dynstat_wvel_min             =  -9.8669193560354E-03
(PID.TID 0000.0001) %MON dynstat_wvel_mean            =   2.4141542029154E-08
(PID.TID 0000.0001) %MON dynstat_wvel_sd              =   9.5904676439267E-05
(PID.TID 0000.0001) %MON dynstat_wvel_del2            =   2.2396940361482E-07
(PID.TID 0000.0001) %MON dynstat_theta_max            =   3.2519220595055E+01
(PID.TID 0000.0001) %MON dynstat_theta_min            =  -2.0310356862568E+00
(PID.TID 0000.0001) %MON dynstat_theta_mean           =   3.5921353025378E+00
(PID.TID 0000.0001) %MON dynstat_theta_sd             =   4.4421665936646E+00
(PID.TID 0000.0001) %MON dynstat_theta_del2           =   1.2174172060670E-04
(PID.TID 0000.0001) %MON dynstat_salt_max             =   4.0655991939648E+01
(PID.TID 0000.0001) %MON dynstat_salt_min             =   1.6124115042009E+01
(PID.TID 0000.0001) %MON dynstat_salt_mean            =   3.4724822776513E+01
(PID.TID 0000.0001) %MON dynstat_salt_sd              =   3.7965854482860E-01
(PID.TID 0000.0001) %MON dynstat_salt_del2            =   6.9644178157454E-05
(PID.TID 0000.0001) %MON dynstat_sst_max              =   3.2519220595055E+01
(PID.TID 0000.0001) %MON dynstat_sst_min              =  -2.0310356862568E+00
(PID.TID 0000.0001) %MON dynstat_sst_mean             =   1.8180621441656E+01
(PID.TID 0000.0001) %MON dynstat_sst_sd               =   1.0166772452917E+01
(PID.TID 0000.0001) %MON dynstat_sst_del2             =   1.1125394772642E-03
(PID.TID 0000.0001) %MON dynstat_sss_max              =   3.9476868087028E+01
(PID.TID 0000.0001) %MON dynstat_sss_min              =   1.6124115042009E+01
(PID.TID 0000.0001) %MON dynstat_sss_mean             =   3.4647019426177E+01
(PID.TID 0000.0001) %MON dynstat_sss_sd               =   1.2923708823787E+00
(PID.TID 0000.0001) %MON dynstat_sss_del2             =   1.4569408258636E-03
(PID.TID 0000.0001) %MON forcing_qnet_max             =   1.9467802845568E+03
(PID.TID 0000.0001) %MON forcing_qnet_min             =  -2.5992264199063E+03
(PID.TID 0000.0001) %MON forcing_qnet_mean            =  -2.1101636314119E+01
(PID.TID 0000.0001) %MON forcing_qnet_sd              =   2.2359777727486E+02
(PID.TID 0000.0001) %MON forcing_qnet_del2            =   5.1637559251799E-01
(PID.TID 0000.0001) %MON forcing_qsw_max              =   0.0000000000000E+00
(PID.TID 0000.0001) %MON forcing_qsw_min              =  -1.1163600295276E+02
(PID.TID 0000.0001) %MON forcing_qsw_mean             =  -2.1506185253573E+01
(PID.TID 0000.0001) %MON forcing_qsw_sd               =   3.1453088194600E+01
(PID.TID 0000.0001) %MON forcing_qsw_del2             =   2.0851598408924E-02
(PID.TID 0000.0001) %MON forcing_empmr_max            =   2.0520832389593E-02
(PID.TID 0000.0001) %MON forcing_empmr_min            =  -1.2292142212391E-01
(PID.TID 0000.0001) %MON forcing_empmr_mean           =   4.4231405999550E-06
(PID.TID 0000.0001) %MON forcing_empmr_sd             =   4.8132524787659E-04
(PID.TID 0000.0001) %MON forcing_empmr_del2           =   5.4279514901031E-06
(PID.TID 0000.0001) %MON forcing_fu_max               =   1.2309111128718E+00
(PID.TID 0000.0001) %MON forcing_fu_min               =  -7.1931502223015E-01
(PID.TID 0000.0001) %MON forcing_fu_mean              =   9.6557643198160E-03
(PID.TID 0000.0001) %MON forcing_fu_sd                =   1.2070036106367E-01
(PID.TID 0000.0001) %MON forcing_fu_del2              =   1.5893130012875E-04
(PID.TID 0000.0001) %MON forcing_fv_max               =   8.6727075415951E-01
(PID.TID 0000.0001) %MON forcing_fv_min               =  -1.4992056199172E+00
(PID.TID 0000.0001) %MON forcing_fv_mean              =  -1.5919807566880E-03
(PID.TID 0000.0001) %MON forcing_fv_sd                =   1.0642635943411E-01
(PID.TID 0000.0001) %MON forcing_fv_del2              =   1.5641330278723E-04
(PID.TID 0000.0001) %MON trAdv_CFL_u_max              =   2.9316312820762E-02
(PID.TID 0000.0001) %MON trAdv_CFL_v_max              =   2.2827115773016E-02
(PID.TID 0000.0001) %MON trAdv_CFL_w_max              =   1.1230442007200E-01
(PID.TID 0000.0001) %MON advcfl_uvel_max              =   2.9708459342526E-02
(PID.TID 0000.0001) %MON advcfl_vvel_max              =   2.2753558104662E-02
(PID.TID 0000.0001) %MON advcfl_wvel_max              =   1.0581479224844E-01
(PID.TID 0000.0001) %MON advcfl_W_hf_max              =   1.1230442007200E-01
(PID.TID 0000.0001) %MON pe_b_mean                    =   1.7931436682198E-03
(PID.TID 0000.0001) %MON ke_max                       =   2.8509636318394E+00
(PID.TID 0000.0001) %MON ke_mean                      =   8.6877351346950E-04
(PID.TID 0000.0001) %MON ke_vol                       =   1.3350064351420E+18
(PID.TID 0000.0001) %MON vort_r_min                   =  -1.0129632773265E-04
(PID.TID 0000.0001) %MON vort_r_max                   =   1.0823940465008E-04
(PID.TID 0000.0001) %MON vort_a_mean                  =  -1.9725072797212E-05
(PID.TID 0000.0001) %MON vort_a_sd                    =   7.4539066578917E-05
(PID.TID 0000.0001) %MON vort_p_mean                  =  -2.1669077354959E-05
(PID.TID 0000.0001) %MON vort_p_sd                    =   9.3606765856400E-05
(PID.TID 0000.0001) %MON surfExpan_theta_mean         =   3.8607557476634E-06
(PID.TID 0000.0001) %MON surfExpan_salt_mean          =  -4.1847671102595E-06
(PID.TID 0000.0001) // =======================================================
(PID.TID 0000.0001) // End MONITOR dynamic field statistics
(PID.TID 0000.0001) // =======================================================
(PID.TID 0000.0001) // =======================================================
(PID.TID 0000.0001) // Begin MONITOR SEAICE statistics
(PID.TID 0000.0001) // =======================================================
(PID.TID 0000.0001) %MON seaice_tsnumber              =                174738
(PID.TID 0000.0001) %MON seaice_time_sec              =   7.8632100000000E+07
(PID.TID 0000.0001) %MON seaice_uice_max              =   1.4463859524906E+00
(PID.TID 0000.0001) %MON seaice_uice_min              =  -1.9723213736801E+00
(PID.TID 0000.0001) %MON seaice_uice_mean             =  -4.8606927205960E-04
(PID.TID 0000.0001) %MON seaice_uice_sd               =   1.5326291463316E-01
(PID.TID 0000.0001) %MON seaice_uice_del2             =   3.3720836825356E-04
(PID.TID 0000.0001) %MON seaice_vice_max              =   1.4994952688745E+00
(PID.TID 0000.0001) %MON seaice_vice_min              =  -1.4848800006533E+00
(PID.TID 0000.0001) %MON seaice_vice_mean             =  -2.3437448486240E-02
(PID.TID 0000.0001) %MON seaice_vice_sd               =   1.6328379344323E-01
(PID.TID 0000.0001) %MON seaice_vice_del2             =   3.1744241887698E-04
(PID.TID 0000.0001) %MON seaice_area_max              =   1.0043304749354E+00
(PID.TID 0000.0001) %MON seaice_area_min              =   0.0000000000000E+00
(PID.TID 0000.0001) %MON seaice_area_mean             =   5.7342552160281E-02
(PID.TID 0000.0001) %MON seaice_area_sd               =   2.2139631377397E-01
(PID.TID 0000.0001) %MON seaice_area_del2             =   3.0280153480624E-04
(PID.TID 0000.0001) %MON seaice_heff_max              =   9.9489992813226E+00
(PID.TID 0000.0001) %MON seaice_heff_min              =   0.0000000000000E+00
(PID.TID 0000.0001) %MON seaice_heff_mean             =   1.4989790376706E-01
(PID.TID 0000.0001) %MON seaice_heff_sd               =   7.2107177460498E-01
(PID.TID 0000.0001) %MON seaice_heff_del2             =   1.4299065334619E-03
(PID.TID 0000.0001) %MON seaice_hsnow_max             =   3.2861845924317E+00
(PID.TID 0000.0001) %MON seaice_hsnow_min             =   0.0000000000000E+00
(PID.TID 0000.0001) %MON seaice_hsnow_mean            =   1.2698975255079E-02
(PID.TID 0000.0001) %MON seaice_hsnow_sd              =   6.8763630721549E-02
(PID.TID 0000.0001) %MON seaice_hsnow_del2            =   3.9696058015013E-04
(PID.TID 0000.0001) // =======================================================
(PID.TID 0000.0001) // End MONITOR SEAICE statistics
(PID.TID 0000.0001) // =======================================================
(PID.TID 0000.0001) // =======================================================
(PID.TID 0000.0001) // Begin MONITOR dynamic field statistics
(PID.TID 0000.0001) // =======================================================
(PID.TID 0000.0001) %MON time_tsnumber                =                174739
(PID.TID 0000.0001) %MON time_secondsf                =   7.8632550000000E+07
(PID.TID 0000.0001) %MON dynstat_eta_max              =   2.7091293004774E+00
(PID.TID 0000.0001) %MON dynstat_eta_min              =  -1.1524487111935E+01
(PID.TID 0000.0001) %MON dynstat_eta_mean             =   6.4034777805835E-02
(PID.TID 0000.0001) %MON dynstat_eta_sd               =   8.4989648970350E-01
(PID.TID 0000.0001) %MON dynstat_eta_del2             =   2.0147582134528E-03
(PID.TID 0000.0001) %MON dynstat_uvel_max             =   1.9334620503847E+00
(PID.TID 0000.0001) %MON dynstat_uvel_min             =  -2.8466947558835E+00
(PID.TID 0000.0001) %MON dynstat_uvel_mean            =   7.4571222172261E-04
(PID.TID 0000.0001) %MON dynstat_uvel_sd              =   2.9566055344644E-02
(PID.TID 0000.0001) %MON dynstat_uvel_del2            =   3.3426909193036E-05
(PID.TID 0000.0001) %MON dynstat_vvel_max             =   2.2413597348301E+00
(PID.TID 0000.0001) %MON dynstat_vvel_min             =  -2.1059887823915E+00
(PID.TID 0000.0001) %MON dynstat_vvel_mean            =   1.5948513208290E-03
(PID.TID 0000.0001) %MON dynstat_vvel_sd              =   3.0382318550568E-02
(PID.TID 0000.0001) %MON dynstat_vvel_del2            =   3.1641784567642E-05
(PID.TID 0000.0001) %MON dynstat_wvel_max             =   7.6925348494548E-03
(PID.TID 0000.0001) %MON dynstat_wvel_min             =  -9.8458250391330E-03
(PID.TID 0000.0001) %MON dynstat_wvel_mean            =   4.4757330806167E-08
(PID.TID 0000.0001) %MON dynstat_wvel_sd              =   9.6076950834534E-05
(PID.TID 0000.0001) %MON dynstat_wvel_del2            =   2.2460238639409E-07
(PID.TID 0000.0001) %MON dynstat_theta_max            =   3.2517641834886E+01
(PID.TID 0000.0001) %MON dynstat_theta_min            =  -2.0313386780765E+00
(PID.TID 0000.0001) %MON dynstat_theta_mean           =   3.5921352889600E+00
(PID.TID 0000.0001) %MON dynstat_theta_sd             =   4.4421680892188E+00
(PID.TID 0000.0001) %MON dynstat_theta_del2           =   1.2180369520129E-04
(PID.TID 0000.0001) %MON dynstat_salt_max             =   4.0655991918045E+01
(PID.TID 0000.0001) %MON dynstat_salt_min             =   1.6122562270278E+01
(PID.TID 0000.0001) %MON dynstat_salt_mean            =   3.4724822060525E+01
(PID.TID 0000.0001) %MON dynstat_salt_sd              =   3.7965977893068E-01
(PID.TID 0000.0001) %MON dynstat_salt_del2            =   6.9575540140302E-05
(PID.TID 0000.0001) %MON dynstat_sst_max              =   3.2517641834886E+01
(PID.TID 0000.0001) %MON dynstat_sst_min              =  -2.0313386780765E+00
(PID.TID 0000.0001) %MON dynstat_sst_mean             =   1.8180748142313E+01
(PID.TID 0000.0001) %MON dynstat_sst_sd               =   1.0167065455740E+01
(PID.TID 0000.0001) %MON dynstat_sst_del2             =   1.1122529796950E-03
(PID.TID 0000.0001) %MON dynstat_sss_max              =   3.9476332083343E+01
(PID.TID 0000.0001) %MON dynstat_sss_min              =   1.6122562270278E+01
(PID.TID 0000.0001) %MON dynstat_sss_mean             =   3.4646957025386E+01
(PID.TID 0000.0001) %MON dynstat_sss_sd               =   1.2924938465339E+00
(PID.TID 0000.0001) %MON dynstat_sss_del2             =   1.4574646015223E-03
(PID.TID 0000.0001) %MON forcing_qnet_max             =   1.9563707602046E+03
(PID.TID 0000.0001) %MON forcing_qnet_min             =  -2.0790903320312E+03
(PID.TID 0000.0001) %MON forcing_qnet_mean            =  -2.0938901211755E+01
(PID.TID 0000.0001) %MON forcing_qnet_sd              =   2.2444332996254E+02
(PID.TID 0000.0001) %MON forcing_qnet_del2            =   5.1446417305516E-01
(PID.TID 0000.0001) %MON forcing_qsw_max              =   0.0000000000000E+00
(PID.TID 0000.0001) %MON forcing_qsw_min              =  -1.1177740778296E+02
(PID.TID 0000.0001) %MON forcing_qsw_mean             =  -2.1565552980096E+01
(PID.TID 0000.0001) %MON forcing_qsw_sd               =   3.1538635048395E+01
(PID.TID 0000.0001) %MON forcing_qsw_del2             =   2.0795971298138E-02
(PID.TID 0000.0001) %MON forcing_empmr_max            =   2.0621743053198E-02
(PID.TID 0000.0001) %MON forcing_empmr_min            =  -1.2699717283249E-01
(PID.TID 0000.0001) %MON forcing_empmr_mean           =   4.2346838080706E-06
(PID.TID 0000.0001) %MON forcing_empmr_sd             =   4.8536502193273E-04
(PID.TID 0000.0001) %MON forcing_empmr_del2           =   5.4693069673229E-06
(PID.TID 0000.0001) %MON forcing_fu_max               =   1.2006598415171E+00
(PID.TID 0000.0001) %MON forcing_fu_min               =  -7.1134161949158E-01
(PID.TID 0000.0001) %MON forcing_fu_mean              =   9.6311468676650E-03
(PID.TID 0000.0001) %MON forcing_fu_sd                =   1.2072061266505E-01
(PID.TID 0000.0001) %MON forcing_fu_del2              =   1.5900150765950E-04
(PID.TID 0000.0001) %MON forcing_fv_max               =   8.6513571361964E-01
(PID.TID 0000.0001) %MON forcing_fv_min               =  -1.5018211205267E+00
(PID.TID 0000.0001) %MON forcing_fv_mean              =  -1.5567213912639E-03
(PID.TID 0000.0001) %MON forcing_fv_sd                =   1.0643707974414E-01
(PID.TID 0000.0001) %MON forcing_fv_del2              =   1.5627622160516E-04
(PID.TID 0000.0001) %MON trAdv_CFL_u_max              =   2.9362685497521E-02
(PID.TID 0000.0001) %MON trAdv_CFL_v_max              =   2.2816203642825E-02
(PID.TID 0000.0001) %MON trAdv_CFL_w_max              =   1.1149187902582E-01
(PID.TID 0000.0001) %MON advcfl_uvel_max              =   2.9755452318434E-02
(PID.TID 0000.0001) %MON advcfl_vvel_max              =   2.2742681137514E-02
(PID.TID 0000.0001) %MON advcfl_wvel_max              =   1.0500998630299E-01
(PID.TID 0000.0001) %MON advcfl_W_hf_max              =   1.1149187902582E-01
(PID.TID 0000.0001) %MON pe_b_mean                    =   1.7883522769360E-03
(PID.TID 0000.0001) %MON ke_max                       =   2.8622083560616E+00
(PID.TID 0000.0001) %MON ke_mean                      =   8.6810935301749E-04
(PID.TID 0000.0001) %MON ke_vol                       =   1.3350064351420E+18
(PID.TID 0000.0001) %MON vort_r_min                   =  -1.0143305938924E-04
(PID.TID 0000.0001) %MON vort_r_max                   =   1.0846645124580E-04
(PID.TID 0000.0001) %MON vort_a_mean                  =  -1.9725072857689E-05
(PID.TID 0000.0001) %MON vort_a_sd                    =   7.4539075535046E-05
(PID.TID 0000.0001) %MON vort_p_mean                  =  -2.1669077421396E-05
(PID.TID 0000.0001) %MON vort_p_sd                    =   9.3606798677120E-05
(PID.TID 0000.0001) %MON surfExpan_theta_mean         =   3.8413562867316E-06
(PID.TID 0000.0001) %MON surfExpan_salt_mean          =  -3.2735717685606E-06
(PID.TID 0000.0001) // =======================================================
(PID.TID 0000.0001) // End MONITOR dynamic field statistics
(PID.TID 0000.0001) // =======================================================
(PID.TID 0000.0001) // =======================================================
(PID.TID 0000.0001) // Begin MONITOR SEAICE statistics
(PID.TID 0000.0001) // =======================================================
(PID.TID 0000.0001) %MON seaice_tsnumber              =                174739
(PID.TID 0000.0001) %MON seaice_time_sec              =   7.8632550000000E+07
(PID.TID 0000.0001) %MON seaice_uice_max              =   1.4473360776519E+00
(PID.TID 0000.0001) %MON seaice_uice_min              =  -2.0023089251564E+00
(PID.TID 0000.0001) %MON seaice_uice_mean             =  -5.3041197723032E-04
(PID.TID 0000.0001) %MON seaice_uice_sd               =   1.5321630625539E-01
(PID.TID 0000.0001) %MON seaice_uice_del2             =   3.3743498409046E-04
(PID.TID 0000.0001) %MON seaice_vice_max              =   1.4985565656215E+00
(PID.TID 0000.0001) %MON seaice_vice_min              =  -1.4774290345787E+00
(PID.TID 0000.0001) %MON seaice_vice_mean             =  -2.3348046930386E-02
(PID.TID 0000.0001) %MON seaice_vice_sd               =   1.6333166573669E-01
(PID.TID 0000.0001) %MON seaice_vice_del2             =   3.1769797778698E-04
(PID.TID 0000.0001) %MON seaice_area_max              =   1.0043853545996E+00
(PID.TID 0000.0001) %MON seaice_area_min              =   0.0000000000000E+00
(PID.TID 0000.0001) %MON seaice_area_mean             =   5.7344393497752E-02
(PID.TID 0000.0001) %MON seaice_area_sd               =   2.2139042106870E-01
(PID.TID 0000.0001) %MON seaice_area_del2             =   3.0258355772144E-04
(PID.TID 0000.0001) %MON seaice_heff_max              =   9.9489907377185E+00
(PID.TID 0000.0001) %MON seaice_heff_min              =   0.0000000000000E+00
(PID.TID 0000.0001) %MON seaice_heff_mean             =   1.4989413198210E-01
(PID.TID 0000.0001) %MON seaice_heff_sd               =   7.2105974875533E-01
(PID.TID 0000.0001) %MON seaice_heff_del2             =   1.4291010446499E-03
(PID.TID 0000.0001) %MON seaice_hsnow_max             =   3.2861819827560E+00
(PID.TID 0000.0001) %MON seaice_hsnow_min             =   0.0000000000000E+00
(PID.TID 0000.0001) %MON seaice_hsnow_mean            =   1.2698099701413E-02
(PID.TID 0000.0001) %MON seaice_hsnow_sd              =   6.8755368506774E-02
(PID.TID 0000.0001) %MON seaice_hsnow_del2            =   3.9668420099838E-04
(PID.TID 0000.0001) // =======================================================
(PID.TID 0000.0001) // End MONITOR SEAICE statistics
(PID.TID 0000.0001) // =======================================================
(PID.TID 0000.0001) // =======================================================
(PID.TID 0000.0001) // Begin MONITOR dynamic field statistics
(PID.TID 0000.0001) // =======================================================
(PID.TID 0000.0001) %MON time_tsnumber                =                174740
(PID.TID 0000.0001) %MON time_secondsf                =   7.8633000000000E+07
(PID.TID 0000.0001) %MON dynstat_eta_max              =   2.7267365988237E+00
(PID.TID 0000.0001) %MON dynstat_eta_min              =  -1.1481130411574E+01
(PID.TID 0000.0001) %MON dynstat_eta_mean             =   6.3950686328327E-02
(PID.TID 0000.0001) %MON dynstat_eta_sd               =   8.4962415062195E-01
(PID.TID 0000.0001) %MON dynstat_eta_del2             =   2.0147146752752E-03
(PID.TID 0000.0001) %MON dynstat_uvel_max             =   1.9480399475365E+00
(PID.TID 0000.0001) %MON dynstat_uvel_min             =  -2.8507605700098E+00
(PID.TID 0000.0001) %MON dynstat_uvel_mean            =   7.8272762719063E-04
(PID.TID 0000.0001) %MON dynstat_uvel_sd              =   2.9532003966214E-02
(PID.TID 0000.0001) %MON dynstat_uvel_del2            =   3.3505180335370E-05
(PID.TID 0000.0001) %MON dynstat_vvel_max             =   2.2379396869211E+00
(PID.TID 0000.0001) %MON dynstat_vvel_min             =  -2.0985369913558E+00
(PID.TID 0000.0001) %MON dynstat_vvel_mean            =   1.6447360577789E-03
(PID.TID 0000.0001) %MON dynstat_vvel_sd              =   3.0391335002785E-02
(PID.TID 0000.0001) %MON dynstat_vvel_del2            =   3.1701167993503E-05
(PID.TID 0000.0001) %MON dynstat_wvel_max             =   7.6751645027466E-03
(PID.TID 0000.0001) %MON dynstat_wvel_min             =  -9.8245447164783E-03
(PID.TID 0000.0001) %MON dynstat_wvel_mean            =   6.6946158055394E-08
(PID.TID 0000.0001) %MON dynstat_wvel_sd              =   9.6251934277487E-05
(PID.TID 0000.0001) %MON dynstat_wvel_del2            =   2.2523722130060E-07
(PID.TID 0000.0001) %MON dynstat_theta_max            =   3.2515865862981E+01
(PID.TID 0000.0001) %MON dynstat_theta_min            =  -2.0316420710497E+00
(PID.TID 0000.0001) %MON dynstat_theta_mean           =   3.5921352911112E+00
(PID.TID 0000.0001) %MON dynstat_theta_sd             =   4.4421696437701E+00
(PID.TID 0000.0001) %MON dynstat_theta_del2           =   1.2186466308295E-04
(PID.TID 0000.0001) %MON dynstat_salt_max             =   4.0655991901174E+01
(PID.TID 0000.0001) %MON dynstat_salt_min             =   1.6121056077251E+01
(PID.TID 0000.0001) %MON dynstat_salt_mean            =   3.4724821350754E+01
(PID.TID 0000.0001) %MON dynstat_salt_sd              =   3.7966098769691E-01
(PID.TID 0000.0001) %MON dynstat_salt_del2            =   6.9506645654125E-05
(PID.TID 0000.0001) %MON dynstat_sst_max              =   3.2515865862981E+01
(PID.TID 0000.0001) %MON dynstat_sst_min              =  -2.0316420710497E+00
(PID.TID 0000.0001) %MON dynstat_sst_mean             =   1.8180886057240E+01
(PID.TID 0000.0001) %MON dynstat_sst_sd               =   1.0167364644651E+01
(PID.TID 0000.0001) %MON dynstat_sst_del2             =   1.1118648504957E-03
(PID.TID 0000.0001) %MON dynstat_sss_max              =   3.9475772015374E+01
(PID.TID 0000.0001) %MON dynstat_sss_min              =   1.6121056077251E+01
(PID.TID 0000.0001) %MON dynstat_sss_mean             =   3.4646893660998E+01
(PID.TID 0000.0001) %MON dynstat_sss_sd               =   1.2926135223915E+00
(PID.TID 0000.0001) %MON dynstat_sss_del2             =   1.4579406774876E-03
(PID.TID 0000.0001) %MON forcing_qnet_max             =   1.9398451464341E+03
(PID.TID 0000.0001) %MON forcing_qnet_min             =  -4.2945205078125E+03
(PID.TID 0000.0001) %MON forcing_qnet_mean            =  -2.1317346003654E+01
(PID.TID 0000.0001) %MON forcing_qnet_sd              =   2.2611279899386E+02
(PID.TID 0000.0001) %MON forcing_qnet_del2            =   5.5561515001980E-01
(PID.TID 0000.0001) %MON forcing_qsw_max              =   0.0000000000000E+00
(PID.TID 0000.0001) %MON forcing_qsw_min              =  -1.1182617085819E+02
(PID.TID 0000.0001) %MON forcing_qsw_mean             =  -2.1610878862464E+01
(PID.TID 0000.0001) %MON forcing_qsw_sd               =   3.1613900120643E+01
(PID.TID 0000.0001) %MON forcing_qsw_del2             =   2.0734535986359E-02
(PID.TID 0000.0001) %MON forcing_empmr_max            =   2.0702579990029E-02
(PID.TID 0000.0001) %MON forcing_empmr_min            =  -1.3080111145973E-01
(PID.TID 0000.0001) %MON forcing_empmr_mean           =   4.1713399344019E-06
(PID.TID 0000.0001) %MON forcing_empmr_sd             =   4.8979546560947E-04
(PID.TID 0000.0001) %MON forcing_empmr_del2           =   5.5303089631196E-06
(PID.TID 0000.0001) %MON forcing_fu_max               =   1.1668278560802E+00
(PID.TID 0000.0001) %MON forcing_fu_min               =  -7.0656278729439E-01
(PID.TID 0000.0001) %MON forcing_fu_mean              =   9.6014258348758E-03
(PID.TID 0000.0001) %MON forcing_fu_sd                =   1.2075005586950E-01
(PID.TID 0000.0001) %MON forcing_fu_del2              =   1.5905959834031E-04
(PID.TID 0000.0001) %MON forcing_fv_max               =   8.6390625262657E-01
(PID.TID 0000.0001) %MON forcing_fv_min               =  -1.5046078479007E+00
(PID.TID 0000.0001) %MON forcing_fv_mean              =  -1.5223156383858E-03
(PID.TID 0000.0001) %MON forcing_fv_sd                =   1.0644362802455E-01
(PID.TID 0000.0001) %MON forcing_fv_del2              =   1.5603146410344E-04
(PID.TID 0000.0001) %MON trAdv_CFL_u_max              =   2.9404622983524E-02
(PID.TID 0000.0001) %MON trAdv_CFL_v_max              =   2.2781388834497E-02
(PID.TID 0000.0001) %MON trAdv_CFL_w_max              =   1.1112444438097E-01
(PID.TID 0000.0001) %MON advcfl_uvel_max              =   2.9797950776731E-02
(PID.TID 0000.0001) %MON advcfl_vvel_max              =   2.2707978515770E-02
(PID.TID 0000.0001) %MON advcfl_wvel_max              =   1.0522648873989E-01
(PID.TID 0000.0001) %MON advcfl_W_hf_max              =   1.1112444438097E-01
(PID.TID 0000.0001) %MON pe_b_mean                    =   1.7839023610248E-03
(PID.TID 0000.0001) %MON ke_max                       =   2.8725061109154E+00
(PID.TID 0000.0001) %MON ke_mean                      =   8.6750863827582E-04
(PID.TID 0000.0001) %MON ke_vol                       =   1.3350064351420E+18
(PID.TID 0000.0001) %MON vort_r_min                   =  -1.0155156394745E-04
(PID.TID 0000.0001) %MON vort_r_max                   =   1.0867448078998E-04
(PID.TID 0000.0001) %MON vort_a_mean                  =  -1.9725072883959E-05
(PID.TID 0000.0001) %MON vort_a_sd                    =   7.4539084907142E-05
(PID.TID 0000.0001) %MON vort_p_mean                  =  -2.1669077450256E-05
(PID.TID 0000.0001) %MON vort_p_sd                    =   9.3606834398415E-05
(PID.TID 0000.0001) %MON surfExpan_theta_mean         =   3.8956877447137E-06
(PID.TID 0000.0001) %MON surfExpan_salt_mean          =  -2.2814242463374E-06
(PID.TID 0000.0001) // =======================================================
(PID.TID 0000.0001) // End MONITOR dynamic field statistics
(PID.TID 0000.0001) // =======================================================
(PID.TID 0000.0001) // =======================================================
(PID.TID 0000.0001) // Begin MONITOR SEAICE statistics
(PID.TID 0000.0001) // =======================================================
(PID.TID 0000.0001) %MON seaice_tsnumber              =                174740
(PID.TID 0000.0001) %MON seaice_time_sec              =   7.8633000000000E+07
(PID.TID 0000.0001) %MON seaice_uice_max              =   1.4485739687702E+00
(PID.TID 0000.0001) %MON seaice_uice_min              =  -2.0302825925868E+00
(PID.TID 0000.0001) %MON seaice_uice_mean             =  -5.6798507426923E-04
(PID.TID 0000.0001) %MON seaice_uice_sd               =   1.5316963929207E-01
(PID.TID 0000.0001) %MON seaice_uice_del2             =   3.3758216008434E-04
(PID.TID 0000.0001) %MON seaice_vice_max              =   1.4889407304474E+00
(PID.TID 0000.0001) %MON seaice_vice_min              =  -1.4695108178872E+00
(PID.TID 0000.0001) %MON seaice_vice_mean             =  -2.3255860338048E-02
(PID.TID 0000.0001) %MON seaice_vice_sd               =   1.6339110528346E-01
(PID.TID 0000.0001) %MON seaice_vice_del2             =   3.1799927463007E-04
(PID.TID 0000.0001) %MON seaice_area_max              =   1.0044356709940E+00
(PID.TID 0000.0001) %MON seaice_area_min              =   0.0000000000000E+00
(PID.TID 0000.0001) %MON seaice_area_mean             =   5.7346248341669E-02
(PID.TID 0000.0001) %MON seaice_area_sd               =   2.2138453717733E-01
(PID.TID 0000.0001) %MON seaice_area_del2             =   3.0236907966271E-04
(PID.TID 0000.0001) %MON seaice_heff_max              =   9.9489812331710E+00
(PID.TID 0000.0001) %MON seaice_heff_min              =   0.0000000000000E+00
(PID.TID 0000.0001) %MON seaice_heff_mean             =   1.4989037325423E-01
(PID.TID 0000.0001) %MON seaice_heff_sd               =   7.2104782260082E-01
(PID.TID 0000.0001) %MON seaice_heff_del2             =   1.4283099595217E-03
(PID.TID 0000.0001) %MON seaice_hsnow_max             =   3.2861786556214E+00
(PID.TID 0000.0001) %MON seaice_hsnow_min             =   0.0000000000000E+00
(PID.TID 0000.0001) %MON seaice_hsnow_mean            =   1.2697237395788E-02
(PID.TID 0000.0001) %MON seaice_hsnow_sd              =   6.8747192026260E-02
(PID.TID 0000.0001) %MON seaice_hsnow_del2            =   3.9641216768505E-04
(PID.TID 0000.0001) // =======================================================
(PID.TID 0000.0001) // End MONITOR SEAICE statistics
(PID.TID 0000.0001) // =======================================================
(PID.TID 0000.0001) // =======================================================
(PID.TID 0000.0001) // Begin MONITOR dynamic field statistics
(PID.TID 0000.0001) // =======================================================
(PID.TID 0000.0001) %MON time_tsnumber                =                174741
(PID.TID 0000.0001) %MON time_secondsf                =   7.8633450000000E+07
(PID.TID 0000.0001) %MON dynstat_eta_max              =   2.7626752593728E+00
(PID.TID 0000.0001) %MON dynstat_eta_min              =  -1.1437077987514E+01
(PID.TID 0000.0001) %MON dynstat_eta_mean             =   6.3880447433756E-02
(PID.TID 0000.0001) %MON dynstat_eta_sd               =   8.4933387501636E-01
(PID.TID 0000.0001) %MON dynstat_eta_del2             =   2.0146208076360E-03
(PID.TID 0000.0001) %MON dynstat_uvel_max             =   1.9622743953105E+00
(PID.TID 0000.0001) %MON dynstat_uvel_min             =  -2.8544064909500E+00
(PID.TID 0000.0001) %MON dynstat_uvel_mean            =   8.2477977297523E-04
(PID.TID 0000.0001) %MON dynstat_uvel_sd              =   2.9499393211366E-02
(PID.TID 0000.0001) %MON dynstat_uvel_del2            =   3.3582244361665E-05
(PID.TID 0000.0001) %MON dynstat_vvel_max             =   2.2322542463632E+00
(PID.TID 0000.0001) %MON dynstat_vvel_min             =  -2.0907868730603E+00
(PID.TID 0000.0001) %MON dynstat_vvel_mean            =   1.6941124785865E-03
(PID.TID 0000.0001) %MON dynstat_vvel_sd              =   3.0400455002614E-02
(PID.TID 0000.0001) %MON dynstat_vvel_del2            =   3.1759904838154E-05
(PID.TID 0000.0001) %MON dynstat_wvel_max             =   7.6564473605859E-03
(PID.TID 0000.0001) %MON dynstat_wvel_min             =  -9.8027426536454E-03
(PID.TID 0000.0001) %MON dynstat_wvel_mean            =   8.9626304508150E-08
(PID.TID 0000.0001) %MON dynstat_wvel_sd              =   9.6431143218212E-05
(PID.TID 0000.0001) %MON dynstat_wvel_del2            =   2.2587355951019E-07
(PID.TID 0000.0001) %MON dynstat_theta_max            =   3.2513923305573E+01
(PID.TID 0000.0001) %MON dynstat_theta_min            =  -2.0319463600838E+00
(PID.TID 0000.0001) %MON dynstat_theta_mean           =   3.5921353338844E+00
(PID.TID 0000.0001) %MON dynstat_theta_sd             =   4.4421713404203E+00
(PID.TID 0000.0001) %MON dynstat_theta_del2           =   1.2192560316422E-04
(PID.TID 0000.0001) %MON dynstat_salt_max             =   4.0655991889040E+01
(PID.TID 0000.0001) %MON dynstat_salt_min             =   1.6119593043272E+01
(PID.TID 0000.0001) %MON dynstat_salt_mean            =   3.4724820644843E+01
(PID.TID 0000.0001) %MON dynstat_salt_sd              =   3.7966218241608E-01
(PID.TID 0000.0001) %MON dynstat_salt_del2            =   6.9439036964397E-05
(PID.TID 0000.0001) %MON dynstat_sst_max              =   3.2513923305573E+01
(PID.TID 0000.0001) %MON dynstat_sst_min              =  -2.0319463600838E+00
(PID.TID 0000.0001) %MON dynstat_sst_mean             =   1.8180988942644E+01
(PID.TID 0000.0001) %MON dynstat_sst_sd               =   1.0167631431399E+01
(PID.TID 0000.0001) %MON dynstat_sst_del2             =   1.1115394073271E-03
(PID.TID 0000.0001) %MON dynstat_sss_max              =   3.9475199892019E+01
(PID.TID 0000.0001) %MON dynstat_sss_min              =   1.6119593043272E+01
(PID.TID 0000.0001) %MON dynstat_sss_mean             =   3.4646831553199E+01
(PID.TID 0000.0001) %MON dynstat_sss_sd               =   1.2927341457727E+00
(PID.TID 0000.0001) %MON dynstat_sss_del2             =   1.4584506415693E-03
(PID.TID 0000.0001) %MON forcing_qnet_max             =   2.7019619140625E+03
(PID.TID 0000.0001) %MON forcing_qnet_min             =  -1.6634094238281E+03
(PID.TID 0000.0001) %MON forcing_qnet_mean            =  -2.2733212807131E+01
(PID.TID 0000.0001) %MON forcing_qnet_sd              =   2.2774705653663E+02
(PID.TID 0000.0001) %MON forcing_qnet_del2            =   5.2625660207062E-01
(PID.TID 0000.0001) %MON forcing_qsw_max              =   0.0000000000000E+00
(PID.TID 0000.0001) %MON forcing_qsw_min              =  -1.1217372333113E+02
(PID.TID 0000.0001) %MON forcing_qsw_mean             =  -2.2029417802871E+01
(PID.TID 0000.0001) %MON forcing_qsw_sd               =   3.2086383679603E+01
(PID.TID 0000.0001) %MON forcing_qsw_del2             =   2.0477501694845E-02
(PID.TID 0000.0001) %MON forcing_empmr_max            =   2.0789928734303E-02
(PID.TID 0000.0001) %MON forcing_empmr_min            =  -1.3484536111355E-01
(PID.TID 0000.0001) %MON forcing_empmr_mean           =   3.8883547213775E-06
(PID.TID 0000.0001) %MON forcing_empmr_sd             =   4.9157620558267E-04
(PID.TID 0000.0001) %MON forcing_empmr_del2           =   5.5869975874710E-06
(PID.TID 0000.0001) %MON forcing_fu_max               =   1.1295397887524E+00
(PID.TID 0000.0001) %MON forcing_fu_min               =  -7.0318010449409E-01
(PID.TID 0000.0001) %MON forcing_fu_mean              =   9.5729683517944E-03
(PID.TID 0000.0001) %MON forcing_fu_sd                =   1.2077395590394E-01
(PID.TID 0000.0001) %MON forcing_fu_del2              =   1.5909279886152E-04
(PID.TID 0000.0001) %MON forcing_fv_max               =   8.6428519614637E-01
(PID.TID 0000.0001) %MON forcing_fv_min               =  -1.5072640720382E+00
(PID.TID 0000.0001) %MON forcing_fv_mean              =  -1.4882058585064E-03
(PID.TID 0000.0001) %MON forcing_fv_sd                =   1.0643512650442E-01
(PID.TID 0000.0001) %MON forcing_fv_del2              =   1.5587013092026E-04
(PID.TID 0000.0001) %MON trAdv_CFL_u_max              =   2.9442229414525E-02
(PID.TID 0000.0001) %MON trAdv_CFL_v_max              =   2.2723513176452E-02
(PID.TID 0000.0001) %MON trAdv_CFL_w_max              =   1.1130793098113E-01
(PID.TID 0000.0001) %MON advcfl_uvel_max              =   2.9836060246133E-02
(PID.TID 0000.0001) %MON advcfl_vvel_max              =   2.2650289355156E-02
(PID.TID 0000.0001) %MON advcfl_wvel_max              =   1.0539060983802E-01
(PID.TID 0000.0001) %MON advcfl_W_hf_max              =   1.1130793098113E-01
(PID.TID 0000.0001) %MON pe_b_mean                    =   1.7798182608412E-03
(PID.TID 0000.0001) %MON ke_max                       =   2.8818725491002E+00
(PID.TID 0000.0001) %MON ke_mean                      =   8.6696001857309E-04
(PID.TID 0000.0001) %MON ke_vol                       =   1.3350064351420E+18
(PID.TID 0000.0001) %MON vort_r_min                   =  -1.0165194295420E-04
(PID.TID 0000.0001) %MON vort_r_max                   =   1.0886389802288E-04
(PID.TID 0000.0001) %MON vort_a_mean                  =  -1.9725072878258E-05
(PID.TID 0000.0001) %MON vort_a_sd                    =   7.4539094632746E-05
(PID.TID 0000.0001) %MON vort_p_mean                  =  -2.1669077443993E-05
(PID.TID 0000.0001) %MON vort_p_sd                    =   9.3606872866060E-05
(PID.TID 0000.0001) %MON surfExpan_theta_mean         =   3.9952848751432E-06
(PID.TID 0000.0001) %MON surfExpan_salt_mean          =  -1.2688842342674E-06
(PID.TID 0000.0001) // =======================================================
(PID.TID 0000.0001) // End MONITOR dynamic field statistics
(PID.TID 0000.0001) // =======================================================
(PID.TID 0000.0001) // =======================================================
(PID.TID 0000.0001) // Begin MONITOR SEAICE statistics
(PID.TID 0000.0001) // =======================================================
(PID.TID 0000.0001) %MON seaice_tsnumber              =                174741
(PID.TID 0000.0001) %MON seaice_time_sec              =   7.8633450000000E+07
(PID.TID 0000.0001) %MON seaice_uice_max              =   1.4498217995948E+00
(PID.TID 0000.0001) %MON seaice_uice_min              =  -2.0559823052966E+00
(PID.TID 0000.0001) %MON seaice_uice_mean             =  -6.0952433481601E-04
(PID.TID 0000.0001) %MON seaice_uice_sd               =   1.5314393155662E-01
(PID.TID 0000.0001) %MON seaice_uice_del2             =   3.3784939089195E-04
(PID.TID 0000.0001) %MON seaice_vice_max              =   1.4707017422508E+00
(PID.TID 0000.0001) %MON seaice_vice_min              =  -1.4611932557542E+00
(PID.TID 0000.0001) %MON seaice_vice_mean             =  -2.3165730892420E-02
(PID.TID 0000.0001) %MON seaice_vice_sd               =   1.6346221129119E-01
(PID.TID 0000.0001) %MON seaice_vice_del2             =   3.1837471487387E-04
(PID.TID 0000.0001) %MON seaice_area_max              =   1.0044780793321E+00
(PID.TID 0000.0001) %MON seaice_area_min              =   0.0000000000000E+00
(PID.TID 0000.0001) %MON seaice_area_mean             =   5.7348117491255E-02
(PID.TID 0000.0001) %MON seaice_area_sd               =   2.2137868789784E-01
(PID.TID 0000.0001) %MON seaice_area_del2             =   3.0215822115973E-04
(PID.TID 0000.0001) %MON seaice_heff_max              =   9.9489698134136E+00
(PID.TID 0000.0001) %MON seaice_heff_min              =   0.0000000000000E+00
(PID.TID 0000.0001) %MON seaice_heff_mean             =   1.4988662963367E-01
(PID.TID 0000.0001) %MON seaice_heff_sd               =   7.2103598523882E-01
(PID.TID 0000.0001) %MON seaice_heff_del2             =   1.4275308034094E-03
(PID.TID 0000.0001) %MON seaice_hsnow_max             =   3.2861748466036E+00
(PID.TID 0000.0001) %MON seaice_hsnow_min             =   0.0000000000000E+00
(PID.TID 0000.0001) %MON seaice_hsnow_mean            =   1.2696428027766E-02
(PID.TID 0000.0001) %MON seaice_hsnow_sd              =   6.8739256847069E-02
(PID.TID 0000.0001) %MON seaice_hsnow_del2            =   3.9614393300223E-04
(PID.TID 0000.0001) // =======================================================
(PID.TID 0000.0001) // End MONITOR SEAICE statistics
(PID.TID 0000.0001) // =======================================================
(PID.TID 0000.0001) // =======================================================
(PID.TID 0000.0001) // Begin MONITOR dynamic field statistics
(PID.TID 0000.0001) // =======================================================
(PID.TID 0000.0001) %MON time_tsnumber                =                174742
(PID.TID 0000.0001) %MON time_secondsf                =   7.8633900000000E+07
(PID.TID 0000.0001) %MON dynstat_eta_max              =   2.7799064189724E+00
(PID.TID 0000.0001) %MON dynstat_eta_min              =  -1.1393403398847E+01
(PID.TID 0000.0001) %MON dynstat_eta_mean             =   6.3824615274693E-02
(PID.TID 0000.0001) %MON dynstat_eta_sd               =   8.4902825768186E-01
(PID.TID 0000.0001) %MON dynstat_eta_del2             =   2.0144747390800E-03
(PID.TID 0000.0001) %MON dynstat_uvel_max             =   1.9761548948473E+00
(PID.TID 0000.0001) %MON dynstat_uvel_min             =  -2.8576373824583E+00
(PID.TID 0000.0001) %MON dynstat_uvel_mean            =   8.7185237534881E-04
(PID.TID 0000.0001) %MON dynstat_uvel_sd              =   2.9468812007775E-02
(PID.TID 0000.0001) %MON dynstat_uvel_del2            =   3.3658937981040E-05
(PID.TID 0000.0001) %MON dynstat_vvel_max             =   2.2244014577837E+00
(PID.TID 0000.0001) %MON dynstat_vvel_min             =  -2.0827861457813E+00
(PID.TID 0000.0001) %MON dynstat_vvel_mean            =   1.7428027139749E-03
(PID.TID 0000.0001) %MON dynstat_vvel_sd              =   3.0409605619815E-02
(PID.TID 0000.0001) %MON dynstat_vvel_del2            =   3.1818571582017E-05
(PID.TID 0000.0001) %MON dynstat_wvel_max             =   7.6361348917613E-03
(PID.TID 0000.0001) %MON dynstat_wvel_min             =  -9.7801119517111E-03
(PID.TID 0000.0001) %MON dynstat_wvel_mean            =   1.1307735990676E-07
(PID.TID 0000.0001) %MON dynstat_wvel_sd              =   9.6615746833868E-05
(PID.TID 0000.0001) %MON dynstat_wvel_del2            =   2.2651241135248E-07
(PID.TID 0000.0001) %MON dynstat_theta_max            =   3.2511824812358E+01
(PID.TID 0000.0001) %MON dynstat_theta_min            =  -2.0322520124072E+00
(PID.TID 0000.0001) %MON dynstat_theta_mean           =   3.5921354144061E+00
(PID.TID 0000.0001) %MON dynstat_theta_sd             =   4.4421732267760E+00
(PID.TID 0000.0001) %MON dynstat_theta_del2           =   1.2198626695856E-04
(PID.TID 0000.0001) %MON dynstat_salt_max             =   4.0655991881625E+01
(PID.TID 0000.0001) %MON dynstat_salt_min             =   1.6118168605630E+01
(PID.TID 0000.0001) %MON dynstat_salt_mean            =   3.4724819950458E+01
(PID.TID 0000.0001) %MON dynstat_salt_sd              =   3.7966334046832E-01
(PID.TID 0000.0001) %MON dynstat_salt_del2            =   6.9372485373720E-05
(PID.TID 0000.0001) %MON dynstat_sst_max              =   3.2511824812358E+01
(PID.TID 0000.0001) %MON dynstat_sst_min              =  -2.0322520124072E+00
(PID.TID 0000.0001) %MON dynstat_sst_mean             =   1.8181136188641E+01
(PID.TID 0000.0001) %MON dynstat_sst_sd               =   1.0167929620786E+01
(PID.TID 0000.0001) %MON dynstat_sst_del2             =   1.1113011194252E-03
(PID.TID 0000.0001) %MON dynstat_sss_max              =   3.9474626784220E+01
(PID.TID 0000.0001) %MON dynstat_sss_min              =   1.6118168605630E+01
(PID.TID 0000.0001) %MON dynstat_sss_mean             =   3.4646769347420E+01
(PID.TID 0000.0001) %MON dynstat_sss_sd               =   1.2928489532894E+00
(PID.TID 0000.0001) %MON dynstat_sss_del2             =   1.4590333044405E-03
(PID.TID 0000.0001) %MON forcing_qnet_max             =   1.9916864839184E+03
(PID.TID 0000.0001) %MON forcing_qnet_min             =  -9.1659658203125E+03
(PID.TID 0000.0001) %MON forcing_qnet_mean            =  -2.4196081240906E+01
(PID.TID 0000.0001) %MON forcing_qnet_sd              =   2.3066060523995E+02
(PID.TID 0000.0001) %MON forcing_qnet_del2            =   5.4827735754471E-01
(PID.TID 0000.0001) %MON forcing_qsw_max              =   0.0000000000000E+00
(PID.TID 0000.0001) %MON forcing_qsw_min              =  -1.1241272112005E+02
(PID.TID 0000.0001) %MON forcing_qsw_mean             =  -2.2165442799926E+01
(PID.TID 0000.0001) %MON forcing_qsw_sd               =   3.2217634823698E+01
(PID.TID 0000.0001) %MON forcing_qsw_del2             =   2.0473186821764E-02
(PID.TID 0000.0001) %MON forcing_empmr_max            =   2.0858831703663E-02
(PID.TID 0000.0001) %MON forcing_empmr_min            =  -1.3904324173927E-01
(PID.TID 0000.0001) %MON forcing_empmr_mean           =   3.7847389700664E-06
(PID.TID 0000.0001) %MON forcing_empmr_sd             =   4.9567282311965E-04
(PID.TID 0000.0001) %MON forcing_empmr_del2           =   5.6481574454227E-06
(PID.TID 0000.0001) %MON forcing_fu_max               =   1.0892091349424E+00
(PID.TID 0000.0001) %MON forcing_fu_min               =  -6.9908943772316E-01
(PID.TID 0000.0001) %MON forcing_fu_mean              =   9.5473204488189E-03
(PID.TID 0000.0001) %MON forcing_fu_sd                =   1.2079283072983E-01
(PID.TID 0000.0001) %MON forcing_fu_del2              =   1.5913253971224E-04
(PID.TID 0000.0001) %MON forcing_fv_max               =   8.7170842289925E-01
(PID.TID 0000.0001) %MON forcing_fv_min               =  -1.5097023733049E+00
(PID.TID 0000.0001) %MON forcing_fv_mean              =  -1.4482969194160E-03
(PID.TID 0000.0001) %MON forcing_fv_sd                =   1.0645025049489E-01
(PID.TID 0000.0001) %MON forcing_fv_del2              =   1.5570911655613E-04
(PID.TID 0000.0001) %MON trAdv_CFL_u_max              =   2.9475554958488E-02
(PID.TID 0000.0001) %MON trAdv_CFL_v_max              =   2.2643574726319E-02
(PID.TID 0000.0001) %MON trAdv_CFL_w_max              =   1.1143399677864E-01
(PID.TID 0000.0001) %MON advcfl_uvel_max              =   2.9869831565668E-02
(PID.TID 0000.0001) %MON advcfl_vvel_max              =   2.2570608497181E-02
(PID.TID 0000.0001) %MON advcfl_wvel_max              =   1.0549866137608E-01
(PID.TID 0000.0001) %MON advcfl_W_hf_max              =   1.1143399677864E-01
(PID.TID 0000.0001) %MON pe_b_mean                    =   1.7761235830906E-03
(PID.TID 0000.0001) %MON ke_max                       =   2.8903137936569E+00
(PID.TID 0000.0001) %MON ke_mean                      =   8.6647818348911E-04
(PID.TID 0000.0001) %MON ke_vol                       =   1.3350064351420E+18
(PID.TID 0000.0001) %MON vort_r_min                   =  -1.0173408292240E-04
(PID.TID 0000.0001) %MON vort_r_max                   =   1.0903491855894E-04
(PID.TID 0000.0001) %MON vort_a_mean                  =  -1.9725072843318E-05
(PID.TID 0000.0001) %MON vort_a_sd                    =   7.4539104682207E-05
(PID.TID 0000.0001) %MON vort_p_mean                  =  -2.1669077405609E-05
(PID.TID 0000.0001) %MON vort_p_sd                    =   9.3606913892701E-05
(PID.TID 0000.0001) %MON surfExpan_theta_mean         =   4.1353843036023E-06
(PID.TID 0000.0001) %MON surfExpan_salt_mean          =  -2.2704771785411E-07
(PID.TID 0000.0001) // =======================================================
(PID.TID 0000.0001) // End MONITOR dynamic field statistics
(PID.TID 0000.0001) // =======================================================
(PID.TID 0000.0001) // =======================================================
(PID.TID 0000.0001) // Begin MONITOR SEAICE statistics
(PID.TID 0000.0001) // =======================================================
(PID.TID 0000.0001) %MON seaice_tsnumber              =                174742
(PID.TID 0000.0001) %MON seaice_time_sec              =   7.8633900000000E+07
(PID.TID 0000.0001) %MON seaice_uice_max              =   1.4507328632969E+00
(PID.TID 0000.0001) %MON seaice_uice_min              =  -2.0788992267983E+00
(PID.TID 0000.0001) %MON seaice_uice_mean             =  -6.4318907751534E-04
(PID.TID 0000.0001) %MON seaice_uice_sd               =   1.5310829884966E-01
(PID.TID 0000.0001) %MON seaice_uice_del2             =   3.3803759337128E-04
(PID.TID 0000.0001) %MON seaice_vice_max              =   1.4440088664224E+00
(PID.TID 0000.0001) %MON seaice_vice_min              =  -1.4524216424774E+00
(PID.TID 0000.0001) %MON seaice_vice_mean             =  -2.3074206604878E-02
(PID.TID 0000.0001) %MON seaice_vice_sd               =   1.6354854326258E-01
(PID.TID 0000.0001) %MON seaice_vice_del2             =   3.1874791566708E-04
(PID.TID 0000.0001) %MON seaice_area_max              =   1.0045136906513E+00
(PID.TID 0000.0001) %MON seaice_area_min              =   0.0000000000000E+00
(PID.TID 0000.0001) %MON seaice_area_mean             =   5.7349986284254E-02
(PID.TID 0000.0001) %MON seaice_area_sd               =   2.2137283793951E-01
(PID.TID 0000.0001) %MON seaice_area_del2             =   3.0195096889337E-04
(PID.TID 0000.0001) %MON seaice_heff_max              =   9.9489593491789E+00
(PID.TID 0000.0001) %MON seaice_heff_min              =   0.0000000000000E+00
(PID.TID 0000.0001) %MON seaice_heff_mean             =   1.4988290188279E-01
(PID.TID 0000.0001) %MON seaice_heff_sd               =   7.2102424987580E-01
(PID.TID 0000.0001) %MON seaice_heff_del2             =   1.4267587263395E-03
(PID.TID 0000.0001) %MON seaice_hsnow_max             =   3.2861712753379E+00
(PID.TID 0000.0001) %MON seaice_hsnow_min             =   0.0000000000000E+00
(PID.TID 0000.0001) %MON seaice_hsnow_mean            =   1.2695615643500E-02
(PID.TID 0000.0001) %MON seaice_hsnow_sd              =   6.8731452042336E-02
(PID.TID 0000.0001) %MON seaice_hsnow_del2            =   3.9587783757675E-04
(PID.TID 0000.0001) // =======================================================
(PID.TID 0000.0001) // End MONITOR SEAICE statistics
(PID.TID 0000.0001) // =======================================================
(PID.TID 0000.0001) // =======================================================
(PID.TID 0000.0001) // Begin MONITOR dynamic field statistics
(PID.TID 0000.0001) // =======================================================
(PID.TID 0000.0001) %MON time_tsnumber                =                174743
(PID.TID 0000.0001) %MON time_secondsf                =   7.8634350000000E+07
(PID.TID 0000.0001) %MON dynstat_eta_max              =   2.7781785652169E+00
(PID.TID 0000.0001) %MON dynstat_eta_min              =  -1.1351111217644E+01
(PID.TID 0000.0001) %MON dynstat_eta_mean             =   6.3784441073719E-02
(PID.TID 0000.0001) %MON dynstat_eta_sd               =   8.4871088811621E-01
(PID.TID 0000.0001) %MON dynstat_eta_del2             =   2.0142821599360E-03
(PID.TID 0000.0001) %MON dynstat_uvel_max             =   1.9896725739036E+00
(PID.TID 0000.0001) %MON dynstat_uvel_min             =  -2.8604736999049E+00
(PID.TID 0000.0001) %MON dynstat_uvel_mean            =   9.2393402142618E-04
(PID.TID 0000.0001) %MON dynstat_uvel_sd              =   2.9440061515940E-02
(PID.TID 0000.0001) %MON dynstat_uvel_del2            =   3.3735302457319E-05
(PID.TID 0000.0001) %MON dynstat_vvel_max             =   2.2144932524105E+00
(PID.TID 0000.0001) %MON dynstat_vvel_min             =  -2.0745716776751E+00
(PID.TID 0000.0001) %MON dynstat_vvel_mean            =   1.7906236628651E-03
(PID.TID 0000.0001) %MON dynstat_vvel_sd              =   3.0418350825054E-02
(PID.TID 0000.0001) %MON dynstat_vvel_del2            =   3.1876741819136E-05
(PID.TID 0000.0001) %MON dynstat_wvel_max             =   7.6139971494746E-03
(PID.TID 0000.0001) %MON dynstat_wvel_min             =  -9.7563289393642E-03
(PID.TID 0000.0001) %MON dynstat_wvel_mean            =   1.3810108278418E-07
(PID.TID 0000.0001) %MON dynstat_wvel_sd              =   9.6805479908022E-05
(PID.TID 0000.0001) %MON dynstat_wvel_del2            =   2.2715462225306E-07
(PID.TID 0000.0001) %MON dynstat_theta_max            =   3.2509573331164E+01
(PID.TID 0000.0001) %MON dynstat_theta_min            =  -2.0325594239008E+00
(PID.TID 0000.0001) %MON dynstat_theta_mean           =   3.5921354775829E+00
(PID.TID 0000.0001) %MON dynstat_theta_sd             =   4.4421750349237E+00
(PID.TID 0000.0001) %MON dynstat_theta_del2           =   1.2204584717092E-04
(PID.TID 0000.0001) %MON dynstat_salt_max             =   4.0655991878886E+01
(PID.TID 0000.0001) %MON dynstat_salt_min             =   1.6116777545169E+01
(PID.TID 0000.0001) %MON dynstat_salt_mean            =   3.4724819266707E+01
(PID.TID 0000.0001) %MON dynstat_salt_sd              =   3.7966449928613E-01
(PID.TID 0000.0001) %MON dynstat_salt_del2            =   6.9305915998597E-05
(PID.TID 0000.0001) %MON dynstat_sst_max              =   3.2509573331164E+01
(PID.TID 0000.0001) %MON dynstat_sst_min              =  -2.0325594239008E+00
(PID.TID 0000.0001) %MON dynstat_sst_mean             =   1.8181258412922E+01
(PID.TID 0000.0001) %MON dynstat_sst_sd               =   1.0168202692530E+01
(PID.TID 0000.0001) %MON dynstat_sst_del2             =   1.1109434260177E-03
(PID.TID 0000.0001) %MON dynstat_sss_max              =   3.9474061314262E+01
(PID.TID 0000.0001) %MON dynstat_sss_min              =   1.6116777545169E+01
(PID.TID 0000.0001) %MON dynstat_sss_mean             =   3.4646708728358E+01
(PID.TID 0000.0001) %MON dynstat_sss_sd               =   1.2929664068821E+00
(PID.TID 0000.0001) %MON dynstat_sss_del2             =   1.4595600393818E-03
(PID.TID 0000.0001) %MON forcing_qnet_max             =   2.5355646972656E+03
(PID.TID 0000.0001) %MON forcing_qnet_min             =  -2.1728059082031E+03
(PID.TID 0000.0001) %MON forcing_qnet_mean            =  -2.4090887401968E+01
(PID.TID 0000.0001) %MON forcing_qnet_sd              =   2.2892367614745E+02
(PID.TID 0000.0001) %MON forcing_qnet_del2            =   5.2691820154066E-01
(PID.TID 0000.0001) %MON forcing_qsw_max              =   0.0000000000000E+00
(PID.TID 0000.0001) %MON forcing_qsw_min              =  -1.1258972247431E+02
(PID.TID 0000.0001) %MON forcing_qsw_mean             =  -2.2287811607510E+01
(PID.TID 0000.0001) %MON forcing_qsw_sd               =   3.2335698450644E+01
(PID.TID 0000.0001) %MON forcing_qsw_del2             =   2.0463883084996E-02
(PID.TID 0000.0001) %MON forcing_empmr_max            =   2.0921492949128E-02
(PID.TID 0000.0001) %MON forcing_empmr_min            =  -1.4425115287304E-01
(PID.TID 0000.0001) %MON forcing_empmr_mean           =   3.5156430439861E-06
(PID.TID 0000.0001) %MON forcing_empmr_sd             =   4.9903009819933E-04
(PID.TID 0000.0001) %MON forcing_empmr_del2           =   5.6948665594489E-06
(PID.TID 0000.0001) %MON forcing_fu_max               =   1.0461805846610E+00
(PID.TID 0000.0001) %MON forcing_fu_min               =  -6.9619989395142E-01
(PID.TID 0000.0001) %MON forcing_fu_mean              =   9.5283643278090E-03
(PID.TID 0000.0001) %MON forcing_fu_sd                =   1.2082377920429E-01
(PID.TID 0000.0001) %MON forcing_fu_del2              =   1.5916436759327E-04
(PID.TID 0000.0001) %MON forcing_fv_max               =   8.8882833719254E-01
(PID.TID 0000.0001) %MON forcing_fv_min               =  -1.5116528995577E+00
(PID.TID 0000.0001) %MON forcing_fv_mean              =  -1.4085649225105E-03
(PID.TID 0000.0001) %MON forcing_fv_sd                =   1.0644617453800E-01
(PID.TID 0000.0001) %MON forcing_fv_del2              =   1.5547658056812E-04
(PID.TID 0000.0001) %MON trAdv_CFL_u_max              =   2.9504810605579E-02
(PID.TID 0000.0001) %MON trAdv_CFL_v_max              =   2.2710257762875E-02
(PID.TID 0000.0001) %MON trAdv_CFL_w_max              =   1.1150356794734E-01
(PID.TID 0000.0001) %MON advcfl_uvel_max              =   2.9899478547793E-02
(PID.TID 0000.0001) %MON advcfl_vvel_max              =   2.2470071688231E-02
(PID.TID 0000.0001) %MON advcfl_wvel_max              =   1.0555157204781E-01
(PID.TID 0000.0001) %MON advcfl_W_hf_max              =   1.1150356794734E-01
(PID.TID 0000.0001) %MON pe_b_mean                    =   1.7728616245585E-03
(PID.TID 0000.0001) %MON ke_max                       =   2.8978599959487E+00
(PID.TID 0000.0001) %MON ke_mean                      =   8.6604477700245E-04
(PID.TID 0000.0001) %MON ke_vol                       =   1.3350064351420E+18
(PID.TID 0000.0001) %MON vort_r_min                   =  -1.0179836249450E-04
(PID.TID 0000.0001) %MON vort_r_max                   =   1.0918815115538E-04
(PID.TID 0000.0001) %MON vort_a_mean                  =  -1.9725072782322E-05
(PID.TID 0000.0001) %MON vort_a_sd                    =   7.4539115018992E-05
(PID.TID 0000.0001) %MON vort_p_mean                  =  -2.1669077338602E-05
(PID.TID 0000.0001) %MON vort_p_sd                    =   9.3606957259536E-05
(PID.TID 0000.0001) %MON surfExpan_theta_mean         =   4.3504184828092E-06
(PID.TID 0000.0001) %MON surfExpan_salt_mean          =   8.8718268149431E-07
(PID.TID 0000.0001) // =======================================================
(PID.TID 0000.0001) // End MONITOR dynamic field statistics
(PID.TID 0000.0001) // =======================================================
(PID.TID 0000.0001) // =======================================================
(PID.TID 0000.0001) // Begin MONITOR SEAICE statistics
(PID.TID 0000.0001) // =======================================================
(PID.TID 0000.0001) %MON seaice_tsnumber              =                174743
(PID.TID 0000.0001) %MON seaice_time_sec              =   7.8634350000000E+07
(PID.TID 0000.0001) %MON seaice_uice_max              =   1.4514428569556E+00
(PID.TID 0000.0001) %MON seaice_uice_min              =  -2.0984064714685E+00
(PID.TID 0000.0001) %MON seaice_uice_mean             =  -6.8431994471013E-04
(PID.TID 0000.0001) %MON seaice_uice_sd               =   1.5310019830540E-01
(PID.TID 0000.0001) %MON seaice_uice_del2             =   3.3833733780989E-04
(PID.TID 0000.0001) %MON seaice_vice_max              =   1.4090113799408E+00
(PID.TID 0000.0001) %MON seaice_vice_min              =  -1.4507662679590E+00
(PID.TID 0000.0001) %MON seaice_vice_mean             =  -2.2996909716344E-02
(PID.TID 0000.0001) %MON seaice_vice_sd               =   1.6365304263475E-01
(PID.TID 0000.0001) %MON seaice_vice_del2             =   3.1923362609858E-04
(PID.TID 0000.0001) %MON seaice_area_max              =   1.0045433959223E+00
(PID.TID 0000.0001) %MON seaice_area_min              =   0.0000000000000E+00
(PID.TID 0000.0001) %MON seaice_area_mean             =   5.7351837982772E-02
(PID.TID 0000.0001) %MON seaice_area_sd               =   2.2136693020892E-01
(PID.TID 0000.0001) %MON seaice_area_del2             =   3.0174748029600E-04
(PID.TID 0000.0001) %MON seaice_heff_max              =   9.9489488816659E+00
(PID.TID 0000.0001) %MON seaice_heff_min              =   0.0000000000000E+00
(PID.TID 0000.0001) %MON seaice_heff_mean             =   1.4987918845980E-01
(PID.TID 0000.0001) %MON seaice_heff_sd               =   7.2101261575235E-01
(PID.TID 0000.0001) %MON seaice_heff_del2             =   1.4259940362005E-03
(PID.TID 0000.0001) %MON seaice_hsnow_max             =   3.2861677044104E+00
(PID.TID 0000.0001) %MON seaice_hsnow_min             =   0.0000000000000E+00
(PID.TID 0000.0001) %MON seaice_hsnow_mean            =   1.2694820362588E-02
(PID.TID 0000.0001) %MON seaice_hsnow_sd              =   6.8723782351995E-02
(PID.TID 0000.0001) %MON seaice_hsnow_del2            =   3.9561404898032E-04
(PID.TID 0000.0001) // =======================================================
(PID.TID 0000.0001) // End MONITOR SEAICE statistics
(PID.TID 0000.0001) // =======================================================
(PID.TID 0000.0001) // =======================================================
(PID.TID 0000.0001) // Begin MONITOR dynamic field statistics
(PID.TID 0000.0001) // =======================================================
(PID.TID 0000.0001) %MON time_tsnumber                =                174744
(PID.TID 0000.0001) %MON time_secondsf                =   7.8634800000000E+07
(PID.TID 0000.0001) %MON dynstat_eta_max              =   2.7574035256522E+00
(PID.TID 0000.0001) %MON dynstat_eta_min              =  -1.1311130890450E+01
(PID.TID 0000.0001) %MON dynstat_eta_mean             =   6.3760960087655E-02
(PID.TID 0000.0001) %MON dynstat_eta_sd               =   8.4838573009422E-01
(PID.TID 0000.0001) %MON dynstat_eta_del2             =   2.0140475663811E-03
(PID.TID 0000.0001) %MON dynstat_uvel_max             =   2.0028213183529E+00
(PID.TID 0000.0001) %MON dynstat_uvel_min             =  -2.8629289492440E+00
(PID.TID 0000.0001) %MON dynstat_uvel_mean            =   9.8098567034860E-04
(PID.TID 0000.0001) %MON dynstat_uvel_sd              =   2.9413472684181E-02
(PID.TID 0000.0001) %MON dynstat_uvel_del2            =   3.3811173450299E-05
(PID.TID 0000.0001) %MON dynstat_vvel_max             =   2.2026586108109E+00
(PID.TID 0000.0001) %MON dynstat_vvel_min             =  -2.0661716676609E+00
(PID.TID 0000.0001) %MON dynstat_vvel_mean            =   1.8373934435815E-03
(PID.TID 0000.0001) %MON dynstat_vvel_sd              =   3.0426613757932E-02
(PID.TID 0000.0001) %MON dynstat_vvel_del2            =   3.1934152429324E-05
(PID.TID 0000.0001) %MON dynstat_wvel_max             =   7.5898387765446E-03
(PID.TID 0000.0001) %MON dynstat_wvel_min             =  -9.7310310150246E-03
(PID.TID 0000.0001) %MON dynstat_wvel_mean            =   1.6443854237951E-07
(PID.TID 0000.0001) %MON dynstat_wvel_sd              =   9.7000434862383E-05
(PID.TID 0000.0001) %MON dynstat_wvel_del2            =   2.2780064435303E-07
(PID.TID 0000.0001) %MON dynstat_theta_max            =   3.2507185321526E+01
(PID.TID 0000.0001) %MON dynstat_theta_min            =  -2.0328689564169E+00
(PID.TID 0000.0001) %MON dynstat_theta_mean           =   3.5921355416450E+00
(PID.TID 0000.0001) %MON dynstat_theta_sd             =   4.4421768979839E+00
(PID.TID 0000.0001) %MON dynstat_theta_del2           =   1.2210506269942E-04
(PID.TID 0000.0001) %MON dynstat_salt_max             =   4.0655991878808E+01
(PID.TID 0000.0001) %MON dynstat_salt_min             =   1.6115413835035E+01
(PID.TID 0000.0001) %MON dynstat_salt_mean            =   3.4724818596043E+01
(PID.TID 0000.0001) %MON dynstat_salt_sd              =   3.7966563816145E-01
(PID.TID 0000.0001) %MON dynstat_salt_del2            =   6.9240514650015E-05
(PID.TID 0000.0001) %MON dynstat_sst_max              =   3.2507185321526E+01
(PID.TID 0000.0001) %MON dynstat_sst_min              =  -2.0328689564169E+00
(PID.TID 0000.0001) %MON dynstat_sst_mean             =   1.8181409090114E+01
(PID.TID 0000.0001) %MON dynstat_sst_sd               =   1.0168494928158E+01
(PID.TID 0000.0001) %MON dynstat_sst_del2             =   1.1106174767097E-03
(PID.TID 0000.0001) %MON dynstat_sss_max              =   3.9473510623722E+01
(PID.TID 0000.0001) %MON dynstat_sss_min              =   1.6115413835035E+01
(PID.TID 0000.0001) %MON dynstat_sss_mean             =   3.4646647552493E+01
(PID.TID 0000.0001) %MON dynstat_sss_sd               =   1.2930803659717E+00
(PID.TID 0000.0001) %MON dynstat_sss_del2             =   1.4601155956736E-03
(PID.TID 0000.0001) %MON forcing_qnet_max             =   2.0158605831469E+03
(PID.TID 0000.0001) %MON forcing_qnet_min             =  -1.0479913107402E+03
(PID.TID 0000.0001) %MON forcing_qnet_mean            =  -2.4890124274657E+01
(PID.TID 0000.0001) %MON forcing_qnet_sd              =   2.2920479052341E+02
(PID.TID 0000.0001) %MON forcing_qnet_del2            =   4.9511633173565E-01
(PID.TID 0000.0001) %MON forcing_qsw_max              =   0.0000000000000E+00
(PID.TID 0000.0001) %MON forcing_qsw_min              =  -1.1267217677198E+02
(PID.TID 0000.0001) %MON forcing_qsw_mean             =  -2.2397223061732E+01
(PID.TID 0000.0001) %MON forcing_qsw_sd               =   3.2439651610145E+01
(PID.TID 0000.0001) %MON forcing_qsw_del2             =   2.0449798696526E-02
(PID.TID 0000.0001) %MON forcing_empmr_max            =   2.1002059802413E-02
(PID.TID 0000.0001) %MON forcing_empmr_min            =  -1.4275555312634E-01
(PID.TID 0000.0001) %MON forcing_empmr_mean           =   3.4044275060037E-06
(PID.TID 0000.0001) %MON forcing_empmr_sd             =   4.9852757840281E-04
(PID.TID 0000.0001) %MON forcing_empmr_del2           =   5.6865672620874E-06
(PID.TID 0000.0001) %MON forcing_fu_max               =   1.0009074634695E+00
(PID.TID 0000.0001) %MON forcing_fu_min               =  -6.9395366311073E-01
(PID.TID 0000.0001) %MON forcing_fu_mean              =   9.5105380521751E-03
(PID.TID 0000.0001) %MON forcing_fu_sd                =   1.2087412857064E-01
(PID.TID 0000.0001) %MON forcing_fu_del2              =   1.5903981272318E-04
(PID.TID 0000.0001) %MON forcing_fv_max               =   9.0310096740723E-01
(PID.TID 0000.0001) %MON forcing_fv_min               =  -1.5129009742262E+00
(PID.TID 0000.0001) %MON forcing_fv_mean              =  -1.3738687347566E-03
(PID.TID 0000.0001) %MON forcing_fv_sd                =   1.0644342252992E-01
(PID.TID 0000.0001) %MON forcing_fv_del2              =   1.5542840973079E-04
(PID.TID 0000.0001) %MON trAdv_CFL_u_max              =   2.9530135665111E-02
(PID.TID 0000.0001) %MON trAdv_CFL_v_max              =   2.2782775348991E-02
(PID.TID 0000.0001) %MON trAdv_CFL_w_max              =   1.1151893968146E-01
(PID.TID 0000.0001) %MON advcfl_uvel_max              =   2.9925142365274E-02
(PID.TID 0000.0001) %MON advcfl_vvel_max              =   2.2418805073072E-02
(PID.TID 0000.0001) %MON advcfl_wvel_max              =   1.0555168351417E-01
(PID.TID 0000.0001) %MON advcfl_W_hf_max              =   1.1151893968146E-01
(PID.TID 0000.0001) %MON pe_b_mean                    =   1.7700693896853E-03
(PID.TID 0000.0001) %MON ke_max                       =   2.9045306451482E+00
(PID.TID 0000.0001) %MON ke_mean                      =   8.6566704238903E-04
(PID.TID 0000.0001) %MON ke_vol                       =   1.3350064351420E+18
(PID.TID 0000.0001) %MON vort_r_min                   =  -1.0184506082235E-04
(PID.TID 0000.0001) %MON vort_r_max                   =   1.0932400948150E-04
(PID.TID 0000.0001) %MON vort_a_mean                  =  -1.9725072698678E-05
(PID.TID 0000.0001) %MON vort_a_sd                    =   7.4539125606614E-05
(PID.TID 0000.0001) %MON vort_p_mean                  =  -2.1669077246714E-05
(PID.TID 0000.0001) %MON vort_p_sd                    =   9.3607002793257E-05
(PID.TID 0000.0001) %MON surfExpan_theta_mean         =   4.6436160063339E-06
(PID.TID 0000.0001) %MON surfExpan_salt_mean          =   2.0687629305052E-06
(PID.TID 0000.0001) // =======================================================
(PID.TID 0000.0001) // End MONITOR dynamic field statistics
(PID.TID 0000.0001) // =======================================================
(PID.TID 0000.0001) // =======================================================
(PID.TID 0000.0001) // Begin MONITOR SEAICE statistics
(PID.TID 0000.0001) // =======================================================
(PID.TID 0000.0001) %MON seaice_tsnumber              =                174744
(PID.TID 0000.0001) %MON seaice_time_sec              =   7.8634800000000E+07
(PID.TID 0000.0001) %MON seaice_uice_max              =   1.4519637480634E+00
(PID.TID 0000.0001) %MON seaice_uice_min              =  -2.1144401447173E+00
(PID.TID 0000.0001) %MON seaice_uice_mean             =  -7.1177665678360E-04
(PID.TID 0000.0001) %MON seaice_uice_sd               =   1.5308736488631E-01
(PID.TID 0000.0001) %MON seaice_uice_del2             =   3.3865325337785E-04
(PID.TID 0000.0001) %MON seaice_vice_max              =   1.3660736918277E+00
(PID.TID 0000.0001) %MON seaice_vice_min              =  -1.4515645287912E+00
(PID.TID 0000.0001) %MON seaice_vice_mean             =  -2.2911321499099E-02
(PID.TID 0000.0001) %MON seaice_vice_sd               =   1.6376656110707E-01
(PID.TID 0000.0001) %MON seaice_vice_del2             =   3.1965171546967E-04
(PID.TID 0000.0001) %MON seaice_area_max              =   1.0045638166017E+00
(PID.TID 0000.0001) %MON seaice_area_min              =   0.0000000000000E+00
(PID.TID 0000.0001) %MON seaice_area_mean             =   5.7353688578827E-02
(PID.TID 0000.0001) %MON seaice_area_sd               =   2.2136101457647E-01
(PID.TID 0000.0001) %MON seaice_area_del2             =   3.0154666203836E-04
(PID.TID 0000.0001) %MON seaice_heff_max              =   9.9489384151152E+00
(PID.TID 0000.0001) %MON seaice_heff_min              =   0.0000000000000E+00
(PID.TID 0000.0001) %MON seaice_heff_mean             =   1.4987547674226E-01
(PID.TID 0000.0001) %MON seaice_heff_sd               =   7.2100101952984E-01
(PID.TID 0000.0001) %MON seaice_heff_del2             =   1.4252343236742E-03
(PID.TID 0000.0001) %MON seaice_hsnow_max             =   3.2861646141839E+00
(PID.TID 0000.0001) %MON seaice_hsnow_min             =   0.0000000000000E+00
(PID.TID 0000.0001) %MON seaice_hsnow_mean            =   1.2694015968571E-02
(PID.TID 0000.0001) %MON seaice_hsnow_sd              =   6.8716020651518E-02
(PID.TID 0000.0001) %MON seaice_hsnow_del2            =   3.9535242217189E-04
(PID.TID 0000.0001) // =======================================================
(PID.TID 0000.0001) // End MONITOR SEAICE statistics
(PID.TID 0000.0001) // =======================================================
(PID.TID 0000.0001) // =======================================================
(PID.TID 0000.0001) // Begin MONITOR dynamic field statistics
(PID.TID 0000.0001) // =======================================================
(PID.TID 0000.0001) %MON time_tsnumber                =                174745
(PID.TID 0000.0001) %MON time_secondsf                =   7.8635250000000E+07
(PID.TID 0000.0001) %MON dynstat_eta_max              =   2.7176611817229E+00
(PID.TID 0000.0001) %MON dynstat_eta_min              =  -1.1274319846309E+01
(PID.TID 0000.0001) %MON dynstat_eta_mean             =   6.3754698014506E-02
(PID.TID 0000.0001) %MON dynstat_eta_sd               =   8.4805666473744E-01
(PID.TID 0000.0001) %MON dynstat_eta_del2             =   2.0137782719374E-03
(PID.TID 0000.0001) %MON dynstat_uvel_max             =   2.0156006193517E+00
(PID.TID 0000.0001) %MON dynstat_uvel_min             =  -2.8650151585386E+00
(PID.TID 0000.0001) %MON dynstat_uvel_mean            =   1.0429318198275E-03
(PID.TID 0000.0001) %MON dynstat_uvel_sd              =   2.9388846755808E-02
(PID.TID 0000.0001) %MON dynstat_uvel_del2            =   3.3886432908166E-05
(PID.TID 0000.0001) %MON dynstat_vvel_max             =   2.1890380402177E+00
(PID.TID 0000.0001) %MON dynstat_vvel_min             =  -2.0746467673231E+00
(PID.TID 0000.0001) %MON dynstat_vvel_mean            =   1.8829350738153E-03
(PID.TID 0000.0001) %MON dynstat_vvel_sd              =   3.0434080284793E-02
(PID.TID 0000.0001) %MON dynstat_vvel_del2            =   3.1990588280183E-05
(PID.TID 0000.0001) %MON dynstat_wvel_max             =   7.5635735823757E-03
(PID.TID 0000.0001) %MON dynstat_wvel_min             =  -9.7038599101153E-03
(PID.TID 0000.0001) %MON dynstat_wvel_mean            =   1.9141305145972E-07
(PID.TID 0000.0001) %MON dynstat_wvel_sd              =   9.7201488647260E-05
(PID.TID 0000.0001) %MON dynstat_wvel_del2            =   2.2845100117368E-07
(PID.TID 0000.0001) %MON dynstat_theta_max            =   3.2504634348697E+01
(PID.TID 0000.0001) %MON dynstat_theta_min            =  -2.0331808831782E+00
(PID.TID 0000.0001) %MON dynstat_theta_mean           =   3.5921355848195E+00
(PID.TID 0000.0001) %MON dynstat_theta_sd             =   4.4421787151354E+00
(PID.TID 0000.0001) %MON dynstat_theta_del2           =   1.2216410466590E-04
(PID.TID 0000.0001) %MON dynstat_salt_max             =   4.0655991878731E+01
(PID.TID 0000.0001) %MON dynstat_salt_min             =   1.6114071304392E+01
(PID.TID 0000.0001) %MON dynstat_salt_mean            =   3.4724817943224E+01
(PID.TID 0000.0001) %MON dynstat_salt_sd              =   3.7966675677998E-01
(PID.TID 0000.0001) %MON dynstat_salt_del2            =   6.9175783578389E-05
(PID.TID 0000.0001) %MON dynstat_sst_max              =   3.2504634348697E+01
(PID.TID 0000.0001) %MON dynstat_sst_min              =  -2.0331808831782E+00
(PID.TID 0000.0001) %MON dynstat_sst_mean             =   1.8181547331550E+01
(PID.TID 0000.0001) %MON dynstat_sst_sd               =   1.0168774587235E+01
(PID.TID 0000.0001) %MON dynstat_sst_del2             =   1.1103091296242E-03
(PID.TID 0000.0001) %MON dynstat_sss_max              =   3.9472980248537E+01
(PID.TID 0000.0001) %MON dynstat_sss_min              =   1.6114071304392E+01
(PID.TID 0000.0001) %MON dynstat_sss_mean             =   3.4646588722659E+01
(PID.TID 0000.0001) %MON dynstat_sss_sd               =   1.2931944422100E+00
(PID.TID 0000.0001) %MON dynstat_sss_del2             =   1.4606658424994E-03
(PID.TID 0000.0001) %MON forcing_qnet_max             =   1.9792770996094E+03
(PID.TID 0000.0001) %MON forcing_qnet_min             =  -3.8600669118486E+03
(PID.TID 0000.0001) %MON forcing_qnet_mean            =  -2.5121213163631E+01
(PID.TID 0000.0001) %MON forcing_qnet_sd              =   2.3146785894202E+02
(PID.TID 0000.0001) %MON forcing_qnet_del2            =   5.5868206956945E-01
(PID.TID 0000.0001) %MON forcing_qsw_max              =   0.0000000000000E+00
(PID.TID 0000.0001) %MON forcing_qsw_min              =  -1.1273095841103E+02
(PID.TID 0000.0001) %MON forcing_qsw_mean             =  -2.2494419777447E+01
(PID.TID 0000.0001) %MON forcing_qsw_sd               =   3.2528529200678E+01
(PID.TID 0000.0001) %MON forcing_qsw_del2             =   2.0431059489339E-02
(PID.TID 0000.0001) %MON forcing_empmr_max            =   2.1053601056337E-02
(PID.TID 0000.0001) %MON forcing_empmr_min            =  -1.3978247344494E-01
(PID.TID 0000.0001) %MON forcing_empmr_mean           =   3.3142909967522E-06
(PID.TID 0000.0001) %MON forcing_empmr_sd             =   4.9873552936505E-04
(PID.TID 0000.0001) %MON forcing_empmr_del2           =   5.6812764069124E-06
(PID.TID 0000.0001) %MON forcing_fu_max               =   9.6576815179607E-01
(PID.TID 0000.0001) %MON forcing_fu_min               =  -6.9190636277199E-01
(PID.TID 0000.0001) %MON forcing_fu_mean              =   9.4878405937840E-03
(PID.TID 0000.0001) %MON forcing_fu_sd                =   1.2092252712462E-01
(PID.TID 0000.0001) %MON forcing_fu_del2              =   1.5896689264605E-04
(PID.TID 0000.0001) %MON forcing_fv_max               =   9.1819599270821E-01
(PID.TID 0000.0001) %MON forcing_fv_min               =  -1.5134550291587E+00
(PID.TID 0000.0001) %MON forcing_fv_mean              =  -1.3437424987664E-03
(PID.TID 0000.0001) %MON forcing_fv_sd                =   1.0643381647323E-01
(PID.TID 0000.0001) %MON forcing_fv_del2              =   1.5536541347969E-04
(PID.TID 0000.0001) %MON trAdv_CFL_u_max              =   2.9551654202451E-02
(PID.TID 0000.0001) %MON trAdv_CFL_v_max              =   2.2849732372870E-02
(PID.TID 0000.0001) %MON trAdv_CFL_w_max              =   1.1148375263200E-01
(PID.TID 0000.0001) %MON advcfl_uvel_max              =   2.9946948743026E-02
(PID.TID 0000.0001) %MON advcfl_vvel_max              =   2.2484692413119E-02
(PID.TID 0000.0001) %MON advcfl_wvel_max              =   1.0550266584338E-01
(PID.TID 0000.0001) %MON advcfl_W_hf_max              =   1.1148375263200E-01
(PID.TID 0000.0001) %MON pe_b_mean                    =   1.7677698260597E-03
(PID.TID 0000.0001) %MON ke_max                       =   2.9103443265584E+00
(PID.TID 0000.0001) %MON ke_mean                      =   8.6533022843115E-04
(PID.TID 0000.0001) %MON ke_vol                       =   1.3350064351420E+18
(PID.TID 0000.0001) %MON vort_r_min                   =  -1.0187458716289E-04
(PID.TID 0000.0001) %MON vort_r_max                   =   1.0944288982295E-04
(PID.TID 0000.0001) %MON vort_a_mean                  =  -1.9725072595983E-05
(PID.TID 0000.0001) %MON vort_a_sd                    =   7.4539136414572E-05
(PID.TID 0000.0001) %MON vort_p_mean                  =  -2.1669077133898E-05
(PID.TID 0000.0001) %MON vort_p_sd                    =   9.3607050334937E-05
(PID.TID 0000.0001) %MON surfExpan_theta_mean         =   4.9792289567700E-06
(PID.TID 0000.0001) %MON surfExpan_salt_mean          =   3.2726119244917E-06
(PID.TID 0000.0001) // =======================================================
(PID.TID 0000.0001) // End MONITOR dynamic field statistics
(PID.TID 0000.0001) // =======================================================
(PID.TID 0000.0001) // =======================================================
(PID.TID 0000.0001) // Begin MONITOR SEAICE statistics
(PID.TID 0000.0001) // =======================================================
(PID.TID 0000.0001) %MON seaice_tsnumber              =                174745
(PID.TID 0000.0001) %MON seaice_time_sec              =   7.8635250000000E+07
(PID.TID 0000.0001) %MON seaice_uice_max              =   1.4522929859132E+00
(PID.TID 0000.0001) %MON seaice_uice_min              =  -2.1268519430322E+00
(PID.TID 0000.0001) %MON seaice_uice_mean             =  -7.4318972703612E-04
(PID.TID 0000.0001) %MON seaice_uice_sd               =   1.5309079791062E-01
(PID.TID 0000.0001) %MON seaice_uice_del2             =   3.3900544172874E-04
(PID.TID 0000.0001) %MON seaice_vice_max              =   1.3155442450516E+00
(PID.TID 0000.0001) %MON seaice_vice_min              =  -1.4523408099353E+00
(PID.TID 0000.0001) %MON seaice_vice_mean             =  -2.2834625124502E-02
(PID.TID 0000.0001) %MON seaice_vice_sd               =   1.6389284393421E-01
(PID.TID 0000.0001) %MON seaice_vice_del2             =   3.2007233704267E-04
(PID.TID 0000.0001) %MON seaice_area_max              =   1.0045743576578E+00
(PID.TID 0000.0001) %MON seaice_area_min              =   0.0000000000000E+00
(PID.TID 0000.0001) %MON seaice_area_mean             =   5.7355559599616E-02
(PID.TID 0000.0001) %MON seaice_area_sd               =   2.2135518410710E-01
(PID.TID 0000.0001) %MON seaice_area_del2             =   3.0134828322297E-04
(PID.TID 0000.0001) %MON seaice_heff_max              =   9.9489279445159E+00
(PID.TID 0000.0001) %MON seaice_heff_min              =   0.0000000000000E+00
(PID.TID 0000.0001) %MON seaice_heff_mean             =   1.4987177096924E-01
(PID.TID 0000.0001) %MON seaice_heff_sd               =   7.2098946476697E-01
(PID.TID 0000.0001) %MON seaice_heff_del2             =   1.4244784432098E-03
(PID.TID 0000.0001) %MON seaice_hsnow_max             =   3.2861608071307E+00
(PID.TID 0000.0001) %MON seaice_hsnow_min             =   0.0000000000000E+00
(PID.TID 0000.0001) %MON seaice_hsnow_mean            =   1.2693229866924E-02
(PID.TID 0000.0001) %MON seaice_hsnow_sd              =   6.8708350987449E-02
(PID.TID 0000.0001) %MON seaice_hsnow_del2            =   3.9509211408437E-04
(PID.TID 0000.0001) // =======================================================
(PID.TID 0000.0001) // End MONITOR SEAICE statistics
(PID.TID 0000.0001) // =======================================================
(PID.TID 0000.0001) // =======================================================
(PID.TID 0000.0001) // Begin MONITOR dynamic field statistics
(PID.TID 0000.0001) // =======================================================
(PID.TID 0000.0001) %MON time_tsnumber                =                174746
(PID.TID 0000.0001) %MON time_secondsf                =   7.8635700000000E+07
(PID.TID 0000.0001) %MON dynstat_eta_max              =   2.6592025783653E+00
(PID.TID 0000.0001) %MON dynstat_eta_min              =  -1.1241412291145E+01
(PID.TID 0000.0001) %MON dynstat_eta_mean             =   6.3765939459422E-02
(PID.TID 0000.0001) %MON dynstat_eta_sd               =   8.4772808357126E-01
(PID.TID 0000.0001) %MON dynstat_eta_del2             =   2.0134817823760E-03
(PID.TID 0000.0001) %MON dynstat_uvel_max             =   2.0280157006446E+00
(PID.TID 0000.0001) %MON dynstat_uvel_min             =  -2.8667447558517E+00
(PID.TID 0000.0001) %MON dynstat_uvel_mean            =   1.1096775192686E-03
(PID.TID 0000.0001) %MON dynstat_uvel_sd              =   2.9366372780289E-02
(PID.TID 0000.0001) %MON dynstat_uvel_del2            =   3.3960877233917E-05
(PID.TID 0000.0001) %MON dynstat_vvel_max             =   2.1737838956911E+00
(PID.TID 0000.0001) %MON dynstat_vvel_min             =  -2.0830511092989E+00
(PID.TID 0000.0001) %MON dynstat_vvel_mean            =   1.9270957821738E-03
(PID.TID 0000.0001) %MON dynstat_vvel_sd              =   3.0440607410403E-02
(PID.TID 0000.0001) %MON dynstat_vvel_del2            =   3.2045853929858E-05
(PID.TID 0000.0001) %MON dynstat_wvel_max             =   7.5350849619606E-03
(PID.TID 0000.0001) %MON dynstat_wvel_min             =  -9.6744783995729E-03
(PID.TID 0000.0001) %MON dynstat_wvel_mean            =   2.1895381940078E-07
(PID.TID 0000.0001) %MON dynstat_wvel_sd              =   9.7408238442240E-05
(PID.TID 0000.0001) %MON dynstat_wvel_del2            =   2.2910634925568E-07
(PID.TID 0000.0001) %MON dynstat_theta_max            =   3.2501933938039E+01
(PID.TID 0000.0001) %MON dynstat_theta_min            =  -2.0334954365876E+00
(PID.TID 0000.0001) %MON dynstat_theta_mean           =   3.5921356117570E+00
(PID.TID 0000.0001) %MON dynstat_theta_sd             =   4.4421805207087E+00
(PID.TID 0000.0001) %MON dynstat_theta_del2           =   1.2222254488574E-04
(PID.TID 0000.0001) %MON dynstat_salt_max             =   4.0655991878653E+01
(PID.TID 0000.0001) %MON dynstat_salt_min             =   1.6112743295561E+01
(PID.TID 0000.0001) %MON dynstat_salt_mean            =   3.4724817307465E+01
(PID.TID 0000.0001) %MON dynstat_salt_sd              =   3.7966785945724E-01
(PID.TID 0000.0001) %MON dynstat_salt_del2            =   6.9112179258189E-05
(PID.TID 0000.0001) %MON dynstat_sst_max              =   3.2501933938039E+01
(PID.TID 0000.0001) %MON dynstat_sst_min              =  -2.0334954365876E+00
(PID.TID 0000.0001) %MON dynstat_sst_mean             =   1.8181703062248E+01
(PID.TID 0000.0001) %MON dynstat_sst_sd               =   1.0169065307655E+01
(PID.TID 0000.0001) %MON dynstat_sst_del2             =   1.1100260268313E-03
(PID.TID 0000.0001) %MON dynstat_sss_max              =   3.9472475006943E+01
(PID.TID 0000.0001) %MON dynstat_sss_min              =   1.6112743295561E+01
(PID.TID 0000.0001) %MON dynstat_sss_mean             =   3.4646529274723E+01
(PID.TID 0000.0001) %MON dynstat_sss_sd               =   1.2933060220138E+00
(PID.TID 0000.0001) %MON dynstat_sss_del2             =   1.4612563024691E-03
(PID.TID 0000.0001) %MON forcing_qnet_max             =   1.9076883544922E+03
(PID.TID 0000.0001) %MON forcing_qnet_min             =  -2.4769650878906E+03
(PID.TID 0000.0001) %MON forcing_qnet_mean            =  -2.5679412784199E+01
(PID.TID 0000.0001) %MON forcing_qnet_sd              =   2.3112822770163E+02
(PID.TID 0000.0001) %MON forcing_qnet_del2            =   5.1836768700673E-01
(PID.TID 0000.0001) %MON forcing_qsw_max              =   0.0000000000000E+00
(PID.TID 0000.0001) %MON forcing_qsw_min              =  -1.1274057260741E+02
(PID.TID 0000.0001) %MON forcing_qsw_mean             =  -2.2579695384449E+01
(PID.TID 0000.0001) %MON forcing_qsw_sd               =   3.2601691156029E+01
(PID.TID 0000.0001) %MON forcing_qsw_del2             =   2.0407608065814E-02
(PID.TID 0000.0001) %MON forcing_empmr_max            =   2.1062010899186E-02
(PID.TID 0000.0001) %MON forcing_empmr_min            =  -6.5018147230148E-02
(PID.TID 0000.0001) %MON forcing_empmr_mean           =   3.6749806252771E-06
(PID.TID 0000.0001) %MON forcing_empmr_sd             =   4.3328084214139E-04
(PID.TID 0000.0001) %MON forcing_empmr_del2           =   4.9170074916346E-06
(PID.TID 0000.0001) %MON forcing_fu_max               =   9.7248222114100E-01
(PID.TID 0000.0001) %MON forcing_fu_min               =  -6.9029465317726E-01
(PID.TID 0000.0001) %MON forcing_fu_mean              =   9.4600922262804E-03
(PID.TID 0000.0001) %MON forcing_fu_sd                =   1.2095941373425E-01
(PID.TID 0000.0001) %MON forcing_fu_del2              =   1.5888561501739E-04
(PID.TID 0000.0001) %MON forcing_fv_max               =   9.3142509460449E-01
(PID.TID 0000.0001) %MON forcing_fv_min               =  -1.5128535068632E+00
(PID.TID 0000.0001) %MON forcing_fv_mean              =  -1.3139523330261E-03
(PID.TID 0000.0001) %MON forcing_fv_sd                =   1.0643296069936E-01
(PID.TID 0000.0001) %MON forcing_fv_del2              =   1.5541341570328E-04
(PID.TID 0000.0001) %MON trAdv_CFL_u_max              =   2.9569494408829E-02
(PID.TID 0000.0001) %MON trAdv_CFL_v_max              =   2.2910966074752E-02
(PID.TID 0000.0001) %MON trAdv_CFL_w_max              =   1.1140298109662E-01
(PID.TID 0000.0001) %MON advcfl_uvel_max              =   2.9965027587017E-02
(PID.TID 0000.0001) %MON advcfl_vvel_max              =   2.2544947865116E-02
(PID.TID 0000.0001) %MON advcfl_wvel_max              =   1.0540953189157E-01
(PID.TID 0000.0001) %MON advcfl_W_hf_max              =   1.1140298109662E-01
(PID.TID 0000.0001) %MON pe_b_mean                    =   1.7659816081975E-03
(PID.TID 0000.0001) %MON ke_max                       =   2.9153198196206E+00
(PID.TID 0000.0001) %MON ke_mean                      =   8.6503566244341E-04
(PID.TID 0000.0001) %MON ke_vol                       =   1.3350064351420E+18
(PID.TID 0000.0001) %MON vort_r_min                   =  -1.0188734961727E-04
(PID.TID 0000.0001) %MON vort_r_max                   =   1.0954517623512E-04
(PID.TID 0000.0001) %MON vort_a_mean                  =  -1.9725072478066E-05
(PID.TID 0000.0001) %MON vort_a_sd                    =   7.4539147421362E-05
(PID.TID 0000.0001) %MON vort_p_mean                  =  -2.1669077004360E-05
(PID.TID 0000.0001) %MON vort_p_sd                    =   9.3607099606302E-05
(PID.TID 0000.0001) %MON surfExpan_theta_mean         =   5.3615335053896E-06
(PID.TID 0000.0001) %MON surfExpan_salt_mean          =   4.4945733846063E-06
(PID.TID 0000.0001) // =======================================================
(PID.TID 0000.0001) // End MONITOR dynamic field statistics
(PID.TID 0000.0001) // =======================================================
(PID.TID 0000.0001) // =======================================================
(PID.TID 0000.0001) // Begin MONITOR SEAICE statistics
(PID.TID 0000.0001) // =======================================================
(PID.TID 0000.0001) %MON seaice_tsnumber              =                174746
(PID.TID 0000.0001) %MON seaice_time_sec              =   7.8635700000000E+07
(PID.TID 0000.0001) %MON seaice_uice_max              =   1.4524881894729E+00
(PID.TID 0000.0001) %MON seaice_uice_min              =  -2.1354709360250E+00
(PID.TID 0000.0001) %MON seaice_uice_mean             =  -7.6565110614468E-04
(PID.TID 0000.0001) %MON seaice_uice_sd               =   1.5309251564074E-01
(PID.TID 0000.0001) %MON seaice_uice_del2             =   3.3939003920096E-04
(PID.TID 0000.0001) %MON seaice_vice_max              =   1.3330408389672E+00
(PID.TID 0000.0001) %MON seaice_vice_min              =  -1.4531010027152E+00
(PID.TID 0000.0001) %MON seaice_vice_mean             =  -2.2754575885209E-02
(PID.TID 0000.0001) %MON seaice_vice_sd               =   1.6402292926153E-01
(PID.TID 0000.0001) %MON seaice_vice_del2             =   3.2046358582125E-04
(PID.TID 0000.0001) %MON seaice_area_max              =   1.0045724236421E+00
(PID.TID 0000.0001) %MON seaice_area_min              =   0.0000000000000E+00
(PID.TID 0000.0001) %MON seaice_area_mean             =   5.7357449865032E-02
(PID.TID 0000.0001) %MON seaice_area_sd               =   2.2134944219060E-01
(PID.TID 0000.0001) %MON seaice_area_del2             =   3.0115346907396E-04
(PID.TID 0000.0001) %MON seaice_heff_max              =   9.9489184332066E+00
(PID.TID 0000.0001) %MON seaice_heff_min              =   0.0000000000000E+00
(PID.TID 0000.0001) %MON seaice_heff_mean             =   1.4986806765550E-01
(PID.TID 0000.0001) %MON seaice_heff_sd               =   7.2097796713482E-01
(PID.TID 0000.0001) %MON seaice_heff_del2             =   1.4237267682356E-03
(PID.TID 0000.0001) %MON seaice_hsnow_max             =   3.2861579495353E+00
(PID.TID 0000.0001) %MON seaice_hsnow_min             =   0.0000000000000E+00
(PID.TID 0000.0001) %MON seaice_hsnow_mean            =   1.2692462671365E-02
(PID.TID 0000.0001) %MON seaice_hsnow_sd              =   6.8700728998863E-02
(PID.TID 0000.0001) %MON seaice_hsnow_del2            =   3.9483329906857E-04
(PID.TID 0000.0001) // =======================================================
(PID.TID 0000.0001) // End MONITOR SEAICE statistics
(PID.TID 0000.0001) // =======================================================
(PID.TID 0000.0001) // =======================================================
(PID.TID 0000.0001) // Begin MONITOR dynamic field statistics
(PID.TID 0000.0001) // =======================================================
(PID.TID 0000.0001) %MON time_tsnumber                =                174747
(PID.TID 0000.0001) %MON time_secondsf                =   7.8636150000000E+07
(PID.TID 0000.0001) %MON dynstat_eta_max              =   2.5824493848139E+00
(PID.TID 0000.0001) %MON dynstat_eta_min              =  -1.1213023728849E+01
(PID.TID 0000.0001) %MON dynstat_eta_mean             =   6.3794773856497E-02
(PID.TID 0000.0001) %MON dynstat_eta_sd               =   8.4740488096984E-01
(PID.TID 0000.0001) %MON dynstat_eta_del2             =   2.0131632862907E-03
(PID.TID 0000.0001) %MON dynstat_uvel_max             =   2.0400745908596E+00
(PID.TID 0000.0001) %MON dynstat_uvel_min             =  -2.8681324180023E+00
(PID.TID 0000.0001) %MON dynstat_uvel_mean            =   1.1810986055051E-03
(PID.TID 0000.0001) %MON dynstat_uvel_sd              =   2.9345889022891E-02
(PID.TID 0000.0001) %MON dynstat_uvel_del2            =   3.4034434128510E-05
(PID.TID 0000.0001) %MON dynstat_vvel_max             =   2.1570604285384E+00
(PID.TID 0000.0001) %MON dynstat_vvel_min             =  -2.0910742528642E+00
(PID.TID 0000.0001) %MON dynstat_vvel_mean            =   1.9697348509568E-03
(PID.TID 0000.0001) %MON dynstat_vvel_sd              =   3.0445981323328E-02
(PID.TID 0000.0001) %MON dynstat_vvel_del2            =   3.2099644933758E-05
(PID.TID 0000.0001) %MON dynstat_wvel_max             =   7.5042916990167E-03
(PID.TID 0000.0001) %MON dynstat_wvel_min             =  -9.6425752139209E-03
(PID.TID 0000.0001) %MON dynstat_wvel_mean            =   2.4687810618404E-07
(PID.TID 0000.0001) %MON dynstat_wvel_sd              =   9.7619707200391E-05
(PID.TID 0000.0001) %MON dynstat_wvel_del2            =   2.2976665045575E-07
(PID.TID 0000.0001) %MON dynstat_theta_max            =   3.2499147138235E+01
(PID.TID 0000.0001) %MON dynstat_theta_min            =  -2.0338127880274E+00
(PID.TID 0000.0001) %MON dynstat_theta_mean           =   3.5921356044694E+00
(PID.TID 0000.0001) %MON dynstat_theta_sd             =   4.4421822300154E+00
(PID.TID 0000.0001) %MON dynstat_theta_del2           =   1.2228085484449E-04
(PID.TID 0000.0001) %MON dynstat_salt_max             =   4.0655991878575E+01
(PID.TID 0000.0001) %MON dynstat_salt_min             =   1.6111422726075E+01
(PID.TID 0000.0001) %MON dynstat_salt_mean            =   3.4724816693815E+01
(PID.TID 0000.0001) %MON dynstat_salt_sd              =   3.7966894143705E-01
(PID.TID 0000.0001) %MON dynstat_salt_del2            =   6.9047675420142E-05
(PID.TID 0000.0001) %MON dynstat_sst_max              =   3.2499147138235E+01
(PID.TID 0000.0001) %MON dynstat_sst_min              =  -2.0338127880274E+00
(PID.TID 0000.0001) %MON dynstat_sst_mean             =   1.8181852142289E+01
(PID.TID 0000.0001) %MON dynstat_sst_sd               =   1.0169347626343E+01
(PID.TID 0000.0001) %MON dynstat_sst_del2             =   1.1097233402585E-03
(PID.TID 0000.0001) %MON dynstat_sss_max              =   3.9471999953981E+01
(PID.TID 0000.0001) %MON dynstat_sss_min              =   1.6111422726075E+01
(PID.TID 0000.0001) %MON dynstat_sss_mean             =   3.4646471600942E+01
(PID.TID 0000.0001) %MON dynstat_sss_sd               =   1.2934175842671E+00
(PID.TID 0000.0001) %MON dynstat_sss_del2             =   1.4617718161289E-03
(PID.TID 0000.0001) %MON forcing_qnet_max             =   2.0487617187500E+03
(PID.TID 0000.0001) %MON forcing_qnet_min             =  -1.1943246127108E+03
(PID.TID 0000.0001) %MON forcing_qnet_mean            =  -2.5816012996349E+01
(PID.TID 0000.0001) %MON forcing_qnet_sd              =   2.3179788259685E+02
(PID.TID 0000.0001) %MON forcing_qnet_del2            =   5.0838886982965E-01
(PID.TID 0000.0001) %MON forcing_qsw_max              =   0.0000000000000E+00
(PID.TID 0000.0001) %MON forcing_qsw_min              =  -1.1268432114154E+02
(PID.TID 0000.0001) %MON forcing_qsw_mean             =  -2.2653177668371E+01
(PID.TID 0000.0001) %MON forcing_qsw_sd               =   3.2658593348423E+01
(PID.TID 0000.0001) %MON forcing_qsw_del2             =   2.0379423889472E-02
(PID.TID 0000.0001) %MON forcing_empmr_max            =   1.6184799373150E-01
(PID.TID 0000.0001) %MON forcing_empmr_min            =  -5.2203234285116E-02
(PID.TID 0000.0001) %MON forcing_empmr_mean           =   4.7949510803960E-06
(PID.TID 0000.0001) %MON forcing_empmr_sd             =   5.2790475876041E-04
(PID.TID 0000.0001) %MON forcing_empmr_del2           =   6.0113873125349E-06
(PID.TID 0000.0001) %MON forcing_fu_max               =   9.7656554692762E-01
(PID.TID 0000.0001) %MON forcing_fu_min               =  -6.8701249361038E-01
(PID.TID 0000.0001) %MON forcing_fu_mean              =   9.4360174767953E-03
(PID.TID 0000.0001) %MON forcing_fu_sd                =   1.2098771722725E-01
(PID.TID 0000.0001) %MON forcing_fu_del2              =   1.5879934494193E-04
(PID.TID 0000.0001) %MON forcing_fv_max               =   9.4144412875176E-01
(PID.TID 0000.0001) %MON forcing_fv_min               =  -1.5110117146880E+00
(PID.TID 0000.0001) %MON forcing_fv_mean              =  -1.2784023845662E-03
(PID.TID 0000.0001) %MON forcing_fv_sd                =   1.0642516881067E-01
(PID.TID 0000.0001) %MON forcing_fv_del2              =   1.5536605859312E-04
(PID.TID 0000.0001) %MON trAdv_CFL_u_max              =   2.9583807670629E-02
(PID.TID 0000.0001) %MON trAdv_CFL_v_max              =   2.2966331998491E-02
(PID.TID 0000.0001) %MON trAdv_CFL_w_max              =   1.1127739373973E-01
(PID.TID 0000.0001) %MON advcfl_uvel_max              =   2.9979532308631E-02
(PID.TID 0000.0001) %MON advcfl_vvel_max              =   2.2599429280702E-02
(PID.TID 0000.0001) %MON advcfl_wvel_max              =   1.0527283593672E-01
(PID.TID 0000.0001) %MON advcfl_W_hf_max              =   1.1127739373973E-01
(PID.TID 0000.0001) %MON pe_b_mean                    =   1.7647165821856E-03
(PID.TID 0000.0001) %MON ke_max                       =   2.9194797550276E+00
(PID.TID 0000.0001) %MON ke_mean                      =   8.6477267259034E-04
(PID.TID 0000.0001) %MON ke_vol                       =   1.3350064351420E+18
(PID.TID 0000.0001) %MON vort_r_min                   =  -1.0188379298878E-04
(PID.TID 0000.0001) %MON vort_r_max                   =   1.0963130944032E-04
(PID.TID 0000.0001) %MON vort_a_mean                  =  -1.9725072348882E-05
(PID.TID 0000.0001) %MON vort_a_sd                    =   7.4539158607740E-05
(PID.TID 0000.0001) %MON vort_p_mean                  =  -2.1669076862444E-05
(PID.TID 0000.0001) %MON vort_p_sd                    =   9.3607150511115E-05
(PID.TID 0000.0001) %MON surfExpan_theta_mean         =   5.7855528255677E-06
(PID.TID 0000.0001) %MON surfExpan_salt_mean          =   5.7293282069255E-06
(PID.TID 0000.0001) // =======================================================
(PID.TID 0000.0001) // End MONITOR dynamic field statistics
(PID.TID 0000.0001) // =======================================================
(PID.TID 0000.0001) // =======================================================
(PID.TID 0000.0001) // Begin MONITOR SEAICE statistics
(PID.TID 0000.0001) // =======================================================
(PID.TID 0000.0001) %MON seaice_tsnumber              =                174747
(PID.TID 0000.0001) %MON seaice_time_sec              =   7.8636150000000E+07
(PID.TID 0000.0001) %MON seaice_uice_max              =   1.4529181125257E+00
(PID.TID 0000.0001) %MON seaice_uice_min              =  -2.1400345326914E+00
(PID.TID 0000.0001) %MON seaice_uice_mean             =  -7.8991623368432E-04
(PID.TID 0000.0001) %MON seaice_uice_sd               =   1.5310491666409E-01
(PID.TID 0000.0001) %MON seaice_uice_del2             =   3.3978914108416E-04
(PID.TID 0000.0001) %MON seaice_vice_max              =   1.3645328551933E+00
(PID.TID 0000.0001) %MON seaice_vice_min              =  -1.4538414086871E+00
(PID.TID 0000.0001) %MON seaice_vice_mean             =  -2.2678957748723E-02
(PID.TID 0000.0001) %MON seaice_vice_sd               =   1.6415961822681E-01
(PID.TID 0000.0001) %MON seaice_vice_del2             =   3.2082164333828E-04
(PID.TID 0000.0001) %MON seaice_area_max              =   1.0045567191394E+00
(PID.TID 0000.0001) %MON seaice_area_min              =   0.0000000000000E+00
(PID.TID 0000.0001) %MON seaice_area_mean             =   5.7359391281894E-02
(PID.TID 0000.0001) %MON seaice_area_sd               =   2.2134384255752E-01
(PID.TID 0000.0001) %MON seaice_area_del2             =   3.0096455610470E-04
(PID.TID 0000.0001) %MON seaice_heff_max              =   9.9489223235837E+00
(PID.TID 0000.0001) %MON seaice_heff_min              =   0.0000000000000E+00
(PID.TID 0000.0001) %MON seaice_heff_mean             =   1.4986436752529E-01
(PID.TID 0000.0001) %MON seaice_heff_sd               =   7.2096651525343E-01
(PID.TID 0000.0001) %MON seaice_heff_del2             =   1.4229790673515E-03
(PID.TID 0000.0001) %MON seaice_hsnow_max             =   3.2861591658119E+00
(PID.TID 0000.0001) %MON seaice_hsnow_min             =   0.0000000000000E+00
(PID.TID 0000.0001) %MON seaice_hsnow_mean            =   1.2691698791318E-02
(PID.TID 0000.0001) %MON seaice_hsnow_sd              =   6.8693141653526E-02
(PID.TID 0000.0001) %MON seaice_hsnow_del2            =   3.9457592912590E-04
(PID.TID 0000.0001) // =======================================================
(PID.TID 0000.0001) // End MONITOR SEAICE statistics
(PID.TID 0000.0001) // =======================================================
(PID.TID 0000.0001) // =======================================================
(PID.TID 0000.0001) // Begin MONITOR dynamic field statistics
(PID.TID 0000.0001) // =======================================================
(PID.TID 0000.0001) %MON time_tsnumber                =                174748
(PID.TID 0000.0001) %MON time_secondsf                =   7.8636600000000E+07
(PID.TID 0000.0001) %MON dynstat_eta_max              =   2.4879889465418E+00
(PID.TID 0000.0001) %MON dynstat_eta_min              =  -1.1189633790260E+01
(PID.TID 0000.0001) %MON dynstat_eta_mean             =   6.3842475726662E-02
(PID.TID 0000.0001) %MON dynstat_eta_sd               =   8.4709080523919E-01
(PID.TID 0000.0001) %MON dynstat_eta_del2             =   2.0128743189934E-03
(PID.TID 0000.0001) %MON dynstat_uvel_max             =   2.0517859801146E+00
(PID.TID 0000.0001) %MON dynstat_uvel_min             =  -2.8691839844877E+00
(PID.TID 0000.0001) %MON dynstat_uvel_mean            =   1.2570518855769E-03
(PID.TID 0000.0001) %MON dynstat_uvel_sd              =   2.9327462564085E-02
(PID.TID 0000.0001) %MON dynstat_uvel_del2            =   3.4106768191067E-05
(PID.TID 0000.0001) %MON dynstat_vvel_max             =   2.1390410564286E+00
(PID.TID 0000.0001) %MON dynstat_vvel_min             =  -2.0987118541007E+00
(PID.TID 0000.0001) %MON dynstat_vvel_mean            =   2.0107062166459E-03
(PID.TID 0000.0001) %MON dynstat_vvel_sd              =   3.0450071462076E-02
(PID.TID 0000.0001) %MON dynstat_vvel_del2            =   3.2151834690285E-05
(PID.TID 0000.0001) %MON dynstat_wvel_max             =   7.4711847589850E-03
(PID.TID 0000.0001) %MON dynstat_wvel_min             =  -9.6078688294817E-03
(PID.TID 0000.0001) %MON dynstat_wvel_mean            =   2.7496327727729E-07
(PID.TID 0000.0001) %MON dynstat_wvel_sd              =   9.7835508866228E-05
(PID.TID 0000.0001) %MON dynstat_wvel_del2            =   2.3043237599543E-07
(PID.TID 0000.0001) %MON dynstat_theta_max            =   3.2496228455779E+01
(PID.TID 0000.0001) %MON dynstat_theta_min            =  -2.0341266658597E+00
(PID.TID 0000.0001) %MON dynstat_theta_mean           =   3.5921355684031E+00
(PID.TID 0000.0001) %MON dynstat_theta_sd             =   4.4421838914384E+00
(PID.TID 0000.0001) %MON dynstat_theta_del2           =   1.2233908169462E-04
(PID.TID 0000.0001) %MON dynstat_salt_max             =   4.0655991878497E+01
(PID.TID 0000.0001) %MON dynstat_salt_min             =   1.6110102888373E+01
(PID.TID 0000.0001) %MON dynstat_salt_mean            =   3.4724816104755E+01
(PID.TID 0000.0001) %MON dynstat_salt_sd              =   3.7966998964366E-01
(PID.TID 0000.0001) %MON dynstat_salt_del2            =   6.8985035367863E-05
(PID.TID 0000.0001) %MON dynstat_sst_max              =   3.2496228455779E+01
(PID.TID 0000.0001) %MON dynstat_sst_min              =  -2.0341266658597E+00
(PID.TID 0000.0001) %MON dynstat_sst_mean             =   1.8182014222530E+01
(PID.TID 0000.0001) %MON dynstat_sst_sd               =   1.0169639733137E+01
(PID.TID 0000.0001) %MON dynstat_sst_del2             =   1.1094877717518E-03
(PID.TID 0000.0001) %MON dynstat_sss_max              =   3.9471554482135E+01
(PID.TID 0000.0001) %MON dynstat_sss_min              =   1.6110102888373E+01
(PID.TID 0000.0001) %MON dynstat_sss_mean             =   3.4646414346391E+01
(PID.TID 0000.0001) %MON dynstat_sss_sd               =   1.2935254933179E+00
(PID.TID 0000.0001) %MON dynstat_sss_del2             =   1.4623145408077E-03
(PID.TID 0000.0001) %MON forcing_qnet_max             =   1.7417059685666E+03
(PID.TID 0000.0001) %MON forcing_qnet_min             =  -2.9432028808594E+03
(PID.TID 0000.0001) %MON forcing_qnet_mean            =  -2.6318571634371E+01
(PID.TID 0000.0001) %MON forcing_qnet_sd              =   2.3259406975918E+02
(PID.TID 0000.0001) %MON forcing_qnet_del2            =   5.3854656427274E-01
(PID.TID 0000.0001) %MON forcing_qsw_max              =   0.0000000000000E+00
(PID.TID 0000.0001) %MON forcing_qsw_min              =  -1.1251926293354E+02
(PID.TID 0000.0001) %MON forcing_qsw_mean             =  -2.2714443335708E+01
(PID.TID 0000.0001) %MON forcing_qsw_sd               =   3.2699069010382E+01
(PID.TID 0000.0001) %MON forcing_qsw_del2             =   2.0346548509645E-02
(PID.TID 0000.0001) %MON forcing_empmr_max            =   2.0645342767239E-02
(PID.TID 0000.0001) %MON forcing_empmr_min            =  -1.1530500650406E-01
(PID.TID 0000.0001) %MON forcing_empmr_mean           =   3.6756354728710E-06
(PID.TID 0000.0001) %MON forcing_empmr_sd             =   4.7364867720333E-04
(PID.TID 0000.0001) %MON forcing_empmr_del2           =   5.3866744040357E-06
(PID.TID 0000.0001) %MON forcing_fu_max               =   9.7674026296067E-01
(PID.TID 0000.0001) %MON forcing_fu_min               =  -6.8877864111087E-01
(PID.TID 0000.0001) %MON forcing_fu_mean              =   9.4252473687926E-03
(PID.TID 0000.0001) %MON forcing_fu_sd                =   1.2104161930609E-01
(PID.TID 0000.0001) %MON forcing_fu_del2              =   1.5870601740543E-04
(PID.TID 0000.0001) %MON forcing_fv_max               =   9.5014590024948E-01
(PID.TID 0000.0001) %MON forcing_fv_min               =  -1.5076178667726E+00
(PID.TID 0000.0001) %MON forcing_fv_mean              =  -1.2437663678522E-03
(PID.TID 0000.0001) %MON forcing_fv_sd                =   1.0643037936156E-01
(PID.TID 0000.0001) %MON forcing_fv_del2              =   1.5548897249544E-04
(PID.TID 0000.0001) %MON trAdv_CFL_u_max              =   2.9594654220273E-02
(PID.TID 0000.0001) %MON trAdv_CFL_v_max              =   2.3015751815197E-02
(PID.TID 0000.0001) %MON trAdv_CFL_w_max              =   1.1110858525217E-01
(PID.TID 0000.0001) %MON advcfl_uvel_max              =   2.9990523945986E-02
(PID.TID 0000.0001) %MON advcfl_vvel_max              =   2.2648059582345E-02
(PID.TID 0000.0001) %MON advcfl_wvel_max              =   1.0509401376261E-01
(PID.TID 0000.0001) %MON advcfl_W_hf_max              =   1.1110858525217E-01
(PID.TID 0000.0001) %MON pe_b_mean                    =   1.7640212903228E-03
(PID.TID 0000.0001) %MON ke_max                       =   2.9228353233030E+00
(PID.TID 0000.0001) %MON ke_mean                      =   8.6453950663157E-04
(PID.TID 0000.0001) %MON ke_vol                       =   1.3350064351420E+18
(PID.TID 0000.0001) %MON vort_r_min                   =  -1.0186425831042E-04
(PID.TID 0000.0001) %MON vort_r_max                   =   1.0970154390377E-04
(PID.TID 0000.0001) %MON vort_a_mean                  =  -1.9725072212620E-05
(PID.TID 0000.0001) %MON vort_a_sd                    =   7.4539169955733E-05
(PID.TID 0000.0001) %MON vort_p_mean                  =  -2.1669076712753E-05
(PID.TID 0000.0001) %MON vort_p_sd                    =   9.3607202856933E-05
(PID.TID 0000.0001) %MON surfExpan_theta_mean         =   6.2569023536250E-06
(PID.TID 0000.0001) %MON surfExpan_salt_mean          =   6.9688917480701E-06
(PID.TID 0000.0001) // =======================================================
(PID.TID 0000.0001) // End MONITOR dynamic field statistics
(PID.TID 0000.0001) // =======================================================
(PID.TID 0000.0001) // =======================================================
(PID.TID 0000.0001) // Begin MONITOR SEAICE statistics
(PID.TID 0000.0001) // =======================================================
(PID.TID 0000.0001) %MON seaice_tsnumber              =                174748
(PID.TID 0000.0001) %MON seaice_time_sec              =   7.8636600000000E+07
(PID.TID 0000.0001) %MON seaice_uice_max              =   1.4537904100841E+00
(PID.TID 0000.0001) %MON seaice_uice_min              =  -2.1403747522038E+00
(PID.TID 0000.0001) %MON seaice_uice_mean             =  -8.0560516822069E-04
(PID.TID 0000.0001) %MON seaice_uice_sd               =   1.5311556857729E-01
(PID.TID 0000.0001) %MON seaice_uice_del2             =   3.4020405536118E-04
(PID.TID 0000.0001) %MON seaice_vice_max              =   1.3937644980425E+00
(PID.TID 0000.0001) %MON seaice_vice_min              =  -1.4545587272456E+00
(PID.TID 0000.0001) %MON seaice_vice_mean             =  -2.2601602517258E-02
(PID.TID 0000.0001) %MON seaice_vice_sd               =   1.6429920316864E-01
(PID.TID 0000.0001) %MON seaice_vice_del2             =   3.2111521596269E-04
(PID.TID 0000.0001) %MON seaice_area_max              =   1.0045254196890E+00
(PID.TID 0000.0001) %MON seaice_area_min              =   0.0000000000000E+00
(PID.TID 0000.0001) %MON seaice_area_mean             =   5.7361356617237E-02
(PID.TID 0000.0001) %MON seaice_area_sd               =   2.2133837216244E-01
(PID.TID 0000.0001) %MON seaice_area_del2             =   3.0078138281352E-04
(PID.TID 0000.0001) %MON seaice_heff_max              =   9.9489128146130E+00
(PID.TID 0000.0001) %MON seaice_heff_min              =   0.0000000000000E+00
(PID.TID 0000.0001) %MON seaice_heff_mean             =   1.4986068034439E-01
(PID.TID 0000.0001) %MON seaice_heff_sd               =   7.2095518393788E-01
(PID.TID 0000.0001) %MON seaice_heff_del2             =   1.4222340280763E-03
(PID.TID 0000.0001) %MON seaice_hsnow_max             =   3.2861560741307E+00
(PID.TID 0000.0001) %MON seaice_hsnow_min             =   0.0000000000000E+00
(PID.TID 0000.0001) %MON seaice_hsnow_mean            =   1.2690947912880E-02
(PID.TID 0000.0001) %MON seaice_hsnow_sd              =   6.8685646620532E-02
(PID.TID 0000.0001) %MON seaice_hsnow_del2            =   3.9431949585336E-04
(PID.TID 0000.0001) // =======================================================
(PID.TID 0000.0001) // End MONITOR SEAICE statistics
(PID.TID 0000.0001) // =======================================================
(PID.TID 0000.0001) // =======================================================
(PID.TID 0000.0001) // Begin MONITOR dynamic field statistics
(PID.TID 0000.0001) // =======================================================
(PID.TID 0000.0001) %MON time_tsnumber                =                174749
(PID.TID 0000.0001) %MON time_secondsf                =   7.8637050000000E+07
(PID.TID 0000.0001) %MON dynstat_eta_max              =   2.3765691867499E+00
(PID.TID 0000.0001) %MON dynstat_eta_min              =  -1.1171616591637E+01
(PID.TID 0000.0001) %MON dynstat_eta_mean             =   6.3909086714256E-02
(PID.TID 0000.0001) %MON dynstat_eta_sd               =   8.4679024474564E-01
(PID.TID 0000.0001) %MON dynstat_eta_del2             =   2.0126058580035E-03
(PID.TID 0000.0001) %MON dynstat_uvel_max             =   2.0631653772504E+00
(PID.TID 0000.0001) %MON dynstat_uvel_min             =  -2.8699107200068E+00
(PID.TID 0000.0001) %MON dynstat_uvel_mean            =   1.3373666613280E-03
(PID.TID 0000.0001) %MON dynstat_uvel_sd              =   2.9310876215366E-02
(PID.TID 0000.0001) %MON dynstat_uvel_del2            =   3.4177714674950E-05
(PID.TID 0000.0001) %MON dynstat_vvel_max             =   2.1199085556188E+00
(PID.TID 0000.0001) %MON dynstat_vvel_min             =  -2.1059659289694E+00
(PID.TID 0000.0001) %MON dynstat_vvel_mean            =   2.0498932699125E-03
(PID.TID 0000.0001) %MON dynstat_vvel_sd              =   3.0452669384336E-02
(PID.TID 0000.0001) %MON dynstat_vvel_del2            =   3.2202271209481E-05
(PID.TID 0000.0001) %MON dynstat_wvel_max             =   7.4357809483375E-03
(PID.TID 0000.0001) %MON dynstat_wvel_min             =  -9.5701413567244E-03
(PID.TID 0000.0001) %MON dynstat_wvel_mean            =   3.0340341413331E-07
(PID.TID 0000.0001) %MON dynstat_wvel_sd              =   9.8054963215497E-05
(PID.TID 0000.0001) %MON dynstat_wvel_del2            =   2.3110410884748E-07
(PID.TID 0000.0001) %MON dynstat_theta_max            =   3.2493182582899E+01
(PID.TID 0000.0001) %MON dynstat_theta_min            =  -2.0344358494804E+00
(PID.TID 0000.0001) %MON dynstat_theta_mean           =   3.5921355570948E+00
(PID.TID 0000.0001) %MON dynstat_theta_sd             =   4.4421857224756E+00
(PID.TID 0000.0001) %MON dynstat_theta_del2           =   1.2239726462100E-04
(PID.TID 0000.0001) %MON dynstat_salt_max             =   4.0655991878419E+01
(PID.TID 0000.0001) %MON dynstat_salt_min             =   1.6108777764877E+01
(PID.TID 0000.0001) %MON dynstat_salt_mean            =   3.4724815538984E+01
(PID.TID 0000.0001) %MON dynstat_salt_sd              =   3.7967101170500E-01
(PID.TID 0000.0001) %MON dynstat_salt_del2            =   6.8922770287390E-05
(PID.TID 0000.0001) %MON dynstat_sst_max              =   3.2493182582899E+01
(PID.TID 0000.0001) %MON dynstat_sst_min              =  -2.0344358494804E+00
(PID.TID 0000.0001) %MON dynstat_sst_mean             =   1.8182177769740E+01
(PID.TID 0000.0001) %MON dynstat_sst_sd               =   1.0169927294595E+01
(PID.TID 0000.0001) %MON dynstat_sst_del2             =   1.1092029294330E-03
(PID.TID 0000.0001) %MON dynstat_sss_max              =   3.9471146735578E+01
(PID.TID 0000.0001) %MON dynstat_sss_min              =   1.6108777764877E+01
(PID.TID 0000.0001) %MON dynstat_sss_mean             =   3.4646357743247E+01
(PID.TID 0000.0001) %MON dynstat_sss_sd               =   1.2936329059062E+00
(PID.TID 0000.0001) %MON dynstat_sss_del2             =   1.4628168713591E-03
(PID.TID 0000.0001) %MON forcing_qnet_max             =   2.8234607241217E+03
(PID.TID 0000.0001) %MON forcing_qnet_min             =  -1.1997923949375E+03
(PID.TID 0000.0001) %MON forcing_qnet_mean            =  -2.8841828462821E+01
(PID.TID 0000.0001) %MON forcing_qnet_sd              =   2.3429624345606E+02
(PID.TID 0000.0001) %MON forcing_qnet_del2            =   5.2677817713499E-01
(PID.TID 0000.0001) %MON forcing_qsw_max              =   0.0000000000000E+00
(PID.TID 0000.0001) %MON forcing_qsw_min              =  -1.1233927090841E+02
(PID.TID 0000.0001) %MON forcing_qsw_mean             =  -2.3239554192252E+01
(PID.TID 0000.0001) %MON forcing_qsw_sd               =   3.3092295025246E+01
(PID.TID 0000.0001) %MON forcing_qsw_del2             =   1.9920952047884E-02
(PID.TID 0000.0001) %MON forcing_empmr_max            =   1.9686141982675E-02
(PID.TID 0000.0001) %MON forcing_empmr_min            =  -1.4711523056030E-01
(PID.TID 0000.0001) %MON forcing_empmr_mean           =   3.5017504157138E-06
(PID.TID 0000.0001) %MON forcing_empmr_sd             =   5.0743985156337E-04
(PID.TID 0000.0001) %MON forcing_empmr_del2           =   5.7666813021679E-06
(PID.TID 0000.0001) %MON forcing_fu_max               =   9.7466350109744E-01
(PID.TID 0000.0001) %MON forcing_fu_min               =  -6.9976219666732E-01
(PID.TID 0000.0001) %MON forcing_fu_mean              =   9.4132005628796E-03
(PID.TID 0000.0001) %MON forcing_fu_sd                =   1.2108873888029E-01
(PID.TID 0000.0001) %MON forcing_fu_del2              =   1.5866862808913E-04
(PID.TID 0000.0001) %MON forcing_fv_max               =   9.5846393704414E-01
(PID.TID 0000.0001) %MON forcing_fv_min               =  -1.5023492122682E+00
(PID.TID 0000.0001) %MON forcing_fv_mean              =  -1.2105198929799E-03
(PID.TID 0000.0001) %MON forcing_fv_sd                =   1.0644078543314E-01
(PID.TID 0000.0001) %MON forcing_fv_del2              =   1.5551834240737E-04
(PID.TID 0000.0001) %MON trAdv_CFL_u_max              =   2.9602150249288E-02
(PID.TID 0000.0001) %MON trAdv_CFL_v_max              =   2.3059215976503E-02
(PID.TID 0000.0001) %MON trAdv_CFL_w_max              =   1.1089859099696E-01
(PID.TID 0000.0001) %MON advcfl_uvel_max              =   2.9998120244831E-02
(PID.TID 0000.0001) %MON advcfl_vvel_max              =   2.2690829374218E-02
(PID.TID 0000.0001) %MON advcfl_wvel_max              =   1.0487490024569E-01
(PID.TID 0000.0001) %MON advcfl_W_hf_max              =   1.1089859099696E-01
(PID.TID 0000.0001) %MON pe_b_mean                    =   1.7639045669941E-03
(PID.TID 0000.0001) %MON ke_max                       =   2.9254085122878E+00
(PID.TID 0000.0001) %MON ke_mean                      =   8.6432412587089E-04
(PID.TID 0000.0001) %MON ke_vol                       =   1.3350064351420E+18
(PID.TID 0000.0001) %MON vort_r_min                   =  -1.0182939515280E-04
(PID.TID 0000.0001) %MON vort_r_max                   =   1.0975632541236E-04
(PID.TID 0000.0001) %MON vort_a_mean                  =  -1.9725072073435E-05
(PID.TID 0000.0001) %MON vort_a_sd                    =   7.4539181454302E-05
(PID.TID 0000.0001) %MON vort_p_mean                  =  -2.1669076559850E-05
(PID.TID 0000.0001) %MON vort_p_sd                    =   9.3607256659466E-05
(PID.TID 0000.0001) %MON surfExpan_theta_mean         =   6.7767233447251E-06
(PID.TID 0000.0001) %MON surfExpan_salt_mean          =   8.2278026256267E-06
(PID.TID 0000.0001) // =======================================================
(PID.TID 0000.0001) // End MONITOR dynamic field statistics
(PID.TID 0000.0001) // =======================================================
(PID.TID 0000.0001) // =======================================================
(PID.TID 0000.0001) // Begin MONITOR SEAICE statistics
(PID.TID 0000.0001) // =======================================================
(PID.TID 0000.0001) %MON seaice_tsnumber              =                174749
(PID.TID 0000.0001) %MON seaice_time_sec              =   7.8637050000000E+07
(PID.TID 0000.0001) %MON seaice_uice_max              =   1.4546912801543E+00
(PID.TID 0000.0001) %MON seaice_uice_min              =  -2.1360035133725E+00
(PID.TID 0000.0001) %MON seaice_uice_mean             =  -8.1917440158759E-04
(PID.TID 0000.0001) %MON seaice_uice_sd               =   1.5313201567709E-01
(PID.TID 0000.0001) %MON seaice_uice_del2             =   3.4063595768996E-04
(PID.TID 0000.0001) %MON seaice_vice_max              =   1.4204653003778E+00
(PID.TID 0000.0001) %MON seaice_vice_min              =  -1.4552529522604E+00
(PID.TID 0000.0001) %MON seaice_vice_mean             =  -2.2528525177395E-02
(PID.TID 0000.0001) %MON seaice_vice_sd               =   1.6444007460555E-01
(PID.TID 0000.0001) %MON seaice_vice_del2             =   3.2131475823912E-04
(PID.TID 0000.0001) %MON seaice_area_max              =   1.0044790349453E+00
(PID.TID 0000.0001) %MON seaice_area_min              =   0.0000000000000E+00
(PID.TID 0000.0001) %MON seaice_area_mean             =   5.7363344334348E-02
(PID.TID 0000.0001) %MON seaice_area_sd               =   2.2133303023011E-01
(PID.TID 0000.0001) %MON seaice_area_del2             =   3.0060897462169E-04
(PID.TID 0000.0001) %MON seaice_heff_max              =   9.9489023469313E+00
(PID.TID 0000.0001) %MON seaice_heff_min              =   0.0000000000000E+00
(PID.TID 0000.0001) %MON seaice_heff_mean             =   1.4985699939508E-01
(PID.TID 0000.0001) %MON seaice_heff_sd               =   7.2094392698414E-01
(PID.TID 0000.0001) %MON seaice_heff_del2             =   1.4214909724582E-03
(PID.TID 0000.0001) %MON seaice_hsnow_max             =   3.2861525057449E+00
(PID.TID 0000.0001) %MON seaice_hsnow_min             =   0.0000000000000E+00
(PID.TID 0000.0001) %MON seaice_hsnow_mean            =   1.2690232394564E-02
(PID.TID 0000.0001) %MON seaice_hsnow_sd              =   6.8678292705882E-02
(PID.TID 0000.0001) %MON seaice_hsnow_del2            =   3.9406387419649E-04
(PID.TID 0000.0001) // =======================================================
(PID.TID 0000.0001) // End MONITOR SEAICE statistics
(PID.TID 0000.0001) // =======================================================
(PID.TID 0000.0001) // =======================================================
(PID.TID 0000.0001) // Begin MONITOR dynamic field statistics
(PID.TID 0000.0001) // =======================================================
(PID.TID 0000.0001) %MON time_tsnumber                =                174750
(PID.TID 0000.0001) %MON time_secondsf                =   7.8637500000000E+07
(PID.TID 0000.0001) %MON dynstat_eta_max              =   2.2490913245765E+00
(PID.TID 0000.0001) %MON dynstat_eta_min              =  -1.1159228015976E+01
(PID.TID 0000.0001) %MON dynstat_eta_mean             =   6.3994598881539E-02
(PID.TID 0000.0001) %MON dynstat_eta_sd               =   8.4650690067401E-01
(PID.TID 0000.0001) %MON dynstat_eta_del2             =   2.0123652195345E-03
(PID.TID 0000.0001) %MON dynstat_uvel_max             =   2.0742291035572E+00
(PID.TID 0000.0001) %MON dynstat_uvel_min             =  -2.8703280634579E+00
(PID.TID 0000.0001) %MON dynstat_uvel_mean            =   1.4218409974518E-03
(PID.TID 0000.0001) %MON dynstat_uvel_sd              =   2.9296271344082E-02
(PID.TID 0000.0001) %MON dynstat_uvel_del2            =   3.4247110535099E-05
(PID.TID 0000.0001) %MON dynstat_vvel_max             =   2.0998512940620E+00
(PID.TID 0000.0001) %MON dynstat_vvel_min             =  -2.1128429245994E+00
(PID.TID 0000.0001) %MON dynstat_vvel_mean            =   2.0871823463421E-03
(PID.TID 0000.0001) %MON dynstat_vvel_sd              =   3.0453892320741E-02
(PID.TID 0000.0001) %MON dynstat_vvel_del2            =   3.2250967745223E-05
(PID.TID 0000.0001) %MON dynstat_wvel_max             =   7.3981191405821E-03
(PID.TID 0000.0001) %MON dynstat_wvel_min             =  -9.5291965629108E-03
(PID.TID 0000.0001) %MON dynstat_wvel_mean            =   3.3178934112149E-07
(PID.TID 0000.0001) %MON dynstat_wvel_sd              =   9.8277448101672E-05
(PID.TID 0000.0001) %MON dynstat_wvel_del2            =   2.3178214502842E-07
(PID.TID 0000.0001) %MON dynstat_theta_max            =   3.2490076862458E+01
(PID.TID 0000.0001) %MON dynstat_theta_min            =  -2.0347397318341E+00
(PID.TID 0000.0001) %MON dynstat_theta_mean           =   3.5921355272976E+00
(PID.TID 0000.0001) %MON dynstat_theta_sd             =   4.4421875525125E+00
(PID.TID 0000.0001) %MON dynstat_theta_del2           =   1.2245512545101E-04
(PID.TID 0000.0001) %MON dynstat_salt_max             =   4.0655991878340E+01
(PID.TID 0000.0001) %MON dynstat_salt_min             =   1.6107441388802E+01
(PID.TID 0000.0001) %MON dynstat_salt_mean            =   3.4724815000086E+01
(PID.TID 0000.0001) %MON dynstat_salt_sd              =   3.7967201379931E-01
(PID.TID 0000.0001) %MON dynstat_salt_del2            =   6.8861649122856E-05
(PID.TID 0000.0001) %MON dynstat_sst_max              =   3.2490076862458E+01
(PID.TID 0000.0001) %MON dynstat_sst_min              =  -2.0347397318341E+00
(PID.TID 0000.0001) %MON dynstat_sst_mean             =   1.8182368419233E+01
(PID.TID 0000.0001) %MON dynstat_sst_sd               =   1.0170235726936E+01
(PID.TID 0000.0001) %MON dynstat_sst_del2             =   1.1090006662504E-03
(PID.TID 0000.0001) %MON dynstat_sss_max              =   3.9470772778412E+01
(PID.TID 0000.0001) %MON dynstat_sss_min              =   1.6107441388802E+01
(PID.TID 0000.0001) %MON dynstat_sss_mean             =   3.4646301231697E+01
(PID.TID 0000.0001) %MON dynstat_sss_sd               =   1.2937385060489E+00
(PID.TID 0000.0001) %MON dynstat_sss_del2             =   1.4633523291265E-03
(PID.TID 0000.0001) %MON forcing_qnet_max             =   1.6012646338394E+03
(PID.TID 0000.0001) %MON forcing_qnet_min             =  -1.8135771484375E+03
(PID.TID 0000.0001) %MON forcing_qnet_mean            =  -3.0005004443943E+01
(PID.TID 0000.0001) %MON forcing_qnet_sd              =   2.3464894609076E+02
(PID.TID 0000.0001) %MON forcing_qnet_del2            =   5.1211921558041E-01
(PID.TID 0000.0001) %MON forcing_qsw_max              =   0.0000000000000E+00
(PID.TID 0000.0001) %MON forcing_qsw_min              =  -1.1225132216820E+02
(PID.TID 0000.0001) %MON forcing_qsw_mean             =  -2.3381635289468E+01
(PID.TID 0000.0001) %MON forcing_qsw_sd               =   3.3169969093801E+01
(PID.TID 0000.0001) %MON forcing_qsw_del2             =   1.9939080007994E-02
(PID.TID 0000.0001) %MON forcing_empmr_max            =   1.7081433907151E-02
(PID.TID 0000.0001) %MON forcing_empmr_min            =  -1.5136606991291E-01
(PID.TID 0000.0001) %MON forcing_empmr_mean           =   3.5945401091776E-06
(PID.TID 0000.0001) %MON forcing_empmr_sd             =   5.1502000909609E-04
(PID.TID 0000.0001) %MON forcing_empmr_del2           =   5.8233387625471E-06
(PID.TID 0000.0001) %MON forcing_fu_max               =   9.7079633128076E-01
(PID.TID 0000.0001) %MON forcing_fu_min               =  -7.0930348099317E-01
(PID.TID 0000.0001) %MON forcing_fu_mean              =   9.3993220751303E-03
(PID.TID 0000.0001) %MON forcing_fu_sd                =   1.2112213427368E-01
(PID.TID 0000.0001) %MON forcing_fu_del2              =   1.5853756991876E-04
(PID.TID 0000.0001) %MON forcing_fv_max               =   9.6841391921043E-01
(PID.TID 0000.0001) %MON forcing_fv_min               =  -1.4949735786008E+00
(PID.TID 0000.0001) %MON forcing_fv_mean              =  -1.1654416730689E-03
(PID.TID 0000.0001) %MON forcing_fv_sd                =   1.0648595435637E-01
(PID.TID 0000.0001) %MON forcing_fv_del2              =   1.5553664081674E-04
(PID.TID 0000.0001) %MON trAdv_CFL_u_max              =   2.9606455004644E-02
(PID.TID 0000.0001) %MON trAdv_CFL_v_max              =   2.3096728683395E-02
(PID.TID 0000.0001) %MON trAdv_CFL_w_max              =   1.1065728644028E-01
(PID.TID 0000.0001) %MON advcfl_uvel_max              =   3.0002482582287E-02
(PID.TID 0000.0001) %MON advcfl_vvel_max              =   2.2727742790196E-02
(PID.TID 0000.0001) %MON advcfl_wvel_max              =   1.0462562236033E-01
(PID.TID 0000.0001) %MON advcfl_W_hf_max              =   1.1065728644028E-01
(PID.TID 0000.0001) %MON pe_b_mean                    =   1.7643727056562E-03
(PID.TID 0000.0001) %MON ke_max                       =   2.9272262624104E+00
(PID.TID 0000.0001) %MON ke_mean                      =   8.6413417295595E-04
(PID.TID 0000.0001) %MON ke_vol                       =   1.3350064351420E+18
(PID.TID 0000.0001) %MON vort_r_min                   =  -1.0177990343274E-04
(PID.TID 0000.0001) %MON vort_r_max                   =   1.0979616202300E-04
(PID.TID 0000.0001) %MON vort_a_mean                  =  -1.9725071935291E-05
(PID.TID 0000.0001) %MON vort_a_sd                    =   7.4539193092033E-05
(PID.TID 0000.0001) %MON vort_p_mean                  =  -2.1669076408092E-05
(PID.TID 0000.0001) %MON vort_p_sd                    =   9.3607311574593E-05
(PID.TID 0000.0001) %MON surfExpan_theta_mean         =   7.3231799484937E-06
(PID.TID 0000.0001) %MON surfExpan_salt_mean          =   9.4791910278763E-06
(PID.TID 0000.0001) // =======================================================
(PID.TID 0000.0001) // End MONITOR dynamic field statistics
(PID.TID 0000.0001) // =======================================================
(PID.TID 0000.0001) // =======================================================
(PID.TID 0000.0001) // Begin MONITOR SEAICE statistics
(PID.TID 0000.0001) // =======================================================
(PID.TID 0000.0001) %MON seaice_tsnumber              =                174750
(PID.TID 0000.0001) %MON seaice_time_sec              =   7.8637500000000E+07
(PID.TID 0000.0001) %MON seaice_uice_max              =   1.4554094638362E+00
(PID.TID 0000.0001) %MON seaice_uice_min              =  -2.1272487230439E+00
(PID.TID 0000.0001) %MON seaice_uice_mean             =  -8.2795757228497E-04
(PID.TID 0000.0001) %MON seaice_uice_sd               =   1.5314210022755E-01
(PID.TID 0000.0001) %MON seaice_uice_del2             =   3.4103007341004E-04
(PID.TID 0000.0001) %MON seaice_vice_max              =   1.4441398528630E+00
(PID.TID 0000.0001) %MON seaice_vice_min              =  -1.4559273061465E+00
(PID.TID 0000.0001) %MON seaice_vice_mean             =  -2.2446054488318E-02
(PID.TID 0000.0001) %MON seaice_vice_sd               =   1.6457389436936E-01
(PID.TID 0000.0001) %MON seaice_vice_del2             =   3.2142321903852E-04
(PID.TID 0000.0001) %MON seaice_area_max              =   1.0044193801503E+00
(PID.TID 0000.0001) %MON seaice_area_min              =   0.0000000000000E+00
(PID.TID 0000.0001) %MON seaice_area_mean             =   5.7365339165593E-02
(PID.TID 0000.0001) %MON seaice_area_sd               =   2.2132778989361E-01
(PID.TID 0000.0001) %MON seaice_area_del2             =   3.0045005770303E-04
(PID.TID 0000.0001) %MON seaice_heff_max              =   9.9488928386033E+00
(PID.TID 0000.0001) %MON seaice_heff_min              =   0.0000000000000E+00
(PID.TID 0000.0001) %MON seaice_heff_mean             =   1.4985331220408E-01
(PID.TID 0000.0001) %MON seaice_heff_sd               =   7.2093272068037E-01
(PID.TID 0000.0001) %MON seaice_heff_del2             =   1.4207492671998E-03
(PID.TID 0000.0001) %MON seaice_hsnow_max             =   3.2861491770623E+00
(PID.TID 0000.0001) %MON seaice_hsnow_min             =   0.0000000000000E+00
(PID.TID 0000.0001) %MON seaice_hsnow_mean            =   1.2689517555641E-02
(PID.TID 0000.0001) %MON seaice_hsnow_sd              =   6.8670906403054E-02
(PID.TID 0000.0001) %MON seaice_hsnow_del2            =   3.9380872224849E-04
(PID.TID 0000.0001) // =======================================================
(PID.TID 0000.0001) // End MONITOR SEAICE statistics
(PID.TID 0000.0001) // =======================================================
(PID.TID 0000.0001) // =======================================================
(PID.TID 0000.0001) // Begin MONITOR dynamic field statistics
(PID.TID 0000.0001) // =======================================================
(PID.TID 0000.0001) %MON time_tsnumber                =                174751
(PID.TID 0000.0001) %MON time_secondsf                =   7.8637950000000E+07
(PID.TID 0000.0001) %MON dynstat_eta_max              =   2.1066027323258E+00
(PID.TID 0000.0001) %MON dynstat_eta_min              =  -1.1152535756603E+01
(PID.TID 0000.0001) %MON dynstat_eta_mean             =   6.4098750136310E-02
(PID.TID 0000.0001) %MON dynstat_eta_sd               =   8.4624436656528E-01
(PID.TID 0000.0001) %MON dynstat_eta_del2             =   2.0121596495102E-03
(PID.TID 0000.0001) %MON dynstat_uvel_max             =   2.0849952806723E+00
(PID.TID 0000.0001) %MON dynstat_uvel_min             =  -2.8704470356254E+00
(PID.TID 0000.0001) %MON dynstat_uvel_mean            =   1.5102506540898E-03
(PID.TID 0000.0001) %MON dynstat_uvel_sd              =   2.9283430620172E-02
(PID.TID 0000.0001) %MON dynstat_uvel_del2            =   3.4314752626027E-05
(PID.TID 0000.0001) %MON dynstat_vvel_max             =   2.0856711242908E+00
(PID.TID 0000.0001) %MON dynstat_vvel_min             =  -2.1193466911545E+00
(PID.TID 0000.0001) %MON dynstat_vvel_mean            =   2.1224739462467E-03
(PID.TID 0000.0001) %MON dynstat_vvel_sd              =   3.0453548830507E-02
(PID.TID 0000.0001) %MON dynstat_vvel_del2            =   3.2297743124609E-05
(PID.TID 0000.0001) %MON dynstat_wvel_max             =   7.3582625409825E-03
(PID.TID 0000.0001) %MON dynstat_wvel_min             =  -9.4848495274868E-03
(PID.TID 0000.0001) %MON dynstat_wvel_mean            =   3.5938110258212E-07
(PID.TID 0000.0001) %MON dynstat_wvel_sd              =   9.8502108860691E-05
(PID.TID 0000.0001) %MON dynstat_wvel_del2            =   2.3246669317211E-07
(PID.TID 0000.0001) %MON dynstat_theta_max            =   3.2486868226501E+01
(PID.TID 0000.0001) %MON dynstat_theta_min            =  -2.0350372414222E+00
(PID.TID 0000.0001) %MON dynstat_theta_mean           =   3.5921354508853E+00
(PID.TID 0000.0001) %MON dynstat_theta_sd             =   4.4421892255894E+00
(PID.TID 0000.0001) %MON dynstat_theta_del2           =   1.2251272634169E-04
(PID.TID 0000.0001) %MON dynstat_salt_max             =   4.0655991878261E+01
(PID.TID 0000.0001) %MON dynstat_salt_min             =   1.6106088258779E+01
(PID.TID 0000.0001) %MON dynstat_salt_mean            =   3.4724814488787E+01
(PID.TID 0000.0001) %MON dynstat_salt_sd              =   3.7967299346241E-01
(PID.TID 0000.0001) %MON dynstat_salt_del2            =   6.8800215577082E-05
(PID.TID 0000.0001) %MON dynstat_sst_max              =   3.2486868226501E+01
(PID.TID 0000.0001) %MON dynstat_sst_min              =  -2.0350372414222E+00
(PID.TID 0000.0001) %MON dynstat_sst_mean             =   1.8182560733102E+01
(PID.TID 0000.0001) %MON dynstat_sst_sd               =   1.0170543521151E+01
(PID.TID 0000.0001) %MON dynstat_sst_del2             =   1.1087398282355E-03
(PID.TID 0000.0001) %MON dynstat_sss_max              =   3.9470430310410E+01
(PID.TID 0000.0001) %MON dynstat_sss_min              =   1.6106088258779E+01
(PID.TID 0000.0001) %MON dynstat_sss_mean             =   3.4646246218022E+01
(PID.TID 0000.0001) %MON dynstat_sss_sd               =   1.2938453023680E+00
(PID.TID 0000.0001) %MON dynstat_sss_del2             =   1.4638632682451E-03
(PID.TID 0000.0001) %MON forcing_qnet_max             =   2.1360354634342E+03
(PID.TID 0000.0001) %MON forcing_qnet_min             =  -1.7136307373047E+03
(PID.TID 0000.0001) %MON forcing_qnet_mean            =  -3.0336167458918E+01
(PID.TID 0000.0001) %MON forcing_qnet_sd              =   2.3569120663168E+02
(PID.TID 0000.0001) %MON forcing_qnet_del2            =   5.2568535788448E-01
(PID.TID 0000.0001) %MON forcing_qsw_max              =   0.0000000000000E+00
(PID.TID 0000.0001) %MON forcing_qsw_min              =  -1.1204558757661E+02
(PID.TID 0000.0001) %MON forcing_qsw_mean             =  -2.3508413609529E+01
(PID.TID 0000.0001) %MON forcing_qsw_sd               =   3.3231952172533E+01
(PID.TID 0000.0001) %MON forcing_qsw_del2             =   1.9953328835725E-02
(PID.TID 0000.0001) %MON forcing_empmr_max            =   1.3558485545218E-02
(PID.TID 0000.0001) %MON forcing_empmr_min            =  -1.5007963776588E-01
(PID.TID 0000.0001) %MON forcing_empmr_mean           =   3.3459011935339E-06
(PID.TID 0000.0001) %MON forcing_empmr_sd             =   5.1581260178729E-04
(PID.TID 0000.0001) %MON forcing_empmr_del2           =   5.7718941189920E-06
(PID.TID 0000.0001) %MON forcing_fu_max               =   9.6612172996549E-01
(PID.TID 0000.0001) %MON forcing_fu_min               =  -7.1846826807500E-01
(PID.TID 0000.0001) %MON forcing_fu_mean              =   9.3958599554230E-03
(PID.TID 0000.0001) %MON forcing_fu_sd                =   1.2119761208771E-01
(PID.TID 0000.0001) %MON forcing_fu_del2              =   1.5855261525767E-04
(PID.TID 0000.0001) %MON forcing_fv_max               =   9.7548225522041E-01
(PID.TID 0000.0001) %MON forcing_fv_min               =  -1.4850848703998E+00
(PID.TID 0000.0001) %MON forcing_fv_mean              =  -1.1189323583948E-03
(PID.TID 0000.0001) %MON forcing_fv_sd                =   1.0654973215148E-01
(PID.TID 0000.0001) %MON forcing_fv_del2              =   1.5559078716247E-04
(PID.TID 0000.0001) %MON trAdv_CFL_u_max              =   2.9607682161976E-02
(PID.TID 0000.0001) %MON trAdv_CFL_v_max              =   2.3128360003217E-02
(PID.TID 0000.0001) %MON trAdv_CFL_w_max              =   1.1039232345996E-01
(PID.TID 0000.0001) %MON advcfl_uvel_max              =   3.0003726154557E-02
(PID.TID 0000.0001) %MON advcfl_vvel_max              =   2.2758868778247E-02
(PID.TID 0000.0001) %MON advcfl_wvel_max              =   1.0435394976960E-01
(PID.TID 0000.0001) %MON advcfl_W_hf_max              =   1.1039232345996E-01
(PID.TID 0000.0001) %MON pe_b_mean                    =   1.7654249699623E-03
(PID.TID 0000.0001) %MON ke_max                       =   2.9283123928368E+00
(PID.TID 0000.0001) %MON ke_mean                      =   8.6395808042245E-04
(PID.TID 0000.0001) %MON ke_vol                       =   1.3350064351420E+18
(PID.TID 0000.0001) %MON vort_r_min                   =  -1.0171652714153E-04
(PID.TID 0000.0001) %MON vort_r_max                   =   1.0982152951613E-04
(PID.TID 0000.0001) %MON vort_a_mean                  =  -1.9725071802053E-05
(PID.TID 0000.0001) %MON vort_a_sd                    =   7.4539204855381E-05
(PID.TID 0000.0001) %MON vort_p_mean                  =  -2.1669076261722E-05
(PID.TID 0000.0001) %MON vort_p_sd                    =   9.3607367543782E-05
(PID.TID 0000.0001) %MON surfExpan_theta_mean         =   7.8844292154179E-06
(PID.TID 0000.0001) %MON surfExpan_salt_mean          =   1.0685539725034E-05
(PID.TID 0000.0001) // =======================================================
(PID.TID 0000.0001) // End MONITOR dynamic field statistics
(PID.TID 0000.0001) // =======================================================
(PID.TID 0000.0001) // =======================================================
(PID.TID 0000.0001) // Begin MONITOR SEAICE statistics
(PID.TID 0000.0001) // =======================================================
(PID.TID 0000.0001) %MON seaice_tsnumber              =                174751
(PID.TID 0000.0001) %MON seaice_time_sec              =   7.8637950000000E+07
(PID.TID 0000.0001) %MON seaice_uice_max              =   1.4559135994203E+00
(PID.TID 0000.0001) %MON seaice_uice_min              =  -2.1140113013442E+00
(PID.TID 0000.0001) %MON seaice_uice_mean             =  -8.2680190417859E-04
(PID.TID 0000.0001) %MON seaice_uice_sd               =   1.5315506825594E-01
(PID.TID 0000.0001) %MON seaice_uice_del2             =   3.4139598551620E-04
(PID.TID 0000.0001) %MON seaice_vice_max              =   1.4641554227351E+00
(PID.TID 0000.0001) %MON seaice_vice_min              =  -1.4565820491505E+00
(PID.TID 0000.0001) %MON seaice_vice_mean             =  -2.2382929425461E-02
(PID.TID 0000.0001) %MON seaice_vice_sd               =   1.6471803360872E-01
(PID.TID 0000.0001) %MON seaice_vice_del2             =   3.2145915144800E-04
(PID.TID 0000.0001) %MON seaice_area_max              =   1.0043475393634E+00
(PID.TID 0000.0001) %MON seaice_area_min              =   0.0000000000000E+00
(PID.TID 0000.0001) %MON seaice_area_mean             =   5.7367375018071E-02
(PID.TID 0000.0001) %MON seaice_area_sd               =   2.2132275186110E-01
(PID.TID 0000.0001) %MON seaice_area_del2             =   3.0031095871739E-04
(PID.TID 0000.0001) %MON seaice_heff_max              =   9.9488852487919E+00
(PID.TID 0000.0001) %MON seaice_heff_min              =   0.0000000000000E+00
(PID.TID 0000.0001) %MON seaice_heff_mean             =   1.4984962579787E-01
(PID.TID 0000.0001) %MON seaice_heff_sd               =   7.2092158256305E-01
(PID.TID 0000.0001) %MON seaice_heff_del2             =   1.4200084549957E-03
(PID.TID 0000.0001) %MON seaice_hsnow_max             =   3.2861468053988E+00
(PID.TID 0000.0001) %MON seaice_hsnow_min             =   0.0000000000000E+00
(PID.TID 0000.0001) %MON seaice_hsnow_mean            =   1.2688810178444E-02
(PID.TID 0000.0001) %MON seaice_hsnow_sd              =   6.8663544501520E-02
(PID.TID 0000.0001) %MON seaice_hsnow_del2            =   3.9355372314240E-04
(PID.TID 0000.0001) // =======================================================
(PID.TID 0000.0001) // End MONITOR SEAICE statistics
(PID.TID 0000.0001) // =======================================================
(PID.TID 0000.0001) // =======================================================
(PID.TID 0000.0001) // Begin MONITOR dynamic field statistics
(PID.TID 0000.0001) // =======================================================
(PID.TID 0000.0001) %MON time_tsnumber                =                174752
(PID.TID 0000.0001) %MON time_secondsf                =   7.8638400000000E+07
(PID.TID 0000.0001) %MON dynstat_eta_max              =   2.1162485394410E+00
(PID.TID 0000.0001) %MON dynstat_eta_min              =  -1.1227920978129E+01
(PID.TID 0000.0001) %MON dynstat_eta_mean             =   6.4221630887811E-02
(PID.TID 0000.0001) %MON dynstat_eta_sd               =   8.4600562687970E-01
(PID.TID 0000.0001) %MON dynstat_eta_del2             =   2.0119994105835E-03
(PID.TID 0000.0001) %MON dynstat_uvel_max             =   2.0954849500492E+00
(PID.TID 0000.0001) %MON dynstat_uvel_min             =  -2.8702806705331E+00
(PID.TID 0000.0001) %MON dynstat_uvel_mean            =   1.6023445763565E-03
(PID.TID 0000.0001) %MON dynstat_uvel_sd              =   2.9272401252380E-02
(PID.TID 0000.0001) %MON dynstat_uvel_del2            =   3.4380683442438E-05
(PID.TID 0000.0001) %MON dynstat_vvel_max             =   2.0957406527648E+00
(PID.TID 0000.0001) %MON dynstat_vvel_min             =  -2.1254848417088E+00
(PID.TID 0000.0001) %MON dynstat_vvel_mean            =   2.1556846245013E-03
(PID.TID 0000.0001) %MON dynstat_vvel_sd              =   3.0451667315143E-02
(PID.TID 0000.0001) %MON dynstat_vvel_del2            =   3.2342839495720E-05
(PID.TID 0000.0001) %MON dynstat_wvel_max             =   7.3162982695933E-03
(PID.TID 0000.0001) %MON dynstat_wvel_min             =  -9.4369739242548E-03
(PID.TID 0000.0001) %MON dynstat_wvel_mean            =   3.8700716038236E-07
(PID.TID 0000.0001) %MON dynstat_wvel_sd              =   9.8728472741223E-05
(PID.TID 0000.0001) %MON dynstat_wvel_del2            =   2.3315784711697E-07
(PID.TID 0000.0001) %MON dynstat_theta_max            =   3.2483562457867E+01
(PID.TID 0000.0001) %MON dynstat_theta_min            =  -2.0353274646436E+00
(PID.TID 0000.0001) %MON dynstat_theta_mean           =   3.5921353303955E+00
(PID.TID 0000.0001) %MON dynstat_theta_sd             =   4.4421907628306E+00
(PID.TID 0000.0001) %MON dynstat_theta_del2           =   1.2256986415031E-04
(PID.TID 0000.0001) %MON dynstat_salt_max             =   4.0655991878182E+01
(PID.TID 0000.0001) %MON dynstat_salt_min             =   1.6104714016067E+01
(PID.TID 0000.0001) %MON dynstat_salt_mean            =   3.4724814005484E+01
(PID.TID 0000.0001) %MON dynstat_salt_sd              =   3.7967396001036E-01
(PID.TID 0000.0001) %MON dynstat_salt_del2            =   6.8740393528101E-05
(PID.TID 0000.0001) %MON dynstat_sst_max              =   3.2483562457867E+01
(PID.TID 0000.0001) %MON dynstat_sst_min              =  -2.0353274646436E+00
(PID.TID 0000.0001) %MON dynstat_sst_mean             =   1.8182766191755E+01
(PID.TID 0000.0001) %MON dynstat_sst_sd               =   1.0170860827724E+01
(PID.TID 0000.0001) %MON dynstat_sst_del2             =   1.1084996869144E-03
(PID.TID 0000.0001) %MON dynstat_sss_max              =   3.9470120637097E+01
(PID.TID 0000.0001) %MON dynstat_sss_min              =   1.6104714016067E+01
(PID.TID 0000.0001) %MON dynstat_sss_mean             =   3.4646190511067E+01
(PID.TID 0000.0001) %MON dynstat_sss_sd               =   1.2939516202281E+00
(PID.TID 0000.0001) %MON dynstat_sss_del2             =   1.4643967276815E-03
(PID.TID 0000.0001) %MON forcing_qnet_max             =   1.9956552734375E+03
(PID.TID 0000.0001) %MON forcing_qnet_min             =  -1.2436998951940E+03
(PID.TID 0000.0001) %MON forcing_qnet_mean            =  -3.0892042293273E+01
(PID.TID 0000.0001) %MON forcing_qnet_sd              =   2.3594262727502E+02
(PID.TID 0000.0001) %MON forcing_qnet_del2            =   5.0513643100165E-01
(PID.TID 0000.0001) %MON forcing_qsw_max              =   0.0000000000000E+00
(PID.TID 0000.0001) %MON forcing_qsw_min              =  -1.1184571699918E+02
(PID.TID 0000.0001) %MON forcing_qsw_mean             =  -2.3619658982805E+01
(PID.TID 0000.0001) %MON forcing_qsw_sd               =   3.3278070617168E+01
(PID.TID 0000.0001) %MON forcing_qsw_del2             =   1.9963789099300E-02
(PID.TID 0000.0001) %MON forcing_empmr_max            =   1.5369466505945E-02
(PID.TID 0000.0001) %MON forcing_empmr_min            =  -1.4963872730732E-01
(PID.TID 0000.0001) %MON forcing_empmr_mean           =   3.1548822333933E-06
(PID.TID 0000.0001) %MON forcing_empmr_sd             =   5.1709754591632E-04
(PID.TID 0000.0001) %MON forcing_empmr_del2           =   5.7482530793609E-06
(PID.TID 0000.0001) %MON forcing_fu_max               =   9.6104929319844E-01
(PID.TID 0000.0001) %MON forcing_fu_min               =  -7.2722814510774E-01
(PID.TID 0000.0001) %MON forcing_fu_mean              =   9.3897820539344E-03
(PID.TID 0000.0001) %MON forcing_fu_sd                =   1.2122249218962E-01
(PID.TID 0000.0001) %MON forcing_fu_del2              =   1.5853990683138E-04
(PID.TID 0000.0001) %MON forcing_fv_max               =   9.7796028852463E-01
(PID.TID 0000.0001) %MON forcing_fv_min               =  -1.4723128771298E+00
(PID.TID 0000.0001) %MON forcing_fv_mean              =  -1.0913237694195E-03
(PID.TID 0000.0001) %MON forcing_fv_sd                =   1.0654086863484E-01
(PID.TID 0000.0001) %MON forcing_fv_del2              =   1.5565487221534E-04
(PID.TID 0000.0001) %MON trAdv_CFL_u_max              =   2.9605966162789E-02
(PID.TID 0000.0001) %MON trAdv_CFL_v_max              =   2.3154212958814E-02
(PID.TID 0000.0001) %MON trAdv_CFL_w_max              =   1.1010867704411E-01
(PID.TID 0000.0001) %MON advcfl_uvel_max              =   3.0001987201491E-02
(PID.TID 0000.0001) %MON advcfl_vvel_max              =   2.2784308715358E-02
(PID.TID 0000.0001) %MON advcfl_wvel_max              =   1.0406477881323E-01
(PID.TID 0000.0001) %MON advcfl_W_hf_max              =   1.1010867704411E-01
(PID.TID 0000.0001) %MON pe_b_mean                    =   1.7670690738407E-03
(PID.TID 0000.0001) %MON ke_max                       =   2.9286979332240E+00
(PID.TID 0000.0001) %MON ke_mean                      =   8.6379819187957E-04
(PID.TID 0000.0001) %MON ke_vol                       =   1.3350064351420E+18
(PID.TID 0000.0001) %MON vort_r_min                   =  -1.0164012557275E-04
(PID.TID 0000.0001) %MON vort_r_max                   =   1.0983304927067E-04
(PID.TID 0000.0001) %MON vort_a_mean                  =  -1.9725071677368E-05
(PID.TID 0000.0001) %MON vort_a_sd                    =   7.4539216731113E-05
(PID.TID 0000.0001) %MON vort_p_mean                  =  -2.1669076124749E-05
(PID.TID 0000.0001) %MON vort_p_sd                    =   9.3607424501485E-05
(PID.TID 0000.0001) %MON surfExpan_theta_mean         =   8.4801876980816E-06
(PID.TID 0000.0001) %MON surfExpan_salt_mean          =   1.1889471473617E-05
(PID.TID 0000.0001) // =======================================================
(PID.TID 0000.0001) // End MONITOR dynamic field statistics
(PID.TID 0000.0001) // =======================================================
(PID.TID 0000.0001) // =======================================================
(PID.TID 0000.0001) // Begin MONITOR SEAICE statistics
(PID.TID 0000.0001) // =======================================================
(PID.TID 0000.0001) %MON seaice_tsnumber              =                174752
(PID.TID 0000.0001) %MON seaice_time_sec              =   7.8638400000000E+07
(PID.TID 0000.0001) %MON seaice_uice_max              =   1.4561168162512E+00
(PID.TID 0000.0001) %MON seaice_uice_min              =  -2.0963262862869E+00
(PID.TID 0000.0001) %MON seaice_uice_mean             =  -8.1598297236429E-04
(PID.TID 0000.0001) %MON seaice_uice_sd               =   1.5316363679284E-01
(PID.TID 0000.0001) %MON seaice_uice_del2             =   3.4171681377693E-04
(PID.TID 0000.0001) %MON seaice_vice_max              =   1.4795415841223E+00
(PID.TID 0000.0001) %MON seaice_vice_min              =  -1.4572161297516E+00
(PID.TID 0000.0001) %MON seaice_vice_mean             =  -2.2321484027453E-02
(PID.TID 0000.0001) %MON seaice_vice_sd               =   1.6485947693414E-01
(PID.TID 0000.0001) %MON seaice_vice_del2             =   3.2139341257400E-04
(PID.TID 0000.0001) %MON seaice_area_max              =   1.0042666324411E+00
(PID.TID 0000.0001) %MON seaice_area_min              =   0.0000000000000E+00
(PID.TID 0000.0001) %MON seaice_area_mean             =   5.7369411284714E-02
(PID.TID 0000.0001) %MON seaice_area_sd               =   2.2131778305860E-01
(PID.TID 0000.0001) %MON seaice_area_del2             =   3.0017912577582E-04
(PID.TID 0000.0001) %MON seaice_heff_max              =   9.9488805309574E+00
(PID.TID 0000.0001) %MON seaice_heff_min              =   0.0000000000000E+00
(PID.TID 0000.0001) %MON seaice_heff_mean             =   1.4984593139775E-01
(PID.TID 0000.0001) %MON seaice_heff_sd               =   7.2091049607032E-01
(PID.TID 0000.0001) %MON seaice_heff_del2             =   1.4192673964981E-03
(PID.TID 0000.0001) %MON seaice_hsnow_max             =   3.2861453942005E+00
(PID.TID 0000.0001) %MON seaice_hsnow_min             =   0.0000000000000E+00
(PID.TID 0000.0001) %MON seaice_hsnow_mean            =   1.2688104383174E-02
(PID.TID 0000.0001) %MON seaice_hsnow_sd              =   6.8656258022841E-02
(PID.TID 0000.0001) %MON seaice_hsnow_del2            =   3.9329879652892E-04
(PID.TID 0000.0001) // =======================================================
(PID.TID 0000.0001) // End MONITOR SEAICE statistics
(PID.TID 0000.0001) // =======================================================
(PID.TID 0000.0001) // =======================================================
(PID.TID 0000.0001) // Begin MONITOR dynamic field statistics
(PID.TID 0000.0001) // =======================================================
(PID.TID 0000.0001) %MON time_tsnumber                =                174753
(PID.TID 0000.0001) %MON time_secondsf                =   7.8638850000000E+07
(PID.TID 0000.0001) %MON dynstat_eta_max              =   2.1404372241869E+00
(PID.TID 0000.0001) %MON dynstat_eta_min              =  -1.1295238639058E+01
(PID.TID 0000.0001) %MON dynstat_eta_mean             =   6.4362890604701E-02
(PID.TID 0000.0001) %MON dynstat_eta_sd               =   8.4579339328691E-01
(PID.TID 0000.0001) %MON dynstat_eta_del2             =   2.0118916604305E-03
(PID.TID 0000.0001) %MON dynstat_uvel_max             =   2.1057248014348E+00
(PID.TID 0000.0001) %MON dynstat_uvel_min             =  -2.8698497897258E+00
(PID.TID 0000.0001) %MON dynstat_uvel_mean            =   1.6978261977344E-03
(PID.TID 0000.0001) %MON dynstat_uvel_sd              =   2.9263055385880E-02
(PID.TID 0000.0001) %MON dynstat_uvel_del2            =   3.4444541460257E-05
(PID.TID 0000.0001) %MON dynstat_vvel_max             =   2.1054099784886E+00
(PID.TID 0000.0001) %MON dynstat_vvel_min             =  -2.1312724681909E+00
(PID.TID 0000.0001) %MON dynstat_vvel_mean            =   2.1867607310645E-03
(PID.TID 0000.0001) %MON dynstat_vvel_sd              =   3.0448230701937E-02
(PID.TID 0000.0001) %MON dynstat_vvel_del2            =   3.2386042362065E-05
(PID.TID 0000.0001) %MON dynstat_wvel_max             =   7.2723601611542E-03
(PID.TID 0000.0001) %MON dynstat_wvel_min             =  -9.3854806011807E-03
(PID.TID 0000.0001) %MON dynstat_wvel_mean            =   4.1422641863992E-07
(PID.TID 0000.0001) %MON dynstat_wvel_sd              =   9.8956608601678E-05
(PID.TID 0000.0001) %MON dynstat_wvel_del2            =   2.3385524100941E-07
(PID.TID 0000.0001) %MON dynstat_theta_max            =   3.2480215710082E+01
(PID.TID 0000.0001) %MON dynstat_theta_min            =  -2.0356092845841E+00
(PID.TID 0000.0001) %MON dynstat_theta_mean           =   3.5921351568160E+00
(PID.TID 0000.0001) %MON dynstat_theta_sd             =   4.4421921235554E+00
(PID.TID 0000.0001) %MON dynstat_theta_del2           =   1.2262691262422E-04
(PID.TID 0000.0001) %MON dynstat_salt_max             =   4.0655991878102E+01
(PID.TID 0000.0001) %MON dynstat_salt_min             =   1.6103314739812E+01
(PID.TID 0000.0001) %MON dynstat_salt_mean            =   3.4724813553825E+01
(PID.TID 0000.0001) %MON dynstat_salt_sd              =   3.7967489738379E-01
(PID.TID 0000.0001) %MON dynstat_salt_del2            =   6.8681356586253E-05
(PID.TID 0000.0001) %MON dynstat_sst_max              =   3.2480215710082E+01
(PID.TID 0000.0001) %MON dynstat_sst_min              =  -2.0356092845841E+00
(PID.TID 0000.0001) %MON dynstat_sst_mean             =   1.8182977093055E+01
(PID.TID 0000.0001) %MON dynstat_sst_sd               =   1.0171184485916E+01
(PID.TID 0000.0001) %MON dynstat_sst_del2             =   1.1082911580722E-03
(PID.TID 0000.0001) %MON dynstat_sss_max              =   3.9469843547361E+01
(PID.TID 0000.0001) %MON dynstat_sss_min              =   1.6103314739812E+01
(PID.TID 0000.0001) %MON dynstat_sss_mean             =   3.4646136415904E+01
(PID.TID 0000.0001) %MON dynstat_sss_sd               =   1.2940586348872E+00
(PID.TID 0000.0001) %MON dynstat_sss_del2             =   1.4649416270945E-03
(PID.TID 0000.0001) %MON forcing_qnet_max             =   2.2082678222656E+03
(PID.TID 0000.0001) %MON forcing_qnet_min             =  -2.1348444824219E+03
(PID.TID 0000.0001) %MON forcing_qnet_mean            =  -3.1280266435859E+01
(PID.TID 0000.0001) %MON forcing_qnet_sd              =   2.3683007993836E+02
(PID.TID 0000.0001) %MON forcing_qnet_del2            =   5.2266975075007E-01
(PID.TID 0000.0001) %MON forcing_qsw_max              =   0.0000000000000E+00
(PID.TID 0000.0001) %MON forcing_qsw_min              =  -1.1180055469288E+02
(PID.TID 0000.0001) %MON forcing_qsw_mean             =  -2.3714974280189E+01
(PID.TID 0000.0001) %MON forcing_qsw_sd               =   3.3308278107900E+01
(PID.TID 0000.0001) %MON forcing_qsw_del2             =   1.9970691727933E-02
(PID.TID 0000.0001) %MON forcing_empmr_max            =   1.8438315019011E-02
(PID.TID 0000.0001) %MON forcing_empmr_min            =  -1.5463432669640E-01
(PID.TID 0000.0001) %MON forcing_empmr_mean           =   3.2512672369449E-06
(PID.TID 0000.0001) %MON forcing_empmr_sd             =   5.2405745500432E-04
(PID.TID 0000.0001) %MON forcing_empmr_del2           =   5.7900713009641E-06
(PID.TID 0000.0001) %MON forcing_fu_max               =   9.5568452102591E-01
(PID.TID 0000.0001) %MON forcing_fu_min               =  -7.3666870460171E-01
(PID.TID 0000.0001) %MON forcing_fu_mean              =   9.3873191978635E-03
(PID.TID 0000.0001) %MON forcing_fu_sd                =   1.2127771409935E-01
(PID.TID 0000.0001) %MON forcing_fu_del2              =   1.5845015000435E-04
(PID.TID 0000.0001) %MON forcing_fv_max               =   9.8181426525116E-01
(PID.TID 0000.0001) %MON forcing_fv_min               =  -1.4562255953532E+00
(PID.TID 0000.0001) %MON forcing_fv_mean              =  -1.0585590574402E-03
(PID.TID 0000.0001) %MON forcing_fv_sd                =   1.0654743659791E-01
(PID.TID 0000.0001) %MON forcing_fv_del2              =   1.5566103323539E-04
(PID.TID 0000.0001) %MON trAdv_CFL_u_max              =   2.9601521774221E-02
(PID.TID 0000.0001) %MON trAdv_CFL_v_max              =   2.3174373732109E-02
(PID.TID 0000.0001) %MON trAdv_CFL_w_max              =   1.0981114590489E-01
(PID.TID 0000.0001) %MON advcfl_uvel_max              =   2.9997483363035E-02
(PID.TID 0000.0001) %MON advcfl_vvel_max              =   2.2804147406637E-02
(PID.TID 0000.0001) %MON advcfl_wvel_max              =   1.0376276805688E-01
(PID.TID 0000.0001) %MON advcfl_W_hf_max              =   1.0981114590489E-01
(PID.TID 0000.0001) %MON pe_b_mean                    =   1.7692986672094E-03
(PID.TID 0000.0001) %MON ke_max                       =   2.9284272547774E+00
(PID.TID 0000.0001) %MON ke_mean                      =   8.6365053141085E-04
(PID.TID 0000.0001) %MON ke_vol                       =   1.3350064351420E+18
(PID.TID 0000.0001) %MON vort_r_min                   =  -1.0155168709047E-04
(PID.TID 0000.0001) %MON vort_r_max                   =   1.0983157057710E-04
(PID.TID 0000.0001) %MON vort_a_mean                  =  -1.9725071564594E-05
(PID.TID 0000.0001) %MON vort_a_sd                    =   7.4539228702485E-05
(PID.TID 0000.0001) %MON vort_p_mean                  =  -2.1669076000860E-05
(PID.TID 0000.0001) %MON vort_p_sd                    =   9.3607482427046E-05
(PID.TID 0000.0001) %MON surfExpan_theta_mean         =   9.1129293476850E-06
(PID.TID 0000.0001) %MON surfExpan_salt_mean          =   1.3066782370706E-05
(PID.TID 0000.0001) // =======================================================
(PID.TID 0000.0001) // End MONITOR dynamic field statistics
(PID.TID 0000.0001) // =======================================================
(PID.TID 0000.0001) // =======================================================
(PID.TID 0000.0001) // Begin MONITOR SEAICE statistics
(PID.TID 0000.0001) // =======================================================
(PID.TID 0000.0001) %MON seaice_tsnumber              =                174753
(PID.TID 0000.0001) %MON seaice_time_sec              =   7.8638850000000E+07
(PID.TID 0000.0001) %MON seaice_uice_max              =   1.4560302375221E+00
(PID.TID 0000.0001) %MON seaice_uice_min              =  -2.0741994014263E+00
(PID.TID 0000.0001) %MON seaice_uice_mean             =  -7.9881682659655E-04
(PID.TID 0000.0001) %MON seaice_uice_sd               =   1.5317545095759E-01
(PID.TID 0000.0001) %MON seaice_uice_del2             =   3.4199445763657E-04
(PID.TID 0000.0001) %MON seaice_vice_max              =   1.4890665091079E+00
(PID.TID 0000.0001) %MON seaice_vice_min              =  -1.4578305007958E+00
(PID.TID 0000.0001) %MON seaice_vice_mean             =  -2.2267887012001E-02
(PID.TID 0000.0001) %MON seaice_vice_sd               =   1.6500167115218E-01
(PID.TID 0000.0001) %MON seaice_vice_del2             =   3.2124676508557E-04
(PID.TID 0000.0001) %MON seaice_area_max              =   1.0041794887930E+00
(PID.TID 0000.0001) %MON seaice_area_min              =   0.0000000000000E+00
(PID.TID 0000.0001) %MON seaice_area_mean             =   5.7371456385508E-02
(PID.TID 0000.0001) %MON seaice_area_sd               =   2.2131292379800E-01
(PID.TID 0000.0001) %MON seaice_area_del2             =   3.0005285884395E-04
(PID.TID 0000.0001) %MON seaice_heff_max              =   9.9488719860848E+00
(PID.TID 0000.0001) %MON seaice_heff_min              =   0.0000000000000E+00
(PID.TID 0000.0001) %MON seaice_heff_mean             =   1.4984222754690E-01
(PID.TID 0000.0001) %MON seaice_heff_sd               =   7.2089947648798E-01
(PID.TID 0000.0001) %MON seaice_heff_del2             =   1.4185253344567E-03
(PID.TID 0000.0001) %MON seaice_hsnow_max             =   3.2861425446118E+00
(PID.TID 0000.0001) %MON seaice_hsnow_min             =   0.0000000000000E+00
(PID.TID 0000.0001) %MON seaice_hsnow_mean            =   1.2687400942550E-02
(PID.TID 0000.0001) %MON seaice_hsnow_sd              =   6.8648964507739E-02
(PID.TID 0000.0001) %MON seaice_hsnow_del2            =   3.9304400599800E-04
(PID.TID 0000.0001) // =======================================================
(PID.TID 0000.0001) // End MONITOR SEAICE statistics
(PID.TID 0000.0001) // =======================================================
(PID.TID 0000.0001) // =======================================================
(PID.TID 0000.0001) // Begin MONITOR dynamic field statistics
(PID.TID 0000.0001) // =======================================================
(PID.TID 0000.0001) %MON time_tsnumber                =                174754
(PID.TID 0000.0001) %MON time_secondsf                =   7.8639300000000E+07
(PID.TID 0000.0001) %MON dynstat_eta_max              =   2.1577189971171E+00
(PID.TID 0000.0001) %MON dynstat_eta_min              =  -1.1352930522301E+01
(PID.TID 0000.0001) %MON dynstat_eta_mean             =   6.4522401884574E-02
(PID.TID 0000.0001) %MON dynstat_eta_sd               =   8.4560971446672E-01
(PID.TID 0000.0001) %MON dynstat_eta_del2             =   2.0118407475097E-03
(PID.TID 0000.0001) %MON dynstat_uvel_max             =   2.1157422277992E+00
(PID.TID 0000.0001) %MON dynstat_uvel_min             =  -2.8691673607498E+00
(PID.TID 0000.0001) %MON dynstat_uvel_mean            =   1.7963744948714E-03
(PID.TID 0000.0001) %MON dynstat_uvel_sd              =   2.9255415008756E-02
(PID.TID 0000.0001) %MON dynstat_uvel_del2            =   3.4506577412380E-05
(PID.TID 0000.0001) %MON dynstat_vvel_max             =   2.1146639725627E+00
(PID.TID 0000.0001) %MON dynstat_vvel_min             =  -2.1367252914045E+00
(PID.TID 0000.0001) %MON dynstat_vvel_mean            =   2.2156727280753E-03
(PID.TID 0000.0001) %MON dynstat_vvel_sd              =   3.0443307641119E-02
(PID.TID 0000.0001) %MON dynstat_vvel_del2            =   3.2427900251926E-05
(PID.TID 0000.0001) %MON dynstat_wvel_max             =   7.2265794000540E-03
(PID.TID 0000.0001) %MON dynstat_wvel_min             =  -9.3303233965517E-03
(PID.TID 0000.0001) %MON dynstat_wvel_mean            =   4.4086380725955E-07
(PID.TID 0000.0001) %MON dynstat_wvel_sd              =   9.9186082373778E-05
(PID.TID 0000.0001) %MON dynstat_wvel_del2            =   2.3455994384429E-07
(PID.TID 0000.0001) %MON dynstat_theta_max            =   3.2476816638570E+01
(PID.TID 0000.0001) %MON dynstat_theta_min            =  -2.0358813996273E+00
(PID.TID 0000.0001) %MON dynstat_theta_mean           =   3.5921349262733E+00
(PID.TID 0000.0001) %MON dynstat_theta_sd             =   4.4421932883324E+00
(PID.TID 0000.0001) %MON dynstat_theta_del2           =   1.2268380294683E-04
(PID.TID 0000.0001) %MON dynstat_salt_max             =   4.0655991878022E+01
(PID.TID 0000.0001) %MON dynstat_salt_min             =   1.6101887639985E+01
(PID.TID 0000.0001) %MON dynstat_salt_mean            =   3.4724813132952E+01
(PID.TID 0000.0001) %MON dynstat_salt_sd              =   3.7967580264629E-01
(PID.TID 0000.0001) %MON dynstat_salt_del2            =   6.8623203843376E-05
(PID.TID 0000.0001) %MON dynstat_sst_max              =   3.2476816638570E+01
(PID.TID 0000.0001) %MON dynstat_sst_min              =  -2.0358813996273E+00
(PID.TID 0000.0001) %MON dynstat_sst_mean             =   1.8183198946539E+01
(PID.TID 0000.0001) %MON dynstat_sst_sd               =   1.0171518431409E+01
(PID.TID 0000.0001) %MON dynstat_sst_del2             =   1.1081254843886E-03
(PID.TID 0000.0001) %MON dynstat_sss_max              =   3.9469599578650E+01
(PID.TID 0000.0001) %MON dynstat_sss_min              =   1.6101887639985E+01
(PID.TID 0000.0001) %MON dynstat_sss_mean             =   3.4646082237940E+01
(PID.TID 0000.0001) %MON dynstat_sss_sd               =   1.2941636061699E+00
(PID.TID 0000.0001) %MON dynstat_sss_del2             =   1.4654968327502E-03
(PID.TID 0000.0001) %MON forcing_qnet_max             =   2.4008945312500E+03
(PID.TID 0000.0001) %MON forcing_qnet_min             =  -1.1576234130859E+03
(PID.TID 0000.0001) %MON forcing_qnet_mean            =  -3.1704152452581E+01
(PID.TID 0000.0001) %MON forcing_qnet_sd              =   2.3683260087115E+02
(PID.TID 0000.0001) %MON forcing_qnet_del2            =   4.9634812771031E-01
(PID.TID 0000.0001) %MON forcing_qsw_max              =   0.0000000000000E+00
(PID.TID 0000.0001) %MON forcing_qsw_min              =  -1.1174523562910E+02
(PID.TID 0000.0001) %MON forcing_qsw_mean             =  -2.3793478527471E+01
(PID.TID 0000.0001) %MON forcing_qsw_sd               =   3.3322942389887E+01
(PID.TID 0000.0001) %MON forcing_qsw_del2             =   1.9973704173794E-02
(PID.TID 0000.0001) %MON forcing_empmr_max            =   2.3760309442878E-02
(PID.TID 0000.0001) %MON forcing_empmr_min            =  -1.5238881111145E-01
(PID.TID 0000.0001) %MON forcing_empmr_mean           =   3.1591905552147E-06
(PID.TID 0000.0001) %MON forcing_empmr_sd             =   5.3103144103154E-04
(PID.TID 0000.0001) %MON forcing_empmr_del2           =   5.7905825483385E-06
(PID.TID 0000.0001) %MON forcing_fu_max               =   9.5003227026306E-01
(PID.TID 0000.0001) %MON forcing_fu_min               =  -7.8391335013504E-01
(PID.TID 0000.0001) %MON forcing_fu_mean              =   9.3945774055352E-03
(PID.TID 0000.0001) %MON forcing_fu_sd                =   1.2136863221307E-01
(PID.TID 0000.0001) %MON forcing_fu_del2              =   1.5851667179019E-04
(PID.TID 0000.0001) %MON forcing_fv_max               =   9.8672848939896E-01
(PID.TID 0000.0001) %MON forcing_fv_min               =  -1.4364600809971E+00
(PID.TID 0000.0001) %MON forcing_fv_mean              =  -1.0281885190872E-03
(PID.TID 0000.0001) %MON forcing_fv_sd                =   1.0657334028987E-01
(PID.TID 0000.0001) %MON forcing_fv_del2              =   1.5564658212750E-04
(PID.TID 0000.0001) %MON trAdv_CFL_u_max              =   2.9594482752087E-02
(PID.TID 0000.0001) %MON trAdv_CFL_v_max              =   2.3189026335029E-02
(PID.TID 0000.0001) %MON trAdv_CFL_w_max              =   1.0950728268210E-01
(PID.TID 0000.0001) %MON advcfl_uvel_max              =   2.9990350184174E-02
(PID.TID 0000.0001) %MON advcfl_vvel_max              =   2.2818565924296E-02
(PID.TID 0000.0001) %MON advcfl_wvel_max              =   1.0345548692860E-01
(PID.TID 0000.0001) %MON advcfl_W_hf_max              =   1.0950728268210E-01
(PID.TID 0000.0001) %MON pe_b_mean                    =   1.7721127156232E-03
(PID.TID 0000.0001) %MON ke_max                       =   2.9275345681388E+00
(PID.TID 0000.0001) %MON ke_mean                      =   8.6351782938367E-04
(PID.TID 0000.0001) %MON ke_vol                       =   1.3350064351420E+18
(PID.TID 0000.0001) %MON vort_r_min                   =  -1.0145221358007E-04
(PID.TID 0000.0001) %MON vort_r_max                   =   1.0981778080062E-04
(PID.TID 0000.0001) %MON vort_a_mean                  =  -1.9725071466891E-05
(PID.TID 0000.0001) %MON vort_a_sd                    =   7.4539240751973E-05
(PID.TID 0000.0001) %MON vort_p_mean                  =  -2.1669075893528E-05
(PID.TID 0000.0001) %MON vort_p_sd                    =   9.3607541138211E-05
(PID.TID 0000.0001) %MON surfExpan_theta_mean         =   9.7810229679750E-06
(PID.TID 0000.0001) %MON surfExpan_salt_mean          =   1.4221614211678E-05
(PID.TID 0000.0001) // =======================================================
(PID.TID 0000.0001) // End MONITOR dynamic field statistics
(PID.TID 0000.0001) // =======================================================
(PID.TID 0000.0001) // =======================================================
(PID.TID 0000.0001) // Begin MONITOR SEAICE statistics
(PID.TID 0000.0001) // =======================================================
(PID.TID 0000.0001) %MON seaice_tsnumber              =                174754
(PID.TID 0000.0001) %MON seaice_time_sec              =   7.8639300000000E+07
(PID.TID 0000.0001) %MON seaice_uice_max              =   1.4557000066011E+00
(PID.TID 0000.0001) %MON seaice_uice_min              =  -2.0477046587826E+00
(PID.TID 0000.0001) %MON seaice_uice_mean             =  -7.7238592196997E-04
(PID.TID 0000.0001) %MON seaice_uice_sd               =   1.5318223247662E-01
(PID.TID 0000.0001) %MON seaice_uice_del2             =   3.4216287913332E-04
(PID.TID 0000.0001) %MON seaice_vice_max              =   1.4912194938059E+00
(PID.TID 0000.0001) %MON seaice_vice_min              =  -1.4584248905409E+00
(PID.TID 0000.0001) %MON seaice_vice_mean             =  -2.2221124682850E-02
(PID.TID 0000.0001) %MON seaice_vice_sd               =   1.6514053664096E-01
(PID.TID 0000.0001) %MON seaice_vice_del2             =   3.2101131664467E-04
(PID.TID 0000.0001) %MON seaice_area_max              =   1.0040888792516E+00
(PID.TID 0000.0001) %MON seaice_area_min              =   0.0000000000000E+00
(PID.TID 0000.0001) %MON seaice_area_mean             =   5.7373491941308E-02
(PID.TID 0000.0001) %MON seaice_area_sd               =   2.2130812404401E-01
(PID.TID 0000.0001) %MON seaice_area_del2             =   2.9992177878784E-04
(PID.TID 0000.0001) %MON seaice_heff_max              =   9.9488634416393E+00
(PID.TID 0000.0001) %MON seaice_heff_min              =   0.0000000000000E+00
(PID.TID 0000.0001) %MON seaice_heff_mean             =   1.4983850538953E-01
(PID.TID 0000.0001) %MON seaice_heff_sd               =   7.2088846161373E-01
(PID.TID 0000.0001) %MON seaice_heff_del2             =   1.4177805787431E-03
(PID.TID 0000.0001) %MON seaice_hsnow_max             =   3.2861396981785E+00
(PID.TID 0000.0001) %MON seaice_hsnow_min             =   0.0000000000000E+00
(PID.TID 0000.0001) %MON seaice_hsnow_mean            =   1.2686686654794E-02
(PID.TID 0000.0001) %MON seaice_hsnow_sd              =   6.8641663309930E-02
(PID.TID 0000.0001) %MON seaice_hsnow_del2            =   3.9278870156286E-04
(PID.TID 0000.0001) // =======================================================
(PID.TID 0000.0001) // End MONITOR SEAICE statistics
(PID.TID 0000.0001) // =======================================================
(PID.TID 0000.0001) // =======================================================
(PID.TID 0000.0001) // Begin MONITOR dynamic field statistics
(PID.TID 0000.0001) // =======================================================
(PID.TID 0000.0001) %MON time_tsnumber                =                174755
(PID.TID 0000.0001) %MON time_secondsf                =   7.8639750000000E+07
(PID.TID 0000.0001) %MON dynstat_eta_max              =   2.1678415729237E+00
(PID.TID 0000.0001) %MON dynstat_eta_min              =  -1.1400654171889E+01
(PID.TID 0000.0001) %MON dynstat_eta_mean             =   6.4699573832789E-02
(PID.TID 0000.0001) %MON dynstat_eta_sd               =   8.4545548209261E-01
(PID.TID 0000.0001) %MON dynstat_eta_del2             =   2.0118479086659E-03
(PID.TID 0000.0001) %MON dynstat_uvel_max             =   2.1255662859512E+00
(PID.TID 0000.0001) %MON dynstat_uvel_min             =  -2.8682504725411E+00
(PID.TID 0000.0001) %MON dynstat_uvel_mean            =   1.8976519213357E-03
(PID.TID 0000.0001) %MON dynstat_uvel_sd              =   2.9249413246046E-02
(PID.TID 0000.0001) %MON dynstat_uvel_del2            =   3.4566581248750E-05
(PID.TID 0000.0001) %MON dynstat_vvel_max             =   2.1234827736586E+00
(PID.TID 0000.0001) %MON dynstat_vvel_min             =  -2.1418570721783E+00
(PID.TID 0000.0001) %MON dynstat_vvel_mean            =   2.2423973068398E-03
(PID.TID 0000.0001) %MON dynstat_vvel_sd              =   3.0436959540229E-02
(PID.TID 0000.0001) %MON dynstat_vvel_del2            =   3.2468237265717E-05
(PID.TID 0000.0001) %MON dynstat_wvel_max             =   7.1790633616864E-03
(PID.TID 0000.0001) %MON dynstat_wvel_min             =  -9.2715866526303E-03
(PID.TID 0000.0001) %MON dynstat_wvel_mean            =   4.6707691640215E-07
(PID.TID 0000.0001) %MON dynstat_wvel_sd              =   9.9416657921544E-05
(PID.TID 0000.0001) %MON dynstat_wvel_del2            =   2.3527137449296E-07
(PID.TID 0000.0001) %MON dynstat_theta_max            =   3.2473373394764E+01
(PID.TID 0000.0001) %MON dynstat_theta_min            =  -2.0361423586340E+00
(PID.TID 0000.0001) %MON dynstat_theta_mean           =   3.5921346335706E+00
(PID.TID 0000.0001) %MON dynstat_theta_sd             =   4.4421942245642E+00
(PID.TID 0000.0001) %MON dynstat_theta_del2           =   1.2274050087213E-04
(PID.TID 0000.0001) %MON dynstat_salt_max             =   4.0655991877941E+01
(PID.TID 0000.0001) %MON dynstat_salt_min             =   1.6100431134002E+01
(PID.TID 0000.0001) %MON dynstat_salt_mean            =   3.4724812744814E+01
(PID.TID 0000.0001) %MON dynstat_salt_sd              =   3.7967668063444E-01
(PID.TID 0000.0001) %MON dynstat_salt_del2            =   6.8564882127197E-05
(PID.TID 0000.0001) %MON dynstat_sst_max              =   3.2473373394764E+01
(PID.TID 0000.0001) %MON dynstat_sst_min              =  -2.0361423586340E+00
(PID.TID 0000.0001) %MON dynstat_sst_mean             =   1.8183426707399E+01
(PID.TID 0000.0001) %MON dynstat_sst_sd               =   1.0171858457328E+01
(PID.TID 0000.0001) %MON dynstat_sst_del2             =   1.1079769265812E-03
(PID.TID 0000.0001) %MON dynstat_sss_max              =   3.9469388969914E+01
(PID.TID 0000.0001) %MON dynstat_sss_min              =   1.6100431134002E+01
(PID.TID 0000.0001) %MON dynstat_sss_mean             =   3.4646029717165E+01
(PID.TID 0000.0001) %MON dynstat_sss_sd               =   1.2942694895681E+00
(PID.TID 0000.0001) %MON dynstat_sss_del2             =   1.4660019653599E-03
(PID.TID 0000.0001) %MON forcing_qnet_max             =   3.1200512620034E+03
(PID.TID 0000.0001) %MON forcing_qnet_min             =  -1.0360457871831E+03
(PID.TID 0000.0001) %MON forcing_qnet_mean            =  -3.1995607812798E+01
(PID.TID 0000.0001) %MON forcing_qnet_sd              =   2.3762062389523E+02
(PID.TID 0000.0001) %MON forcing_qnet_del2            =   4.9778739325113E-01
(PID.TID 0000.0001) %MON forcing_qsw_max              =   0.0000000000000E+00
(PID.TID 0000.0001) %MON forcing_qsw_min              =  -1.1184532237792E+02
(PID.TID 0000.0001) %MON forcing_qsw_mean             =  -2.3854458996415E+01
(PID.TID 0000.0001) %MON forcing_qsw_sd               =   3.3322334758863E+01
(PID.TID 0000.0001) %MON forcing_qsw_del2             =   1.9972851455992E-02
(PID.TID 0000.0001) %MON forcing_empmr_max            =   3.7388239055872E-02
(PID.TID 0000.0001) %MON forcing_empmr_min            =  -1.5183997154236E-01
(PID.TID 0000.0001) %MON forcing_empmr_mean           =   4.0412684296095E-06
(PID.TID 0000.0001) %MON forcing_empmr_sd             =   5.5200276873811E-04
(PID.TID 0000.0001) %MON forcing_empmr_del2           =   5.7876240580658E-06
(PID.TID 0000.0001) %MON forcing_fu_max               =   9.4400242068518E-01
(PID.TID 0000.0001) %MON forcing_fu_min               =  -7.9037280785860E-01
(PID.TID 0000.0001) %MON forcing_fu_mean              =   9.3955112700199E-03
(PID.TID 0000.0001) %MON forcing_fu_sd                =   1.2143059533900E-01
(PID.TID 0000.0001) %MON forcing_fu_del2              =   1.5856835323658E-04
(PID.TID 0000.0001) %MON forcing_fv_max               =   9.9020689725876E-01
(PID.TID 0000.0001) %MON forcing_fv_min               =  -1.4128172510800E+00
(PID.TID 0000.0001) %MON forcing_fv_mean              =  -1.0013381832204E-03
(PID.TID 0000.0001) %MON forcing_fv_sd                =   1.0657556974066E-01
(PID.TID 0000.0001) %MON forcing_fv_del2              =   1.5574808013410E-04
(PID.TID 0000.0001) %MON trAdv_CFL_u_max              =   2.9585025362933E-02
(PID.TID 0000.0001) %MON trAdv_CFL_v_max              =   2.3198422101167E-02
(PID.TID 0000.0001) %MON trAdv_CFL_w_max              =   1.0920506904264E-01
(PID.TID 0000.0001) %MON advcfl_uvel_max              =   2.9980766289266E-02
(PID.TID 0000.0001) %MON advcfl_vvel_max              =   2.2827811586702E-02
(PID.TID 0000.0001) %MON advcfl_wvel_max              =   1.0315095780422E-01
(PID.TID 0000.0001) %MON advcfl_W_hf_max              =   1.0920506904264E-01
(PID.TID 0000.0001) %MON pe_b_mean                    =   1.7754947046689E-03
(PID.TID 0000.0001) %MON ke_max                       =   2.9260610272985E+00
(PID.TID 0000.0001) %MON ke_mean                      =   8.6340001077249E-04
(PID.TID 0000.0001) %MON ke_vol                       =   1.3350064351420E+18
(PID.TID 0000.0001) %MON vort_r_min                   =  -1.0134291716907E-04
(PID.TID 0000.0001) %MON vort_r_max                   =   1.0979248381542E-04
(PID.TID 0000.0001) %MON vort_a_mean                  =  -1.9725071386934E-05
(PID.TID 0000.0001) %MON vort_a_sd                    =   7.4539252858729E-05
(PID.TID 0000.0001) %MON vort_p_mean                  =  -2.1669075805692E-05
(PID.TID 0000.0001) %MON vort_p_sd                    =   9.3607600624115E-05
(PID.TID 0000.0001) %MON surfExpan_theta_mean         =   1.0479173567120E-05
(PID.TID 0000.0001) %MON surfExpan_salt_mean          =   1.5359319624039E-05
(PID.TID 0000.0001) // =======================================================
(PID.TID 0000.0001) // End MONITOR dynamic field statistics
(PID.TID 0000.0001) // =======================================================
(PID.TID 0000.0001) // =======================================================
(PID.TID 0000.0001) // Begin MONITOR SEAICE statistics
(PID.TID 0000.0001) // =======================================================
(PID.TID 0000.0001) %MON seaice_tsnumber              =                174755
(PID.TID 0000.0001) %MON seaice_time_sec              =   7.8639750000000E+07
(PID.TID 0000.0001) %MON seaice_uice_max              =   1.4551877498508E+00
(PID.TID 0000.0001) %MON seaice_uice_min              =  -2.0168849767620E+00
(PID.TID 0000.0001) %MON seaice_uice_mean             =  -7.3937751857176E-04
(PID.TID 0000.0001) %MON seaice_uice_sd               =   1.5318957964282E-01
(PID.TID 0000.0001) %MON seaice_uice_del2             =   3.4225730664797E-04
(PID.TID 0000.0001) %MON seaice_vice_max              =   1.4843961766516E+00
(PID.TID 0000.0001) %MON seaice_vice_min              =  -1.4590005251794E+00
(PID.TID 0000.0001) %MON seaice_vice_mean             =  -2.2182323961906E-02
(PID.TID 0000.0001) %MON seaice_vice_sd               =   1.6527644971564E-01
(PID.TID 0000.0001) %MON seaice_vice_del2             =   3.2070272149689E-04
(PID.TID 0000.0001) %MON seaice_area_max              =   1.0039975686082E+00
(PID.TID 0000.0001) %MON seaice_area_min              =   0.0000000000000E+00
(PID.TID 0000.0001) %MON seaice_area_mean             =   5.7375503671900E-02
(PID.TID 0000.0001) %MON seaice_area_sd               =   2.2130332246249E-01
(PID.TID 0000.0001) %MON seaice_area_del2             =   2.9978121545663E-04
(PID.TID 0000.0001) %MON seaice_heff_max              =   9.9488549003121E+00
(PID.TID 0000.0001) %MON seaice_heff_min              =   0.0000000000000E+00
(PID.TID 0000.0001) %MON seaice_heff_mean             =   1.4983476385572E-01
(PID.TID 0000.0001) %MON seaice_heff_sd               =   7.2087744611116E-01
(PID.TID 0000.0001) %MON seaice_heff_del2             =   1.4170325923219E-03
(PID.TID 0000.0001) %MON seaice_hsnow_max             =   3.2861368509233E+00
(PID.TID 0000.0001) %MON seaice_hsnow_min             =   0.0000000000000E+00
(PID.TID 0000.0001) %MON seaice_hsnow_mean            =   1.2685979705817E-02
(PID.TID 0000.0001) %MON seaice_hsnow_sd              =   6.8634418608532E-02
(PID.TID 0000.0001) %MON seaice_hsnow_del2            =   3.9253275571586E-04
(PID.TID 0000.0001) // =======================================================
(PID.TID 0000.0001) // End MONITOR SEAICE statistics
(PID.TID 0000.0001) // =======================================================
(PID.TID 0000.0001) // =======================================================
(PID.TID 0000.0001) // Begin MONITOR dynamic field statistics
(PID.TID 0000.0001) // =======================================================
(PID.TID 0000.0001) %MON time_tsnumber                =                174756
(PID.TID 0000.0001) %MON time_secondsf                =   7.8640200000000E+07
(PID.TID 0000.0001) %MON dynstat_eta_max              =   2.1706021812255E+00
(PID.TID 0000.0001) %MON dynstat_eta_min              =  -1.1438185923898E+01
(PID.TID 0000.0001) %MON dynstat_eta_mean             =   6.4892555999763E-02
(PID.TID 0000.0001) %MON dynstat_eta_sd               =   8.4532954242286E-01
(PID.TID 0000.0001) %MON dynstat_eta_del2             =   2.0119113735976E-03
(PID.TID 0000.0001) %MON dynstat_uvel_max             =   2.1352263620775E+00
(PID.TID 0000.0001) %MON dynstat_uvel_min             =  -2.8671175318424E+00
(PID.TID 0000.0001) %MON dynstat_uvel_mean            =   2.0012932289237E-03
(PID.TID 0000.0001) %MON dynstat_uvel_sd              =   2.9245095257451E-02
(PID.TID 0000.0001) %MON dynstat_uvel_del2            =   3.4625008777763E-05
(PID.TID 0000.0001) %MON dynstat_vvel_max             =   2.1318535533448E+00
(PID.TID 0000.0001) %MON dynstat_vvel_min             =  -2.1466876582651E+00
(PID.TID 0000.0001) %MON dynstat_vvel_mean            =   2.2669426780050E-03
(PID.TID 0000.0001) %MON dynstat_vvel_sd              =   3.0429328490348E-02
(PID.TID 0000.0001) %MON dynstat_vvel_del2            =   3.2507868737798E-05
(PID.TID 0000.0001) %MON dynstat_wvel_max             =   7.1299135016518E-03
(PID.TID 0000.0001) %MON dynstat_wvel_min             =  -9.2092498980228E-03
(PID.TID 0000.0001) %MON dynstat_wvel_mean            =   4.9261663050028E-07
(PID.TID 0000.0001) %MON dynstat_wvel_sd              =   9.9649114469990E-05
(PID.TID 0000.0001) %MON dynstat_wvel_del2            =   2.3598968643662E-07
(PID.TID 0000.0001) %MON dynstat_theta_max            =   3.2469884162209E+01
(PID.TID 0000.0001) %MON dynstat_theta_min            =  -2.0363905914392E+00
(PID.TID 0000.0001) %MON dynstat_theta_mean           =   3.5921342742804E+00
(PID.TID 0000.0001) %MON dynstat_theta_sd             =   4.4421949146526E+00
(PID.TID 0000.0001) %MON dynstat_theta_del2           =   1.2279724023837E-04
(PID.TID 0000.0001) %MON dynstat_salt_max             =   4.0655991877859E+01
(PID.TID 0000.0001) %MON dynstat_salt_min             =   1.6098944248373E+01
(PID.TID 0000.0001) %MON dynstat_salt_mean            =   3.4724812382421E+01
(PID.TID 0000.0001) %MON dynstat_salt_sd              =   3.7967753187869E-01
(PID.TID 0000.0001) %MON dynstat_salt_del2            =   6.8506232677367E-05
(PID.TID 0000.0001) %MON dynstat_sst_max              =   3.2469884162209E+01
(PID.TID 0000.0001) %MON dynstat_sst_min              =  -2.0363905914392E+00
(PID.TID 0000.0001) %MON dynstat_sst_mean             =   1.8183662954003E+01
(PID.TID 0000.0001) %MON dynstat_sst_sd               =   1.0172207797955E+01
(PID.TID 0000.0001) %MON dynstat_sst_del2             =   1.1079460405260E-03
(PID.TID 0000.0001) %MON dynstat_sss_max              =   3.9469211369338E+01
(PID.TID 0000.0001) %MON dynstat_sss_min              =   1.6098944248373E+01
(PID.TID 0000.0001) %MON dynstat_sss_mean             =   3.4645974972892E+01
(PID.TID 0000.0001) %MON dynstat_sss_sd               =   1.2943740269942E+00
(PID.TID 0000.0001) %MON dynstat_sss_del2             =   1.4664375120965E-03
(PID.TID 0000.0001) %MON forcing_qnet_max             =   1.4032310489529E+04
(PID.TID 0000.0001) %MON forcing_qnet_min             =  -1.3219086391356E+03
(PID.TID 0000.0001) %MON forcing_qnet_mean            =  -3.1792691036762E+01
(PID.TID 0000.0001) %MON forcing_qnet_sd              =   2.5074095848185E+02
(PID.TID 0000.0001) %MON forcing_qnet_del2            =   6.1742930920275E-01
(PID.TID 0000.0001) %MON forcing_qsw_max              =   0.0000000000000E+00
(PID.TID 0000.0001) %MON forcing_qsw_min              =  -1.1186797587302E+02
(PID.TID 0000.0001) %MON forcing_qsw_mean             =  -2.3897505662586E+01
(PID.TID 0000.0001) %MON forcing_qsw_sd               =   3.3306553730770E+01
(PID.TID 0000.0001) %MON forcing_qsw_del2             =   1.9968074323969E-02
(PID.TID 0000.0001) %MON forcing_empmr_max            =   1.6221246123314E-01
(PID.TID 0000.0001) %MON forcing_empmr_min            =  -1.5367759764194E-01
(PID.TID 0000.0001) %MON forcing_empmr_mean           =   8.1247257865597E-06
(PID.TID 0000.0001) %MON forcing_empmr_sd             =   1.0510219632043E-03
(PID.TID 0000.0001) %MON forcing_empmr_del2           =   6.8650138813905E-06
(PID.TID 0000.0001) %MON forcing_fu_max               =   9.3745436382570E-01
(PID.TID 0000.0001) %MON forcing_fu_min               =  -7.9737935370780E-01
(PID.TID 0000.0001) %MON forcing_fu_mean              =   9.3960170613412E-03
(PID.TID 0000.0001) %MON forcing_fu_sd                =   1.2148449475580E-01
(PID.TID 0000.0001) %MON forcing_fu_del2              =   1.5851769050568E-04
(PID.TID 0000.0001) %MON forcing_fv_max               =   9.8951107263565E-01
(PID.TID 0000.0001) %MON forcing_fv_min               =  -1.3852961628196E+00
(PID.TID 0000.0001) %MON forcing_fv_mean              =  -9.7936270403846E-04
(PID.TID 0000.0001) %MON forcing_fv_sd                =   1.0659431209914E-01
(PID.TID 0000.0001) %MON forcing_fv_del2              =   1.5577502341851E-04
(PID.TID 0000.0001) %MON trAdv_CFL_u_max              =   2.9573339466032E-02
(PID.TID 0000.0001) %MON trAdv_CFL_v_max              =   2.3202448265633E-02
(PID.TID 0000.0001) %MON trAdv_CFL_w_max              =   1.0891031397615E-01
(PID.TID 0000.0001) %MON advcfl_uvel_max              =   2.9968924077216E-02
(PID.TID 0000.0001) %MON advcfl_vvel_max              =   2.2831773430462E-02
(PID.TID 0000.0001) %MON advcfl_wvel_max              =   1.0285491578419E-01
(PID.TID 0000.0001) %MON advcfl_W_hf_max              =   1.0891031397615E-01
(PID.TID 0000.0001) %MON pe_b_mean                    =   1.7793898863169E-03
(PID.TID 0000.0001) %MON ke_max                       =   2.9240552944693E+00
(PID.TID 0000.0001) %MON ke_mean                      =   8.6330246045268E-04
(PID.TID 0000.0001) %MON ke_vol                       =   1.3350064351420E+18
(PID.TID 0000.0001) %MON vort_r_min                   =  -1.0122500766982E-04
(PID.TID 0000.0001) %MON vort_r_max                   =   1.0975664893080E-04
(PID.TID 0000.0001) %MON vort_a_mean                  =  -1.9725071327211E-05
(PID.TID 0000.0001) %MON vort_a_sd                    =   7.4539265003673E-05
(PID.TID 0000.0001) %MON vort_p_mean                  =  -2.1669075740083E-05
(PID.TID 0000.0001) %MON vort_p_sd                    =   9.3607660747578E-05
(PID.TID 0000.0001) %MON surfExpan_theta_mean         =   1.1193148235779E-05
(PID.TID 0000.0001) %MON surfExpan_salt_mean          =   1.6460758702588E-05
(PID.TID 0000.0001) // =======================================================
(PID.TID 0000.0001) // End MONITOR dynamic field statistics
(PID.TID 0000.0001) // =======================================================
(PID.TID 0000.0001) // =======================================================
(PID.TID 0000.0001) // Begin MONITOR SEAICE statistics
(PID.TID 0000.0001) // =======================================================
(PID.TID 0000.0001) %MON seaice_tsnumber              =                174756
(PID.TID 0000.0001) %MON seaice_time_sec              =   7.8640200000000E+07
(PID.TID 0000.0001) %MON seaice_uice_max              =   1.4546140219458E+00
(PID.TID 0000.0001) %MON seaice_uice_min              =  -1.9819033929759E+00
(PID.TID 0000.0001) %MON seaice_uice_mean             =  -6.9778632615568E-04
(PID.TID 0000.0001) %MON seaice_uice_sd               =   1.5319014086781E-01
(PID.TID 0000.0001) %MON seaice_uice_del2             =   3.4221828267883E-04
(PID.TID 0000.0001) %MON seaice_vice_max              =   1.4670700628271E+00
(PID.TID 0000.0001) %MON seaice_vice_min              =  -1.4595616169363E+00
(PID.TID 0000.0001) %MON seaice_vice_mean             =  -2.2150294695441E-02
(PID.TID 0000.0001) %MON seaice_vice_sd               =   1.6540682859503E-01
(PID.TID 0000.0001) %MON seaice_vice_del2             =   3.2032731911394E-04
(PID.TID 0000.0001) %MON seaice_area_max              =   1.0039071630436E+00
(PID.TID 0000.0001) %MON seaice_area_min              =   0.0000000000000E+00
(PID.TID 0000.0001) %MON seaice_area_mean             =   5.7377503769568E-02
(PID.TID 0000.0001) %MON seaice_area_sd               =   2.2129851674851E-01
(PID.TID 0000.0001) %MON seaice_area_del2             =   2.9963196191396E-04
(PID.TID 0000.0001) %MON seaice_heff_max              =   9.9488444506835E+00
(PID.TID 0000.0001) %MON seaice_heff_min              =   0.0000000000000E+00
(PID.TID 0000.0001) %MON seaice_heff_mean             =   1.4983100447907E-01
(PID.TID 0000.0001) %MON seaice_heff_sd               =   7.2086642933638E-01
(PID.TID 0000.0001) %MON seaice_heff_del2             =   1.4162807278865E-03
(PID.TID 0000.0001) %MON seaice_hsnow_max             =   3.2861335264140E+00
(PID.TID 0000.0001) %MON seaice_hsnow_min             =   0.0000000000000E+00
(PID.TID 0000.0001) %MON seaice_hsnow_mean            =   1.2685269347951E-02
(PID.TID 0000.0001) %MON seaice_hsnow_sd              =   6.8627137522050E-02
(PID.TID 0000.0001) %MON seaice_hsnow_del2            =   3.9227577172401E-04
(PID.TID 0000.0001) // =======================================================
(PID.TID 0000.0001) // End MONITOR SEAICE statistics
(PID.TID 0000.0001) // =======================================================
(PID.TID 0000.0001) // =======================================================
(PID.TID 0000.0001) // Begin MONITOR dynamic field statistics
(PID.TID 0000.0001) // =======================================================
(PID.TID 0000.0001) %MON time_tsnumber                =                174757
(PID.TID 0000.0001) %MON time_secondsf                =   7.8640650000000E+07
(PID.TID 0000.0001) %MON dynstat_eta_max              =   2.1658566614955E+00
(PID.TID 0000.0001) %MON dynstat_eta_min              =  -1.1465418647697E+01
(PID.TID 0000.0001) %MON dynstat_eta_mean             =   6.5104916512782E-02
(PID.TID 0000.0001) %MON dynstat_eta_sd               =   8.4523577146132E-01
(PID.TID 0000.0001) %MON dynstat_eta_del2             =   2.0120154643617E-03
(PID.TID 0000.0001) %MON dynstat_uvel_max             =   2.1447497363381E+00
(PID.TID 0000.0001) %MON dynstat_uvel_min             =  -2.8657876261263E+00
(PID.TID 0000.0001) %MON dynstat_uvel_mean            =   2.1069037225931E-03
(PID.TID 0000.0001) %MON dynstat_uvel_sd              =   2.9242414577438E-02
(PID.TID 0000.0001) %MON dynstat_uvel_del2            =   3.4681807600124E-05
(PID.TID 0000.0001) %MON dynstat_vvel_max             =   2.1397621342565E+00
(PID.TID 0000.0001) %MON dynstat_vvel_min             =  -2.1512392060273E+00
(PID.TID 0000.0001) %MON dynstat_vvel_mean            =   2.2893427391790E-03
(PID.TID 0000.0001) %MON dynstat_vvel_sd              =   3.0420542089955E-02
(PID.TID 0000.0001) %MON dynstat_vvel_del2            =   3.2546852254562E-05
(PID.TID 0000.0001) %MON dynstat_wvel_max             =   7.0792156170003E-03
(PID.TID 0000.0001) %MON dynstat_wvel_min             =  -9.1433637793876E-03
(PID.TID 0000.0001) %MON dynstat_wvel_mean            =   5.1784209801533E-07
(PID.TID 0000.0001) %MON dynstat_wvel_sd              =   9.9884118543421E-05
(PID.TID 0000.0001) %MON dynstat_wvel_del2            =   2.3671487681041E-07
(PID.TID 0000.0001) %MON dynstat_theta_max            =   3.2466369258253E+01
(PID.TID 0000.0001) %MON dynstat_theta_min            =  -2.0366245360107E+00
(PID.TID 0000.0001) %MON dynstat_theta_mean           =   3.5921339024824E+00
(PID.TID 0000.0001) %MON dynstat_theta_sd             =   4.4421955772407E+00
(PID.TID 0000.0001) %MON dynstat_theta_del2           =   1.2285296117824E-04
(PID.TID 0000.0001) %MON dynstat_salt_max             =   4.0655991877777E+01
(PID.TID 0000.0001) %MON dynstat_salt_min             =   1.6097427461056E+01
(PID.TID 0000.0001) %MON dynstat_salt_mean            =   3.4724812059141E+01
(PID.TID 0000.0001) %MON dynstat_salt_sd              =   3.7967835596576E-01
(PID.TID 0000.0001) %MON dynstat_salt_del2            =   6.8449502336206E-05
(PID.TID 0000.0001) %MON dynstat_sst_max              =   3.2466369258253E+01
(PID.TID 0000.0001) %MON dynstat_sst_min              =  -2.0366245360107E+00
(PID.TID 0000.0001) %MON dynstat_sst_mean             =   1.8183904930305E+01
(PID.TID 0000.0001) %MON dynstat_sst_sd               =   1.0172560632852E+01
(PID.TID 0000.0001) %MON dynstat_sst_del2             =   1.1077599030274E-03
(PID.TID 0000.0001) %MON dynstat_sss_max              =   3.9469065304335E+01
(PID.TID 0000.0001) %MON dynstat_sss_min              =   1.6097427461056E+01
(PID.TID 0000.0001) %MON dynstat_sss_mean             =   3.4645924478414E+01
(PID.TID 0000.0001) %MON dynstat_sss_sd               =   1.2944790017649E+00
(PID.TID 0000.0001) %MON dynstat_sss_del2             =   1.4670140772447E-03
(PID.TID 0000.0001) %MON forcing_qnet_max             =   5.0457094726562E+03
(PID.TID 0000.0001) %MON forcing_qnet_min             =  -1.1580565734938E+03
(PID.TID 0000.0001) %MON forcing_qnet_mean            =  -3.4653384039861E+01
(PID.TID 0000.0001) %MON forcing_qnet_sd              =   2.3933663403989E+02
(PID.TID 0000.0001) %MON forcing_qnet_del2            =   5.5060561367067E-01
(PID.TID 0000.0001) %MON forcing_qsw_max              =   0.0000000000000E+00
(PID.TID 0000.0001) %MON forcing_qsw_min              =  -1.1203489498283E+02
(PID.TID 0000.0001) %MON forcing_qsw_mean             =  -2.4310918313298E+01
(PID.TID 0000.0001) %MON forcing_qsw_sd               =   3.3504136619848E+01
(PID.TID 0000.0001) %MON forcing_qsw_del2             =   1.9722413220652E-02
(PID.TID 0000.0001) %MON forcing_empmr_max            =   1.9658530130982E-02
(PID.TID 0000.0001) %MON forcing_empmr_min            =  -1.4714089035988E-01
(PID.TID 0000.0001) %MON forcing_empmr_mean           =   3.6611175717383E-06
(PID.TID 0000.0001) %MON forcing_empmr_sd             =   5.1863882052589E-04
(PID.TID 0000.0001) %MON forcing_empmr_del2           =   5.6428620191462E-06
(PID.TID 0000.0001) %MON forcing_fu_max               =   9.3408512680563E-01
(PID.TID 0000.0001) %MON forcing_fu_min               =  -8.0444989004705E-01
(PID.TID 0000.0001) %MON forcing_fu_mean              =   9.3989694770202E-03
(PID.TID 0000.0001) %MON forcing_fu_sd                =   1.2154630607393E-01
(PID.TID 0000.0001) %MON forcing_fu_del2              =   1.5858456078829E-04
(PID.TID 0000.0001) %MON forcing_fv_max               =   9.8827993869782E-01
(PID.TID 0000.0001) %MON forcing_fv_min               =  -1.4035959150360E+00
(PID.TID 0000.0001) %MON forcing_fv_mean              =  -9.6250278728031E-04
(PID.TID 0000.0001) %MON forcing_fv_sd                =   1.0660413542529E-01
(PID.TID 0000.0001) %MON forcing_fv_del2              =   1.5586167667886E-04
(PID.TID 0000.0001) %MON trAdv_CFL_u_max              =   2.9559621942156E-02
(PID.TID 0000.0001) %MON trAdv_CFL_v_max              =   2.3201250120047E-02
(PID.TID 0000.0001) %MON trAdv_CFL_w_max              =   1.0862783846181E-01
(PID.TID 0000.0001) %MON advcfl_uvel_max              =   2.9955023062349E-02
(PID.TID 0000.0001) %MON advcfl_vvel_max              =   2.2830594426064E-02
(PID.TID 0000.0001) %MON advcfl_wvel_max              =   1.0257204131332E-01
(PID.TID 0000.0001) %MON advcfl_W_hf_max              =   1.0862783846181E-01
(PID.TID 0000.0001) %MON pe_b_mean                    =   1.7838980256429E-03
(PID.TID 0000.0001) %MON ke_max                       =   2.9215671061555E+00
(PID.TID 0000.0001) %MON ke_mean                      =   8.6322744610293E-04
(PID.TID 0000.0001) %MON ke_vol                       =   1.3350064351420E+18
(PID.TID 0000.0001) %MON vort_r_min                   =  -1.0109965973182E-04
(PID.TID 0000.0001) %MON vort_r_max                   =   1.0971126117011E-04
(PID.TID 0000.0001) %MON vort_a_mean                  =  -1.9725071289680E-05
(PID.TID 0000.0001) %MON vort_a_sd                    =   7.4539277161332E-05
(PID.TID 0000.0001) %MON vort_p_mean                  =  -2.1669075698852E-05
(PID.TID 0000.0001) %MON vort_p_sd                    =   9.3607721508887E-05
(PID.TID 0000.0001) %MON surfExpan_theta_mean         =   1.1937748345279E-05
(PID.TID 0000.0001) %MON surfExpan_salt_mean          =   1.7549805319087E-05
(PID.TID 0000.0001) // =======================================================
(PID.TID 0000.0001) // End MONITOR dynamic field statistics
(PID.TID 0000.0001) // =======================================================
(PID.TID 0000.0001) // =======================================================
(PID.TID 0000.0001) // Begin MONITOR SEAICE statistics
(PID.TID 0000.0001) // =======================================================
(PID.TID 0000.0001) %MON seaice_tsnumber              =                174757
(PID.TID 0000.0001) %MON seaice_time_sec              =   7.8640650000000E+07
(PID.TID 0000.0001) %MON seaice_uice_max              =   1.4541199454886E+00
(PID.TID 0000.0001) %MON seaice_uice_min              =  -1.9429197838331E+00
(PID.TID 0000.0001) %MON seaice_uice_mean             =  -6.4965605611431E-04
(PID.TID 0000.0001) %MON seaice_uice_sd               =   1.5318886032094E-01
(PID.TID 0000.0001) %MON seaice_uice_del2             =   3.4210476373734E-04
(PID.TID 0000.0001) %MON seaice_vice_max              =   1.4385383602769E+00
(PID.TID 0000.0001) %MON seaice_vice_min              =  -1.4601055913809E+00
(PID.TID 0000.0001) %MON seaice_vice_mean             =  -2.2126199726544E-02
(PID.TID 0000.0001) %MON seaice_vice_sd               =   1.6553227989173E-01
(PID.TID 0000.0001) %MON seaice_vice_del2             =   3.1989684397564E-04
(PID.TID 0000.0001) %MON seaice_area_max              =   1.0038185846173E+00
(PID.TID 0000.0001) %MON seaice_area_min              =   0.0000000000000E+00
(PID.TID 0000.0001) %MON seaice_area_mean             =   5.7379514000625E-02
(PID.TID 0000.0001) %MON seaice_area_sd               =   2.2129378219295E-01
(PID.TID 0000.0001) %MON seaice_area_del2             =   2.9947353636343E-04
(PID.TID 0000.0001) %MON seaice_heff_max              =   9.9488359134456E+00
(PID.TID 0000.0001) %MON seaice_heff_min              =   0.0000000000000E+00
(PID.TID 0000.0001) %MON seaice_heff_mean             =   1.4982724113638E-01
(PID.TID 0000.0001) %MON seaice_heff_sd               =   7.2085545773223E-01
(PID.TID 0000.0001) %MON seaice_heff_del2             =   1.4155246565181E-03
(PID.TID 0000.0001) %MON seaice_hsnow_max             =   3.2861306847466E+00
(PID.TID 0000.0001) %MON seaice_hsnow_min             =   0.0000000000000E+00
(PID.TID 0000.0001) %MON seaice_hsnow_mean            =   1.2684594906148E-02
(PID.TID 0000.0001) %MON seaice_hsnow_sd              =   6.8620018647223E-02
(PID.TID 0000.0001) %MON seaice_hsnow_del2            =   3.9201795487957E-04
(PID.TID 0000.0001) // =======================================================
(PID.TID 0000.0001) // End MONITOR SEAICE statistics
(PID.TID 0000.0001) // =======================================================
(PID.TID 0000.0001) // =======================================================
(PID.TID 0000.0001) // Begin MONITOR dynamic field statistics
(PID.TID 0000.0001) // =======================================================
(PID.TID 0000.0001) %MON time_tsnumber                =                174758
(PID.TID 0000.0001) %MON time_secondsf                =   7.8641100000000E+07
(PID.TID 0000.0001) %MON dynstat_eta_max              =   2.1535308693021E+00
(PID.TID 0000.0001) %MON dynstat_eta_min              =  -1.1482380537674E+01
(PID.TID 0000.0001) %MON dynstat_eta_mean             =   6.5334355012804E-02
(PID.TID 0000.0001) %MON dynstat_eta_sd               =   8.4517181009529E-01
(PID.TID 0000.0001) %MON dynstat_eta_del2             =   2.0121544603996E-03
(PID.TID 0000.0001) %MON dynstat_uvel_max             =   2.1541586314383E+00
(PID.TID 0000.0001) %MON dynstat_uvel_min             =  -2.8642833877782E+00
(PID.TID 0000.0001) %MON dynstat_uvel_mean            =   2.2140704823349E-03
(PID.TID 0000.0001) %MON dynstat_uvel_sd              =   2.9241484312129E-02
(PID.TID 0000.0001) %MON dynstat_uvel_del2            =   3.4737279326393E-05
(PID.TID 0000.0001) %MON dynstat_vvel_max             =   2.1471888383491E+00
(PID.TID 0000.0001) %MON dynstat_vvel_min             =  -2.1555310315533E+00
(PID.TID 0000.0001) %MON dynstat_vvel_mean            =   2.3096453942459E-03
(PID.TID 0000.0001) %MON dynstat_vvel_sd              =   3.0410860980087E-02
(PID.TID 0000.0001) %MON dynstat_vvel_del2            =   3.2585774915714E-05
(PID.TID 0000.0001) %MON dynstat_wvel_max             =   7.0271408213964E-03
(PID.TID 0000.0001) %MON dynstat_wvel_min             =  -9.0740276884839E-03
(PID.TID 0000.0001) %MON dynstat_wvel_mean            =   5.4240724498919E-07
(PID.TID 0000.0001) %MON dynstat_wvel_sd              =   1.0012224416308E-04
(PID.TID 0000.0001) %MON dynstat_wvel_del2            =   2.3744648809426E-07
(PID.TID 0000.0001) %MON dynstat_theta_max            =   3.2462801477219E+01
(PID.TID 0000.0001) %MON dynstat_theta_min            =  -2.0368426976010E+00
(PID.TID 0000.0001) %MON dynstat_theta_mean           =   3.5921334783481E+00
(PID.TID 0000.0001) %MON dynstat_theta_sd             =   4.4421960599840E+00
(PID.TID 0000.0001) %MON dynstat_theta_del2           =   1.2290800041741E-04
(PID.TID 0000.0001) %MON dynstat_salt_max             =   4.0655991877694E+01
(PID.TID 0000.0001) %MON dynstat_salt_min             =   1.6095882021735E+01
(PID.TID 0000.0001) %MON dynstat_salt_mean            =   3.4724811771616E+01
(PID.TID 0000.0001) %MON dynstat_salt_sd              =   3.7967913362881E-01
(PID.TID 0000.0001) %MON dynstat_salt_del2            =   6.8393042189937E-05
(PID.TID 0000.0001) %MON dynstat_sst_max              =   3.2462801477219E+01
(PID.TID 0000.0001) %MON dynstat_sst_min              =  -2.0368426976010E+00
(PID.TID 0000.0001) %MON dynstat_sst_mean             =   1.8184166572293E+01
(PID.TID 0000.0001) %MON dynstat_sst_sd               =   1.0172930989293E+01
(PID.TID 0000.0001) %MON dynstat_sst_del2             =   1.1076282430773E-03
(PID.TID 0000.0001) %MON dynstat_sss_max              =   3.9468947621346E+01
(PID.TID 0000.0001) %MON dynstat_sss_min              =   1.6095882021735E+01
(PID.TID 0000.0001) %MON dynstat_sss_mean             =   3.4645875159369E+01
(PID.TID 0000.0001) %MON dynstat_sss_sd               =   1.2945805729558E+00
(PID.TID 0000.0001) %MON dynstat_sss_del2             =   1.4675082892294E-03
(PID.TID 0000.0001) %MON forcing_qnet_max             =   1.9068214191295E+03
(PID.TID 0000.0001) %MON forcing_qnet_min             =  -9.6589476847040E+02
(PID.TID 0000.0001) %MON forcing_qnet_mean            =  -3.5740830980046E+01
(PID.TID 0000.0001) %MON forcing_qnet_sd              =   2.3701203077413E+02
(PID.TID 0000.0001) %MON forcing_qnet_del2            =   4.7335622743041E-01
(PID.TID 0000.0001) %MON forcing_qsw_max              =   0.0000000000000E+00
(PID.TID 0000.0001) %MON forcing_qsw_min              =  -1.1207328508765E+02
(PID.TID 0000.0001) %MON forcing_qsw_mean             =  -2.4407701515908E+01
(PID.TID 0000.0001) %MON forcing_qsw_sd               =   3.3538579648578E+01
(PID.TID 0000.0001) %MON forcing_qsw_del2             =   1.9782568271682E-02
(PID.TID 0000.0001) %MON forcing_empmr_max            =   2.1580705419183E-02
(PID.TID 0000.0001) %MON forcing_empmr_min            =  -1.4498232305050E-01
(PID.TID 0000.0001) %MON forcing_empmr_mean           =   3.6100790000855E-06
(PID.TID 0000.0001) %MON forcing_empmr_sd             =   5.0267917305036E-04
(PID.TID 0000.0001) %MON forcing_empmr_del2           =   5.5526011966803E-06
(PID.TID 0000.0001) %MON forcing_fu_max               =   9.3260586413375E-01
(PID.TID 0000.0001) %MON forcing_fu_min               =  -8.2721541368236E-01
(PID.TID 0000.0001) %MON forcing_fu_mean              =   9.4126928164769E-03
(PID.TID 0000.0001) %MON forcing_fu_sd                =   1.2163832923122E-01
(PID.TID 0000.0001) %MON forcing_fu_del2              =   1.5877123770790E-04
(PID.TID 0000.0001) %MON forcing_fv_max               =   9.8601052165031E-01
(PID.TID 0000.0001) %MON forcing_fv_min               =  -1.4309886641077E+00
(PID.TID 0000.0001) %MON forcing_fv_mean              =  -9.4300417139456E-04
(PID.TID 0000.0001) %MON forcing_fv_sd                =   1.0664378397954E-01
(PID.TID 0000.0001) %MON forcing_fv_del2              =   1.5597562604833E-04
(PID.TID 0000.0001) %MON trAdv_CFL_u_max              =   2.9544106236639E-02
(PID.TID 0000.0001) %MON trAdv_CFL_v_max              =   2.3195103421488E-02
(PID.TID 0000.0001) %MON trAdv_CFL_w_max              =   1.0836376588545E-01
(PID.TID 0000.0001) %MON advcfl_uvel_max              =   2.9939299812657E-02
(PID.TID 0000.0001) %MON advcfl_vvel_max              =   2.2824545925180E-02
(PID.TID 0000.0001) %MON advcfl_wvel_max              =   1.0230843644753E-01
(PID.TID 0000.0001) %MON advcfl_W_hf_max              =   1.0836376588545E-01
(PID.TID 0000.0001) %MON pe_b_mean                    =   1.7889499832298E-03
(PID.TID 0000.0001) %MON ke_max                       =   2.9186511241946E+00
(PID.TID 0000.0001) %MON ke_mean                      =   8.6318550624653E-04
(PID.TID 0000.0001) %MON ke_vol                       =   1.3350064351420E+18
(PID.TID 0000.0001) %MON vort_r_min                   =  -1.0096814158187E-04
(PID.TID 0000.0001) %MON vort_r_max                   =   1.0965738309693E-04
(PID.TID 0000.0001) %MON vort_a_mean                  =  -1.9725071275898E-05
(PID.TID 0000.0001) %MON vort_a_sd                    =   7.4539289300853E-05
(PID.TID 0000.0001) %MON vort_p_mean                  =  -2.1669075683712E-05
(PID.TID 0000.0001) %MON vort_p_sd                    =   9.3607782784272E-05
(PID.TID 0000.0001) %MON surfExpan_theta_mean         =   1.2710590654364E-05
(PID.TID 0000.0001) %MON surfExpan_salt_mean          =   1.8614188033819E-05
(PID.TID 0000.0001) // =======================================================
(PID.TID 0000.0001) // End MONITOR dynamic field statistics
(PID.TID 0000.0001) // =======================================================
(PID.TID 0000.0001) // =======================================================
(PID.TID 0000.0001) // Begin MONITOR SEAICE statistics
(PID.TID 0000.0001) // =======================================================
(PID.TID 0000.0001) %MON seaice_tsnumber              =                174758
(PID.TID 0000.0001) %MON seaice_time_sec              =   7.8641100000000E+07
(PID.TID 0000.0001) %MON seaice_uice_max              =   1.4537927672538E+00
(PID.TID 0000.0001) %MON seaice_uice_min              =  -1.9000374378163E+00
(PID.TID 0000.0001) %MON seaice_uice_mean             =  -5.8472486904736E-04
(PID.TID 0000.0001) %MON seaice_uice_sd               =   1.5317581609661E-01
(PID.TID 0000.0001) %MON seaice_uice_del2             =   3.4187099820114E-04
(PID.TID 0000.0001) %MON seaice_vice_max              =   1.3999870253272E+00
(PID.TID 0000.0001) %MON seaice_vice_min              =  -1.4606373676143E+00
(PID.TID 0000.0001) %MON seaice_vice_mean             =  -2.2102673296821E-02
(PID.TID 0000.0001) %MON seaice_vice_sd               =   1.6565551175191E-01
(PID.TID 0000.0001) %MON seaice_vice_del2             =   3.1946109865038E-04
(PID.TID 0000.0001) %MON seaice_area_max              =   1.0037333784737E+00
(PID.TID 0000.0001) %MON seaice_area_min              =   0.0000000000000E+00
(PID.TID 0000.0001) %MON seaice_area_mean             =   5.7381521394690E-02
(PID.TID 0000.0001) %MON seaice_area_sd               =   2.2128906819092E-01
(PID.TID 0000.0001) %MON seaice_area_del2             =   2.9930641675978E-04
(PID.TID 0000.0001) %MON seaice_heff_max              =   9.9488503532151E+00
(PID.TID 0000.0001) %MON seaice_heff_min              =   0.0000000000000E+00
(PID.TID 0000.0001) %MON seaice_heff_mean             =   1.4982346974738E-01
(PID.TID 0000.0001) %MON seaice_heff_sd               =   7.2084450808430E-01
(PID.TID 0000.0001) %MON seaice_heff_del2             =   1.4147634538293E-03
(PID.TID 0000.0001) %MON seaice_hsnow_max             =   3.2861350202397E+00
(PID.TID 0000.0001) %MON seaice_hsnow_min             =   0.0000000000000E+00
(PID.TID 0000.0001) %MON seaice_hsnow_mean            =   1.2683913530939E-02
(PID.TID 0000.0001) %MON seaice_hsnow_sd              =   6.8612898059730E-02
(PID.TID 0000.0001) %MON seaice_hsnow_del2            =   3.9175874272960E-04
(PID.TID 0000.0001) // =======================================================
(PID.TID 0000.0001) // End MONITOR SEAICE statistics
(PID.TID 0000.0001) // =======================================================
(PID.TID 0000.0001) // =======================================================
(PID.TID 0000.0001) // Begin MONITOR dynamic field statistics
(PID.TID 0000.0001) // =======================================================
(PID.TID 0000.0001) %MON time_tsnumber                =                174759
(PID.TID 0000.0001) %MON time_secondsf                =   7.8641550000000E+07
(PID.TID 0000.0001) %MON dynstat_eta_max              =   2.1336288453652E+00
(PID.TID 0000.0001) %MON dynstat_eta_min              =  -1.1489237373865E+01
(PID.TID 0000.0001) %MON dynstat_eta_mean             =   6.5580124321156E-02
(PID.TID 0000.0001) %MON dynstat_eta_sd               =   8.4513682589763E-01
(PID.TID 0000.0001) %MON dynstat_eta_del2             =   2.0123189981029E-03
(PID.TID 0000.0001) %MON dynstat_uvel_max             =   2.1634733946396E+00
(PID.TID 0000.0001) %MON dynstat_uvel_min             =  -2.8626245231960E+00
(PID.TID 0000.0001) %MON dynstat_uvel_mean            =   2.3223686275664E-03
(PID.TID 0000.0001) %MON dynstat_uvel_sd              =   2.9242279274749E-02
(PID.TID 0000.0001) %MON dynstat_uvel_del2            =   3.4791475814059E-05
(PID.TID 0000.0001) %MON dynstat_vvel_max             =   2.1541181199769E+00
(PID.TID 0000.0001) %MON dynstat_vvel_min             =  -2.1595841711466E+00
(PID.TID 0000.0001) %MON dynstat_vvel_mean            =   2.3278997709103E-03
(PID.TID 0000.0001) %MON dynstat_vvel_sd              =   3.0400420222616E-02
(PID.TID 0000.0001) %MON dynstat_vvel_del2            =   3.2624751615065E-05
(PID.TID 0000.0001) %MON dynstat_wvel_max             =   6.9738248066193E-03
(PID.TID 0000.0001) %MON dynstat_wvel_min             =  -9.0013807880571E-03
(PID.TID 0000.0001) %MON dynstat_wvel_mean            =   5.6601118932502E-07
(PID.TID 0000.0001) %MON dynstat_wvel_sd              =   1.0036456935745E-04
(PID.TID 0000.0001) %MON dynstat_wvel_del2            =   2.3818387431766E-07
(PID.TID 0000.0001) %MON dynstat_theta_max            =   3.2459251759103E+01
(PID.TID 0000.0001) %MON dynstat_theta_min            =  -2.0370416431823E+00
(PID.TID 0000.0001) %MON dynstat_theta_mean           =   3.5921329744668E+00
(PID.TID 0000.0001) %MON dynstat_theta_sd             =   4.4421962124100E+00
(PID.TID 0000.0001) %MON dynstat_theta_del2           =   1.2296214208805E-04
(PID.TID 0000.0001) %MON dynstat_salt_max             =   4.0655991877610E+01
(PID.TID 0000.0001) %MON dynstat_salt_min             =   1.6094309645128E+01
(PID.TID 0000.0001) %MON dynstat_salt_mean            =   3.4724811513452E+01
(PID.TID 0000.0001) %MON dynstat_salt_sd              =   3.7967989076761E-01
(PID.TID 0000.0001) %MON dynstat_salt_del2            =   6.8337073001583E-05
(PID.TID 0000.0001) %MON dynstat_sst_max              =   3.2459251759103E+01
(PID.TID 0000.0001) %MON dynstat_sst_min              =  -2.0370416431823E+00
(PID.TID 0000.0001) %MON dynstat_sst_mean             =   1.8184429019811E+01
(PID.TID 0000.0001) %MON dynstat_sst_sd               =   1.0173305733581E+01
(PID.TID 0000.0001) %MON dynstat_sst_del2             =   1.1074681694750E-03
(PID.TID 0000.0001) %MON dynstat_sss_max              =   3.9468852548901E+01
(PID.TID 0000.0001) %MON dynstat_sss_min              =   1.6094309645128E+01
(PID.TID 0000.0001) %MON dynstat_sss_mean             =   3.4645826221763E+01
(PID.TID 0000.0001) %MON dynstat_sss_sd               =   1.2946827320882E+00
(PID.TID 0000.0001) %MON dynstat_sss_del2             =   1.4680141133677E-03
(PID.TID 0000.0001) %MON forcing_qnet_max             =   6.4981118164062E+03
(PID.TID 0000.0001) %MON forcing_qnet_min             =  -1.3010894074073E+03
(PID.TID 0000.0001) %MON forcing_qnet_mean            =  -3.5925552981756E+01
(PID.TID 0000.0001) %MON forcing_qnet_sd              =   2.3995457693380E+02
(PID.TID 0000.0001) %MON forcing_qnet_del2            =   6.5473951848455E-01
(PID.TID 0000.0001) %MON forcing_qsw_max              =   0.0000000000000E+00
(PID.TID 0000.0001) %MON forcing_qsw_min              =  -1.1207140001262E+02
(PID.TID 0000.0001) %MON forcing_qsw_mean             =  -2.4484223120960E+01
(PID.TID 0000.0001) %MON forcing_qsw_sd               =   3.3559483542442E+01
(PID.TID 0000.0001) %MON forcing_qsw_del2             =   1.9839370088686E-02
(PID.TID 0000.0001) %MON forcing_empmr_max            =   2.4415602907538E-02
(PID.TID 0000.0001) %MON forcing_empmr_min            =  -1.4384022355080E-01
(PID.TID 0000.0001) %MON forcing_empmr_mean           =   3.7551082969731E-06
(PID.TID 0000.0001) %MON forcing_empmr_sd             =   5.0912078583387E-04
(PID.TID 0000.0001) %MON forcing_empmr_del2           =   5.6226420956372E-06
(PID.TID 0000.0001) %MON forcing_fu_max               =   9.3051536984984E-01
(PID.TID 0000.0001) %MON forcing_fu_min               =  -8.3101273719127E-01
(PID.TID 0000.0001) %MON forcing_fu_mean              =   9.4263256624611E-03
(PID.TID 0000.0001) %MON forcing_fu_sd                =   1.2171741006427E-01
(PID.TID 0000.0001) %MON forcing_fu_del2              =   1.5884178139721E-04
(PID.TID 0000.0001) %MON forcing_fv_max               =   9.8327583074570E-01
(PID.TID 0000.0001) %MON forcing_fv_min               =  -1.4627617274067E+00
(PID.TID 0000.0001) %MON forcing_fv_mean              =  -9.2814590010574E-04
(PID.TID 0000.0001) %MON forcing_fv_sd                =   1.0668350507855E-01
(PID.TID 0000.0001) %MON forcing_fv_del2              =   1.5608601638904E-04
(PID.TID 0000.0001) %MON trAdv_CFL_u_max              =   2.9526995614255E-02
(PID.TID 0000.0001) %MON trAdv_CFL_v_max              =   2.3184356513805E-02
(PID.TID 0000.0001) %MON trAdv_CFL_w_max              =   1.0812039098019E-01
(PID.TID 0000.0001) %MON advcfl_uvel_max              =   2.9921960311864E-02
(PID.TID 0000.0001) %MON advcfl_vvel_max              =   2.2813970706630E-02
(PID.TID 0000.0001) %MON advcfl_wvel_max              =   1.0206621927736E-01
(PID.TID 0000.0001) %MON advcfl_W_hf_max              =   1.0812039098019E-01
(PID.TID 0000.0001) %MON pe_b_mean                    =   1.7945208010419E-03
(PID.TID 0000.0001) %MON ke_max                       =   2.9153599316916E+00
(PID.TID 0000.0001) %MON ke_mean                      =   8.6317942920866E-04
(PID.TID 0000.0001) %MON ke_vol                       =   1.3350064351420E+18
(PID.TID 0000.0001) %MON vort_r_min                   =  -1.0083182212011E-04
(PID.TID 0000.0001) %MON vort_r_max                   =   1.0959606099459E-04
(PID.TID 0000.0001) %MON vort_a_mean                  =  -1.9725071287077E-05
(PID.TID 0000.0001) %MON vort_a_sd                    =   7.4539301384722E-05
(PID.TID 0000.0001) %MON vort_p_mean                  =  -2.1669075695992E-05
(PID.TID 0000.0001) %MON vort_p_sd                    =   9.3607844576691E-05
(PID.TID 0000.0001) %MON surfExpan_theta_mean         =   1.3494434053227E-05
(PID.TID 0000.0001) %MON surfExpan_salt_mean          =   1.9633243179266E-05
(PID.TID 0000.0001) // =======================================================
(PID.TID 0000.0001) // End MONITOR dynamic field statistics
(PID.TID 0000.0001) // =======================================================
(PID.TID 0000.0001) // =======================================================
(PID.TID 0000.0001) // Begin MONITOR SEAICE statistics
(PID.TID 0000.0001) // =======================================================
(PID.TID 0000.0001) %MON seaice_tsnumber              =                174759
(PID.TID 0000.0001) %MON seaice_time_sec              =   7.8641550000000E+07
(PID.TID 0000.0001) %MON seaice_uice_max              =   1.4536925836388E+00
(PID.TID 0000.0001) %MON seaice_uice_min              =  -1.8536090370805E+00
(PID.TID 0000.0001) %MON seaice_uice_mean             =  -5.1147589380692E-04
(PID.TID 0000.0001) %MON seaice_uice_sd               =   1.5316235739348E-01
(PID.TID 0000.0001) %MON seaice_uice_del2             =   3.4163972253180E-04
(PID.TID 0000.0001) %MON seaice_vice_max              =   1.3550375146852E+00
(PID.TID 0000.0001) %MON seaice_vice_min              =  -1.4611596032945E+00
(PID.TID 0000.0001) %MON seaice_vice_mean             =  -2.2094058476141E-02
(PID.TID 0000.0001) %MON seaice_vice_sd               =   1.6577557241315E-01
(PID.TID 0000.0001) %MON seaice_vice_del2             =   3.1898080776912E-04
(PID.TID 0000.0001) %MON seaice_area_max              =   1.0036523817878E+00
(PID.TID 0000.0001) %MON seaice_area_min              =   0.0000000000000E+00
(PID.TID 0000.0001) %MON seaice_area_mean             =   5.7383517340489E-02
(PID.TID 0000.0001) %MON seaice_area_sd               =   2.2128435375510E-01
(PID.TID 0000.0001) %MON seaice_area_del2             =   2.9913064228792E-04
(PID.TID 0000.0001) %MON seaice_heff_max              =   9.9488408615498E+00
(PID.TID 0000.0001) %MON seaice_heff_min              =   0.0000000000000E+00
(PID.TID 0000.0001) %MON seaice_heff_mean             =   1.4981968437006E-01
(PID.TID 0000.0001) %MON seaice_heff_sd               =   7.2083354380607E-01
(PID.TID 0000.0001) %MON seaice_heff_del2             =   1.4139956781265E-03
(PID.TID 0000.0001) %MON seaice_hsnow_max             =   3.2861316978761E+00
(PID.TID 0000.0001) %MON seaice_hsnow_min             =   0.0000000000000E+00
(PID.TID 0000.0001) %MON seaice_hsnow_mean            =   1.2683215383524E-02
(PID.TID 0000.0001) %MON seaice_hsnow_sd              =   6.8605726406760E-02
(PID.TID 0000.0001) %MON seaice_hsnow_del2            =   3.9149806550199E-04
(PID.TID 0000.0001) // =======================================================
(PID.TID 0000.0001) // End MONITOR SEAICE statistics
(PID.TID 0000.0001) // =======================================================
(PID.TID 0000.0001) // =======================================================
(PID.TID 0000.0001) // Begin MONITOR dynamic field statistics
(PID.TID 0000.0001) // =======================================================
(PID.TID 0000.0001) %MON time_tsnumber                =                174760
(PID.TID 0000.0001) %MON time_secondsf                =   7.8642000000000E+07
(PID.TID 0000.0001) %MON dynstat_eta_max              =   2.1062361987792E+00
(PID.TID 0000.0001) %MON dynstat_eta_min              =  -1.1486294949525E+01
(PID.TID 0000.0001) %MON dynstat_eta_mean             =   6.5841559476956E-02
(PID.TID 0000.0001) %MON dynstat_eta_sd               =   8.4512979409337E-01
(PID.TID 0000.0001) %MON dynstat_eta_del2             =   2.0124957686305E-03
(PID.TID 0000.0001) %MON dynstat_uvel_max             =   2.1727121082400E+00
(PID.TID 0000.0001) %MON dynstat_uvel_min             =  -2.8608383188818E+00
(PID.TID 0000.0001) %MON dynstat_uvel_mean            =   2.4313657806457E-03
(PID.TID 0000.0001) %MON dynstat_uvel_sd              =   2.9244843992548E-02
(PID.TID 0000.0001) %MON dynstat_uvel_del2            =   3.4844217767154E-05
(PID.TID 0000.0001) %MON dynstat_vvel_max             =   2.1605316010610E+00
(PID.TID 0000.0001) %MON dynstat_vvel_min             =  -2.1634228968475E+00
(PID.TID 0000.0001) %MON dynstat_vvel_mean            =   2.3441721088838E-03
(PID.TID 0000.0001) %MON dynstat_vvel_sd              =   3.0389464635460E-02
(PID.TID 0000.0001) %MON dynstat_vvel_del2            =   3.2664254751341E-05
(PID.TID 0000.0001) %MON dynstat_wvel_max             =   6.9193774751259E-03
(PID.TID 0000.0001) %MON dynstat_wvel_min             =  -8.9256330622825E-03
(PID.TID 0000.0001) %MON dynstat_wvel_mean            =   5.8885818925382E-07
(PID.TID 0000.0001) %MON dynstat_wvel_sd              =   1.0061194634230E-04
(PID.TID 0000.0001) %MON dynstat_wvel_del2            =   2.3892703427964E-07
(PID.TID 0000.0001) %MON dynstat_theta_max            =   3.2455692571405E+01
(PID.TID 0000.0001) %MON dynstat_theta_min            =  -2.0372177020102E+00
(PID.TID 0000.0001) %MON dynstat_theta_mean           =   3.5921324043154E+00
(PID.TID 0000.0001) %MON dynstat_theta_sd             =   4.4421960991337E+00
(PID.TID 0000.0001) %MON dynstat_theta_del2           =   1.2301617972744E-04
(PID.TID 0000.0001) %MON dynstat_salt_max             =   4.0655991877525E+01
(PID.TID 0000.0001) %MON dynstat_salt_min             =   1.6092712935418E+01
(PID.TID 0000.0001) %MON dynstat_salt_mean            =   3.4724811288003E+01
(PID.TID 0000.0001) %MON dynstat_salt_sd              =   3.7968059170805E-01
(PID.TID 0000.0001) %MON dynstat_salt_del2            =   6.8281939587260E-05
(PID.TID 0000.0001) %MON dynstat_sst_max              =   3.2455692571405E+01
(PID.TID 0000.0001) %MON dynstat_sst_min              =  -2.0372177020102E+00
(PID.TID 0000.0001) %MON dynstat_sst_mean             =   1.8184702583733E+01
(PID.TID 0000.0001) %MON dynstat_sst_sd               =   1.0173690133485E+01
(PID.TID 0000.0001) %MON dynstat_sst_del2             =   1.1074160078842E-03
(PID.TID 0000.0001) %MON dynstat_sss_max              =   3.9468773408318E+01
(PID.TID 0000.0001) %MON dynstat_sss_min              =   1.6092712935418E+01
(PID.TID 0000.0001) %MON dynstat_sss_mean             =   3.4645778763869E+01
(PID.TID 0000.0001) %MON dynstat_sss_sd               =   1.2947813406660E+00
(PID.TID 0000.0001) %MON dynstat_sss_del2             =   1.4685371341138E-03
(PID.TID 0000.0001) %MON forcing_qnet_max             =   1.5535881347656E+03
(PID.TID 0000.0001) %MON forcing_qnet_min             =  -1.2182291397305E+03
(PID.TID 0000.0001) %MON forcing_qnet_mean            =  -3.6594289905421E+01
(PID.TID 0000.0001) %MON forcing_qnet_sd              =   2.3723726231449E+02
(PID.TID 0000.0001) %MON forcing_qnet_del2            =   4.7181301811713E-01
(PID.TID 0000.0001) %MON forcing_qsw_max              =   0.0000000000000E+00
(PID.TID 0000.0001) %MON forcing_qsw_min              =  -1.1203692478456E+02
(PID.TID 0000.0001) %MON forcing_qsw_mean             =  -2.4541311025564E+01
(PID.TID 0000.0001) %MON forcing_qsw_sd               =   3.3566149997327E+01
(PID.TID 0000.0001) %MON forcing_qsw_del2             =   1.9892679827010E-02
(PID.TID 0000.0001) %MON forcing_empmr_max            =   2.8580535203218E-02
(PID.TID 0000.0001) %MON forcing_empmr_min            =  -1.4547784626484E-01
(PID.TID 0000.0001) %MON forcing_empmr_mean           =   4.2507832908802E-06
(PID.TID 0000.0001) %MON forcing_empmr_sd             =   5.1811469125464E-04
(PID.TID 0000.0001) %MON forcing_empmr_del2           =   5.6053964420513E-06
(PID.TID 0000.0001) %MON forcing_fu_max               =   9.2778857593794E-01
(PID.TID 0000.0001) %MON forcing_fu_min               =  -8.3755472967519E-01
(PID.TID 0000.0001) %MON forcing_fu_mean              =   9.4461187461613E-03
(PID.TID 0000.0001) %MON forcing_fu_sd                =   1.2180301042442E-01
(PID.TID 0000.0001) %MON forcing_fu_del2              =   1.5914648198645E-04
(PID.TID 0000.0001) %MON forcing_fv_max               =   9.7615367174149E-01
(PID.TID 0000.0001) %MON forcing_fv_min               =  -1.4980746350121E+00
(PID.TID 0000.0001) %MON forcing_fv_mean              =  -9.1327833265158E-04
(PID.TID 0000.0001) %MON forcing_fv_sd                =   1.0670348506615E-01
(PID.TID 0000.0001) %MON forcing_fv_del2              =   1.5622027854058E-04
(PID.TID 0000.0001) %MON trAdv_CFL_u_max              =   2.9508571525967E-02
(PID.TID 0000.0001) %MON trAdv_CFL_v_max              =   2.3169340421119E-02
(PID.TID 0000.0001) %MON trAdv_CFL_w_max              =   1.0789964665864E-01
(PID.TID 0000.0001) %MON advcfl_uvel_max              =   2.9903289775730E-02
(PID.TID 0000.0001) %MON advcfl_vvel_max              =   2.2799194506201E-02
(PID.TID 0000.0001) %MON advcfl_wvel_max              =   1.0184717640077E-01
(PID.TID 0000.0001) %MON advcfl_W_hf_max              =   1.0789964665864E-01
(PID.TID 0000.0001) %MON pe_b_mean                    =   1.8005867320366E-03
(PID.TID 0000.0001) %MON ke_max                       =   2.9117592551420E+00
(PID.TID 0000.0001) %MON ke_mean                      =   8.6321705573463E-04
(PID.TID 0000.0001) %MON ke_vol                       =   1.3350064351420E+18
(PID.TID 0000.0001) %MON vort_r_min                   =  -1.0069220990332E-04
(PID.TID 0000.0001) %MON vort_r_max                   =   1.0952857558336E-04
(PID.TID 0000.0001) %MON vort_a_mean                  =  -1.9725071323994E-05
(PID.TID 0000.0001) %MON vort_a_sd                    =   7.4539313366979E-05
(PID.TID 0000.0001) %MON vort_p_mean                  =  -2.1669075736549E-05
(PID.TID 0000.0001) %MON vort_p_sd                    =   9.3607906848808E-05
(PID.TID 0000.0001) %MON surfExpan_theta_mean         =   1.4286045195159E-05
(PID.TID 0000.0001) %MON surfExpan_salt_mean          =   2.0620804508322E-05
(PID.TID 0000.0001) // =======================================================
(PID.TID 0000.0001) // End MONITOR dynamic field statistics
(PID.TID 0000.0001) // =======================================================
(PID.TID 0000.0001) // =======================================================
(PID.TID 0000.0001) // Begin MONITOR SEAICE statistics
(PID.TID 0000.0001) // =======================================================
(PID.TID 0000.0001) %MON seaice_tsnumber              =                174760
(PID.TID 0000.0001) %MON seaice_time_sec              =   7.8642000000000E+07
(PID.TID 0000.0001) %MON seaice_uice_max              =   1.4538998271857E+00
(PID.TID 0000.0001) %MON seaice_uice_min              =  -1.8037914177222E+00
(PID.TID 0000.0001) %MON seaice_uice_mean             =  -4.3240642564966E-04
(PID.TID 0000.0001) %MON seaice_uice_sd               =   1.5315085860053E-01
(PID.TID 0000.0001) %MON seaice_uice_del2             =   3.4126351313731E-04
(PID.TID 0000.0001) %MON seaice_vice_max              =   1.4128119477154E+00
(PID.TID 0000.0001) %MON seaice_vice_min              =  -1.4616733962560E+00
(PID.TID 0000.0001) %MON seaice_vice_mean             =  -2.2092643913497E-02
(PID.TID 0000.0001) %MON seaice_vice_sd               =   1.6589077660979E-01
(PID.TID 0000.0001) %MON seaice_vice_del2             =   3.1862366075908E-04
(PID.TID 0000.0001) %MON seaice_area_max              =   1.0035765362504E+00
(PID.TID 0000.0001) %MON seaice_area_min              =   0.0000000000000E+00
(PID.TID 0000.0001) %MON seaice_area_mean             =   5.7385512592512E-02
(PID.TID 0000.0001) %MON seaice_area_sd               =   2.2127968321813E-01
(PID.TID 0000.0001) %MON seaice_area_del2             =   2.9894481461320E-04
(PID.TID 0000.0001) %MON seaice_heff_max              =   9.9488332887592E+00
(PID.TID 0000.0001) %MON seaice_heff_min              =   0.0000000000000E+00
(PID.TID 0000.0001) %MON seaice_heff_mean             =   1.4981588235964E-01
(PID.TID 0000.0001) %MON seaice_heff_sd               =   7.2082258347177E-01
(PID.TID 0000.0001) %MON seaice_heff_del2             =   1.4132214501431E-03
(PID.TID 0000.0001) %MON seaice_hsnow_max             =   3.2861295736529E+00
(PID.TID 0000.0001) %MON seaice_hsnow_min             =   0.0000000000000E+00
(PID.TID 0000.0001) %MON seaice_hsnow_mean            =   1.2682516310357E-02
(PID.TID 0000.0001) %MON seaice_hsnow_sd              =   6.8598536170838E-02
(PID.TID 0000.0001) %MON seaice_hsnow_del2            =   3.9123529755096E-04
(PID.TID 0000.0001) // =======================================================
(PID.TID 0000.0001) // End MONITOR SEAICE statistics
(PID.TID 0000.0001) // =======================================================
(PID.TID 0000.0001) // =======================================================
(PID.TID 0000.0001) // Begin MONITOR dynamic field statistics
(PID.TID 0000.0001) // =======================================================
(PID.TID 0000.0001) %MON time_tsnumber                =                174761
(PID.TID 0000.0001) %MON time_secondsf                =   7.8642450000000E+07
(PID.TID 0000.0001) %MON dynstat_eta_max              =   2.0715195293853E+00
(PID.TID 0000.0001) %MON dynstat_eta_min              =  -1.1473995473502E+01
(PID.TID 0000.0001) %MON dynstat_eta_mean             =   6.6117799416228E-02
(PID.TID 0000.0001) %MON dynstat_eta_sd               =   8.4514983326580E-01
(PID.TID 0000.0001) %MON dynstat_eta_del2             =   2.0126808472746E-03
(PID.TID 0000.0001) %MON dynstat_uvel_max             =   2.1818881461858E+00
(PID.TID 0000.0001) %MON dynstat_uvel_min             =  -2.8589580905473E+00
(PID.TID 0000.0001) %MON dynstat_uvel_mean            =   2.5406138701782E-03
(PID.TID 0000.0001) %MON dynstat_uvel_sd              =   2.9249153591311E-02
(PID.TID 0000.0001) %MON dynstat_uvel_del2            =   3.4896082103984E-05
(PID.TID 0000.0001) %MON dynstat_vvel_max             =   2.1664092451293E+00
(PID.TID 0000.0001) %MON dynstat_vvel_min             =  -2.1670709941077E+00
(PID.TID 0000.0001) %MON dynstat_vvel_mean            =   2.3585556998190E-03
(PID.TID 0000.0001) %MON dynstat_vvel_sd              =   3.0378194568806E-02
(PID.TID 0000.0001) %MON dynstat_vvel_del2            =   3.2704455948942E-05
(PID.TID 0000.0001) %MON dynstat_wvel_max             =   6.8638906121170E-03
(PID.TID 0000.0001) %MON dynstat_wvel_min             =  -8.8469746832752E-03
(PID.TID 0000.0001) %MON dynstat_wvel_mean            =   6.1098242726071E-07
(PID.TID 0000.0001) %MON dynstat_wvel_sd              =   1.0086472566955E-04
(PID.TID 0000.0001) %MON dynstat_wvel_del2            =   2.3967509014111E-07
(PID.TID 0000.0001) %MON dynstat_theta_max            =   3.2452184393952E+01
(PID.TID 0000.0001) %MON dynstat_theta_min            =  -2.0373689299844E+00
(PID.TID 0000.0001) %MON dynstat_theta_mean           =   3.5921317507985E+00
(PID.TID 0000.0001) %MON dynstat_theta_sd             =   4.4421956385698E+00
(PID.TID 0000.0001) %MON dynstat_theta_del2           =   1.2306964874921E-04
(PID.TID 0000.0001) %MON dynstat_salt_max             =   4.0655991877440E+01
(PID.TID 0000.0001) %MON dynstat_salt_min             =   1.6091095283312E+01
(PID.TID 0000.0001) %MON dynstat_salt_mean            =   3.4724811090006E+01
(PID.TID 0000.0001) %MON dynstat_salt_sd              =   3.7968125984748E-01
(PID.TID 0000.0001) %MON dynstat_salt_del2            =   6.8227181450244E-05
(PID.TID 0000.0001) %MON dynstat_sst_max              =   3.2452184393952E+01
(PID.TID 0000.0001) %MON dynstat_sst_min              =  -2.0373689299844E+00
(PID.TID 0000.0001) %MON dynstat_sst_mean             =   1.8184977274922E+01
(PID.TID 0000.0001) %MON dynstat_sst_sd               =   1.0174078732148E+01
(PID.TID 0000.0001) %MON dynstat_sst_del2             =   1.1073534431142E-03
(PID.TID 0000.0001) %MON dynstat_sss_max              =   3.9468708882390E+01
(PID.TID 0000.0001) %MON dynstat_sss_min              =   1.6091095283312E+01
(PID.TID 0000.0001) %MON dynstat_sss_mean             =   3.4645732395851E+01
(PID.TID 0000.0001) %MON dynstat_sss_sd               =   1.2948793360048E+00
(PID.TID 0000.0001) %MON dynstat_sss_del2             =   1.4690795539370E-03
(PID.TID 0000.0001) %MON forcing_qnet_max             =   2.7308479003906E+03
(PID.TID 0000.0001) %MON forcing_qnet_min             =  -1.4471809082031E+03
(PID.TID 0000.0001) %MON forcing_qnet_mean            =  -3.6675373673512E+01
(PID.TID 0000.0001) %MON forcing_qnet_sd              =   2.3863562485185E+02
(PID.TID 0000.0001) %MON forcing_qnet_del2            =   5.1637101647704E-01
(PID.TID 0000.0001) %MON forcing_qsw_max              =   0.0000000000000E+00
(PID.TID 0000.0001) %MON forcing_qsw_min              =  -1.1195414402076E+02
(PID.TID 0000.0001) %MON forcing_qsw_mean             =  -2.4579190978551E+01
(PID.TID 0000.0001) %MON forcing_qsw_sd               =   3.3558374242192E+01
(PID.TID 0000.0001) %MON forcing_qsw_del2             =   1.9942684359002E-02
(PID.TID 0000.0001) %MON forcing_empmr_max            =   4.8114422708750E-02
(PID.TID 0000.0001) %MON forcing_empmr_min            =  -1.3962665200233E-01
(PID.TID 0000.0001) %MON forcing_empmr_mean           =   5.6109945070241E-06
(PID.TID 0000.0001) %MON forcing_empmr_sd             =   5.7991184282694E-04
(PID.TID 0000.0001) %MON forcing_empmr_del2           =   5.8773441990675E-06
(PID.TID 0000.0001) %MON forcing_fu_max               =   9.2436518182138E-01
(PID.TID 0000.0001) %MON forcing_fu_min               =  -8.4657051700198E-01
(PID.TID 0000.0001) %MON forcing_fu_mean              =   9.4559140839062E-03
(PID.TID 0000.0001) %MON forcing_fu_sd                =   1.2186026101106E-01
(PID.TID 0000.0001) %MON forcing_fu_del2              =   1.5949012109194E-04
(PID.TID 0000.0001) %MON forcing_fv_max               =   9.7139587998390E-01
(PID.TID 0000.0001) %MON forcing_fv_min               =  -1.5350193915372E+00
(PID.TID 0000.0001) %MON forcing_fv_mean              =  -9.0157218365637E-04
(PID.TID 0000.0001) %MON forcing_fv_sd                =   1.0670487705733E-01
(PID.TID 0000.0001) %MON forcing_fv_del2              =   1.5636934858575E-04
(PID.TID 0000.0001) %MON trAdv_CFL_u_max              =   2.9489177611977E-02
(PID.TID 0000.0001) %MON trAdv_CFL_v_max              =   2.3150341896122E-02
(PID.TID 0000.0001) %MON trAdv_CFL_w_max              =   1.0770469303511E-01
(PID.TID 0000.0001) %MON advcfl_uvel_max              =   2.9883636441125E-02
(PID.TID 0000.0001) %MON advcfl_vvel_max              =   2.2780499495516E-02
(PID.TID 0000.0001) %MON advcfl_wvel_max              =   1.0165444691068E-01
(PID.TID 0000.0001) %MON advcfl_W_hf_max              =   1.0770469303511E-01
(PID.TID 0000.0001) %MON pe_b_mean                    =   1.8071204833321E-03
(PID.TID 0000.0001) %MON ke_max                       =   2.9079272122767E+00
(PID.TID 0000.0001) %MON ke_mean                      =   8.6330282557400E-04
(PID.TID 0000.0001) %MON ke_vol                       =   1.3350064351420E+18
(PID.TID 0000.0001) %MON vort_r_min                   =  -1.0055086781994E-04
(PID.TID 0000.0001) %MON vort_r_max                   =   1.0945644398060E-04
(PID.TID 0000.0001) %MON vort_a_mean                  =  -1.9725071386956E-05
(PID.TID 0000.0001) %MON vort_a_sd                    =   7.4539325218320E-05
(PID.TID 0000.0001) %MON vort_p_mean                  =  -2.1669075805715E-05
(PID.TID 0000.0001) %MON vort_p_sd                    =   9.3607969264841E-05
(PID.TID 0000.0001) %MON surfExpan_theta_mean         =   1.5093660822767E-05
(PID.TID 0000.0001) %MON surfExpan_salt_mean          =   2.1582482902488E-05
(PID.TID 0000.0001) // =======================================================
(PID.TID 0000.0001) // End MONITOR dynamic field statistics
(PID.TID 0000.0001) // =======================================================
(PID.TID 0000.0001) // =======================================================
(PID.TID 0000.0001) // Begin MONITOR SEAICE statistics
(PID.TID 0000.0001) // =======================================================
(PID.TID 0000.0001) %MON seaice_tsnumber              =                174761
(PID.TID 0000.0001) %MON seaice_time_sec              =   7.8642450000000E+07
(PID.TID 0000.0001) %MON seaice_uice_max              =   1.4544366181992E+00
(PID.TID 0000.0001) %MON seaice_uice_min              =  -1.7508068775440E+00
(PID.TID 0000.0001) %MON seaice_uice_mean             =  -3.4553391172783E-04
(PID.TID 0000.0001) %MON seaice_uice_sd               =   1.5314146603498E-01
(PID.TID 0000.0001) %MON seaice_uice_del2             =   3.4104176317612E-04
(PID.TID 0000.0001) %MON seaice_vice_max              =   1.4626320862205E+00
(PID.TID 0000.0001) %MON seaice_vice_min              =  -1.4621785596928E+00
(PID.TID 0000.0001) %MON seaice_vice_mean             =  -2.2100827756192E-02
(PID.TID 0000.0001) %MON seaice_vice_sd               =   1.6600266064466E-01
(PID.TID 0000.0001) %MON seaice_vice_del2             =   3.1827571864563E-04
(PID.TID 0000.0001) %MON seaice_area_max              =   1.0035061226791E+00
(PID.TID 0000.0001) %MON seaice_area_min              =   0.0000000000000E+00
(PID.TID 0000.0001) %MON seaice_area_mean             =   5.7387517549647E-02
(PID.TID 0000.0001) %MON seaice_area_sd               =   2.2127505764924E-01
(PID.TID 0000.0001) %MON seaice_area_del2             =   2.9874976963548E-04
(PID.TID 0000.0001) %MON seaice_heff_max              =   9.9488218896462E+00
(PID.TID 0000.0001) %MON seaice_heff_min              =   0.0000000000000E+00
(PID.TID 0000.0001) %MON seaice_heff_mean             =   1.4981206058815E-01
(PID.TID 0000.0001) %MON seaice_heff_sd               =   7.2081160101675E-01
(PID.TID 0000.0001) %MON seaice_heff_del2             =   1.4124418839368E-03
(PID.TID 0000.0001) %MON seaice_hsnow_max             =   3.2861257733201E+00
(PID.TID 0000.0001) %MON seaice_hsnow_min             =   0.0000000000000E+00
(PID.TID 0000.0001) %MON seaice_hsnow_mean            =   1.2681806236210E-02
(PID.TID 0000.0001) %MON seaice_hsnow_sd              =   6.8591285735458E-02
(PID.TID 0000.0001) %MON seaice_hsnow_del2            =   3.9097099850014E-04
(PID.TID 0000.0001) // =======================================================
(PID.TID 0000.0001) // End MONITOR SEAICE statistics
(PID.TID 0000.0001) // =======================================================
(PID.TID 0000.0001) // =======================================================
(PID.TID 0000.0001) // Begin MONITOR dynamic field statistics
(PID.TID 0000.0001) // =======================================================
(PID.TID 0000.0001) %MON time_tsnumber                =                174762
(PID.TID 0000.0001) %MON time_secondsf                =   7.8642900000000E+07
(PID.TID 0000.0001) %MON dynstat_eta_max              =   2.0297252573399E+00
(PID.TID 0000.0001) %MON dynstat_eta_min              =  -1.1452914013022E+01
(PID.TID 0000.0001) %MON dynstat_eta_mean             =   6.6409291719037E-02
(PID.TID 0000.0001) %MON dynstat_eta_sd               =   8.4519687084211E-01
(PID.TID 0000.0001) %MON dynstat_eta_del2             =   2.0128650395757E-03
(PID.TID 0000.0001) %MON dynstat_uvel_max             =   2.1910082570879E+00
(PID.TID 0000.0001) %MON dynstat_uvel_min             =  -2.8569895527346E+00
(PID.TID 0000.0001) %MON dynstat_uvel_mean            =   2.6496385811099E-03
(PID.TID 0000.0001) %MON dynstat_uvel_sd              =   2.9255218974988E-02
(PID.TID 0000.0001) %MON dynstat_uvel_del2            =   3.4947034846172E-05
(PID.TID 0000.0001) %MON dynstat_vvel_max             =   2.1717335116973E+00
(PID.TID 0000.0001) %MON dynstat_vvel_min             =  -2.1705508647334E+00
(PID.TID 0000.0001) %MON dynstat_vvel_mean            =   2.3711583607557E-03
(PID.TID 0000.0001) %MON dynstat_vvel_sd              =   3.0366858642639E-02
(PID.TID 0000.0001) %MON dynstat_vvel_del2            =   3.2745657357656E-05
(PID.TID 0000.0001) %MON dynstat_wvel_max             =   6.8074605456851E-03
(PID.TID 0000.0001) %MON dynstat_wvel_min             =  -8.7655036855970E-03
(PID.TID 0000.0001) %MON dynstat_wvel_mean            =   6.3227416331194E-07
(PID.TID 0000.0001) %MON dynstat_wvel_sd              =   1.0112358081494E-04
(PID.TID 0000.0001) %MON dynstat_wvel_del2            =   2.4042696654175E-07
(PID.TID 0000.0001) %MON dynstat_theta_max            =   3.2448677780635E+01
(PID.TID 0000.0001) %MON dynstat_theta_min            =  -2.0374939336114E+00
(PID.TID 0000.0001) %MON dynstat_theta_mean           =   3.5921309979401E+00
(PID.TID 0000.0001) %MON dynstat_theta_sd             =   4.4421947449052E+00
(PID.TID 0000.0001) %MON dynstat_theta_del2           =   1.2312239924887E-04
(PID.TID 0000.0001) %MON dynstat_salt_max             =   4.0655991877353E+01
(PID.TID 0000.0001) %MON dynstat_salt_min             =   1.6089461506930E+01
(PID.TID 0000.0001) %MON dynstat_salt_mean            =   3.4724810914600E+01
(PID.TID 0000.0001) %MON dynstat_salt_sd              =   3.7968192366874E-01
(PID.TID 0000.0001) %MON dynstat_salt_del2            =   6.8173009307858E-05
(PID.TID 0000.0001) %MON dynstat_sst_max              =   3.2448677780635E+01
(PID.TID 0000.0001) %MON dynstat_sst_min              =  -2.0374939336114E+00
(PID.TID 0000.0001) %MON dynstat_sst_mean             =   1.8185250122975E+01
(PID.TID 0000.0001) %MON dynstat_sst_sd               =   1.0174467312656E+01
(PID.TID 0000.0001) %MON dynstat_sst_del2             =   1.1072892109317E-03
(PID.TID 0000.0001) %MON dynstat_sss_max              =   3.9468656037455E+01
(PID.TID 0000.0001) %MON dynstat_sss_min              =   1.6089461506930E+01
(PID.TID 0000.0001) %MON dynstat_sss_mean             =   3.4645684283657E+01
(PID.TID 0000.0001) %MON dynstat_sss_sd               =   1.2949787933485E+00
(PID.TID 0000.0001) %MON dynstat_sss_del2             =   1.4695979062255E-03
(PID.TID 0000.0001) %MON forcing_qnet_max             =   9.5321875000000E+03
(PID.TID 0000.0001) %MON forcing_qnet_min             =  -1.2815700683594E+03
(PID.TID 0000.0001) %MON forcing_qnet_mean            =  -3.6548274688759E+01
(PID.TID 0000.0001) %MON forcing_qnet_sd              =   2.4421709387691E+02
(PID.TID 0000.0001) %MON forcing_qnet_del2            =   7.3798153426651E-01
(PID.TID 0000.0001) %MON forcing_qsw_max              =   0.0000000000000E+00
(PID.TID 0000.0001) %MON forcing_qsw_min              =  -1.1177163936859E+02
(PID.TID 0000.0001) %MON forcing_qsw_mean             =  -2.4597158174960E+01
(PID.TID 0000.0001) %MON forcing_qsw_sd               =   3.3536659820096E+01
(PID.TID 0000.0001) %MON forcing_qsw_del2             =   1.9989272120252E-02
(PID.TID 0000.0001) %MON forcing_empmr_max            =   5.6963197886944E-02
(PID.TID 0000.0001) %MON forcing_empmr_min            =  -1.3820104300976E-01
(PID.TID 0000.0001) %MON forcing_empmr_mean           =   4.7674049775023E-06
(PID.TID 0000.0001) %MON forcing_empmr_sd             =   5.5363403738488E-04
(PID.TID 0000.0001) %MON forcing_empmr_del2           =   5.5622635742165E-06
(PID.TID 0000.0001) %MON forcing_fu_max               =   9.2018860597488E-01
(PID.TID 0000.0001) %MON forcing_fu_min               =  -8.5337974503377E-01
(PID.TID 0000.0001) %MON forcing_fu_mean              =   9.4661661728408E-03
(PID.TID 0000.0001) %MON forcing_fu_sd                =   1.2194247869974E-01
(PID.TID 0000.0001) %MON forcing_fu_del2              =   1.5992851172839E-04
(PID.TID 0000.0001) %MON forcing_fv_max               =   9.6716889739037E-01
(PID.TID 0000.0001) %MON forcing_fv_min               =  -1.5717008130202E+00
(PID.TID 0000.0001) %MON forcing_fv_mean              =  -8.9156078372567E-04
(PID.TID 0000.0001) %MON forcing_fv_sd                =   1.0672282928337E-01
(PID.TID 0000.0001) %MON forcing_fv_del2              =   1.5646654555944E-04
(PID.TID 0000.0001) %MON trAdv_CFL_u_max              =   2.9468872815840E-02
(PID.TID 0000.0001) %MON trAdv_CFL_v_max              =   2.3127708064407E-02
(PID.TID 0000.0001) %MON trAdv_CFL_w_max              =   1.0753914170134E-01
(PID.TID 0000.0001) %MON advcfl_uvel_max              =   2.9863060040055E-02
(PID.TID 0000.0001) %MON advcfl_vvel_max              =   2.2758227254602E-02
(PID.TID 0000.0001) %MON advcfl_wvel_max              =   1.0149169690328E-01
(PID.TID 0000.0001) %MON advcfl_W_hf_max              =   1.0753914170134E-01
(PID.TID 0000.0001) %MON pe_b_mean                    =   1.8141296554742E-03
(PID.TID 0000.0001) %MON ke_max                       =   2.9038955781296E+00
(PID.TID 0000.0001) %MON ke_mean                      =   8.6344339563094E-04
(PID.TID 0000.0001) %MON ke_vol                       =   1.3350064351420E+18
(PID.TID 0000.0001) %MON vort_r_min                   =  -1.0040869080292E-04
(PID.TID 0000.0001) %MON vort_r_max                   =   1.0938037237333E-04
(PID.TID 0000.0001) %MON vort_a_mean                  =  -1.9725071476019E-05
(PID.TID 0000.0001) %MON vort_a_sd                    =   7.4539336890030E-05
(PID.TID 0000.0001) %MON vort_p_mean                  =  -2.1669075903556E-05
(PID.TID 0000.0001) %MON vort_p_sd                    =   9.3608031940674E-05
(PID.TID 0000.0001) %MON surfExpan_theta_mean         =   1.5918011875312E-05
(PID.TID 0000.0001) %MON surfExpan_salt_mean          =   2.2518877935053E-05
(PID.TID 0000.0001) // =======================================================
(PID.TID 0000.0001) // End MONITOR dynamic field statistics
(PID.TID 0000.0001) // =======================================================
(PID.TID 0000.0001) // =======================================================
(PID.TID 0000.0001) // Begin MONITOR SEAICE statistics
(PID.TID 0000.0001) // =======================================================
(PID.TID 0000.0001) %MON seaice_tsnumber              =                174762
(PID.TID 0000.0001) %MON seaice_time_sec              =   7.8642900000000E+07
(PID.TID 0000.0001) %MON seaice_uice_max              =   1.4553205491404E+00
(PID.TID 0000.0001) %MON seaice_uice_min              =  -1.6949770768760E+00
(PID.TID 0000.0001) %MON seaice_uice_mean             =  -2.5233616933656E-04
(PID.TID 0000.0001) %MON seaice_uice_sd               =   1.5313069563070E-01
(PID.TID 0000.0001) %MON seaice_uice_del2             =   3.4080925775449E-04
(PID.TID 0000.0001) %MON seaice_vice_max              =   1.4960223955111E+00
(PID.TID 0000.0001) %MON seaice_vice_min              =  -1.4626797409337E+00
(PID.TID 0000.0001) %MON seaice_vice_mean             =  -2.2115100664751E-02
(PID.TID 0000.0001) %MON seaice_vice_sd               =   1.6611099704479E-01
(PID.TID 0000.0001) %MON seaice_vice_del2             =   3.1797437939123E-04
(PID.TID 0000.0001) %MON seaice_area_max              =   1.0034438990831E+00
(PID.TID 0000.0001) %MON seaice_area_min              =   0.0000000000000E+00
(PID.TID 0000.0001) %MON seaice_area_mean             =   5.7389495032365E-02
(PID.TID 0000.0001) %MON seaice_area_sd               =   2.2127038025529E-01
(PID.TID 0000.0001) %MON seaice_area_del2             =   2.9855053537278E-04
(PID.TID 0000.0001) %MON seaice_heff_max              =   9.9488085818724E+00
(PID.TID 0000.0001) %MON seaice_heff_min              =   0.0000000000000E+00
(PID.TID 0000.0001) %MON seaice_heff_mean             =   1.4980822226007E-01
(PID.TID 0000.0001) %MON seaice_heff_sd               =   7.2080061382937E-01
(PID.TID 0000.0001) %MON seaice_heff_del2             =   1.4116578810108E-03
(PID.TID 0000.0001) %MON seaice_hsnow_max             =   3.2861217200402E+00
(PID.TID 0000.0001) %MON seaice_hsnow_min             =   0.0000000000000E+00
(PID.TID 0000.0001) %MON seaice_hsnow_mean            =   1.2681100176678E-02
(PID.TID 0000.0001) %MON seaice_hsnow_sd              =   6.8584091518344E-02
(PID.TID 0000.0001) %MON seaice_hsnow_del2            =   3.9070484998218E-04
(PID.TID 0000.0001) // =======================================================
(PID.TID 0000.0001) // End MONITOR SEAICE statistics
(PID.TID 0000.0001) // =======================================================
(PID.TID 0000.0001) // =======================================================
(PID.TID 0000.0001) // Begin MONITOR dynamic field statistics
(PID.TID 0000.0001) // =======================================================
(PID.TID 0000.0001) %MON time_tsnumber                =                174763
(PID.TID 0000.0001) %MON time_secondsf                =   7.8643350000000E+07
(PID.TID 0000.0001) %MON dynstat_eta_max              =   2.0611900746873E+00
(PID.TID 0000.0001) %MON dynstat_eta_min              =  -1.1423747811900E+01
(PID.TID 0000.0001) %MON dynstat_eta_mean             =   6.6714893582121E-02
(PID.TID 0000.0001) %MON dynstat_eta_sd               =   8.4526893943761E-01
(PID.TID 0000.0001) %MON dynstat_eta_del2             =   2.0130380610476E-03
(PID.TID 0000.0001) %MON dynstat_uvel_max             =   2.2000748583443E+00
(PID.TID 0000.0001) %MON dynstat_uvel_min             =  -2.8549541937884E+00
(PID.TID 0000.0001) %MON dynstat_uvel_mean            =   2.7580005912043E-03
(PID.TID 0000.0001) %MON dynstat_uvel_sd              =   2.9262988340806E-02
(PID.TID 0000.0001) %MON dynstat_uvel_del2            =   3.4997244597085E-05
(PID.TID 0000.0001) %MON dynstat_vvel_max             =   2.1764927303275E+00
(PID.TID 0000.0001) %MON dynstat_vvel_min             =  -2.1738849717714E+00
(PID.TID 0000.0001) %MON dynstat_vvel_mean            =   2.3820972134053E-03
(PID.TID 0000.0001) %MON dynstat_vvel_sd              =   3.0355688249404E-02
(PID.TID 0000.0001) %MON dynstat_vvel_del2            =   3.2788085617831E-05
(PID.TID 0000.0001) %MON dynstat_wvel_max             =   6.7731003925969E-03
(PID.TID 0000.0001) %MON dynstat_wvel_min             =  -8.6814600532558E-03
(PID.TID 0000.0001) %MON dynstat_wvel_mean            =   6.5339343133811E-07
(PID.TID 0000.0001) %MON dynstat_wvel_sd              =   1.0138913303555E-04
(PID.TID 0000.0001) %MON dynstat_wvel_del2            =   2.4118231486949E-07
(PID.TID 0000.0001) %MON dynstat_theta_max            =   3.2445245058314E+01
(PID.TID 0000.0001) %MON dynstat_theta_min            =  -2.0375918852921E+00
(PID.TID 0000.0001) %MON dynstat_theta_mean           =   3.5921301733973E+00
(PID.TID 0000.0001) %MON dynstat_theta_sd             =   4.4421936040336E+00
(PID.TID 0000.0001) %MON dynstat_theta_del2           =   1.2317481243555E-04
(PID.TID 0000.0001) %MON dynstat_salt_max             =   4.0655991877266E+01
(PID.TID 0000.0001) %MON dynstat_salt_min             =   1.6087817178355E+01
(PID.TID 0000.0001) %MON dynstat_salt_mean            =   3.4724810771081E+01
(PID.TID 0000.0001) %MON dynstat_salt_sd              =   3.7968251607236E-01
(PID.TID 0000.0001) %MON dynstat_salt_del2            =   6.8119220165253E-05
(PID.TID 0000.0001) %MON dynstat_sst_max              =   3.2445245058314E+01
(PID.TID 0000.0001) %MON dynstat_sst_min              =  -2.0375918852921E+00
(PID.TID 0000.0001) %MON dynstat_sst_mean             =   1.8185530227492E+01
(PID.TID 0000.0001) %MON dynstat_sst_sd               =   1.0174870684974E+01
(PID.TID 0000.0001) %MON dynstat_sst_del2             =   1.1072770706976E-03
(PID.TID 0000.0001) %MON dynstat_sss_max              =   3.9468612726844E+01
(PID.TID 0000.0001) %MON dynstat_sss_min              =   1.6087817178355E+01
(PID.TID 0000.0001) %MON dynstat_sss_mean             =   3.4645639466682E+01
(PID.TID 0000.0001) %MON dynstat_sss_sd               =   1.2950727867157E+00
(PID.TID 0000.0001) %MON dynstat_sss_del2             =   1.4701183563256E-03
(PID.TID 0000.0001) %MON forcing_qnet_max             =   2.2434765625000E+03
(PID.TID 0000.0001) %MON forcing_qnet_min             =  -1.6995128173828E+03
(PID.TID 0000.0001) %MON forcing_qnet_mean            =  -3.7126071780490E+01
(PID.TID 0000.0001) %MON forcing_qnet_sd              =   2.3763918077560E+02
(PID.TID 0000.0001) %MON forcing_qnet_del2            =   4.8376704639600E-01
(PID.TID 0000.0001) %MON forcing_qsw_max              =   0.0000000000000E+00
(PID.TID 0000.0001) %MON forcing_qsw_min              =  -1.1152042310868E+02
(PID.TID 0000.0001) %MON forcing_qsw_mean             =  -2.4594348592120E+01
(PID.TID 0000.0001) %MON forcing_qsw_sd               =   3.3501656470940E+01
(PID.TID 0000.0001) %MON forcing_qsw_del2             =   2.0032228224222E-02
(PID.TID 0000.0001) %MON forcing_empmr_max            =   8.9228577911854E-02
(PID.TID 0000.0001) %MON forcing_empmr_min            =  -1.3504047691822E-01
(PID.TID 0000.0001) %MON forcing_empmr_mean           =   6.4404929164054E-06
(PID.TID 0000.0001) %MON forcing_empmr_sd             =   7.1215300653387E-04
(PID.TID 0000.0001) %MON forcing_empmr_del2           =   6.6458051465315E-06
(PID.TID 0000.0001) %MON forcing_fu_max               =   9.1525020248347E-01
(PID.TID 0000.0001) %MON forcing_fu_min               =  -8.5759447502301E-01
(PID.TID 0000.0001) %MON forcing_fu_mean              =   9.4909361995673E-03
(PID.TID 0000.0001) %MON forcing_fu_sd                =   1.2201163162225E-01
(PID.TID 0000.0001) %MON forcing_fu_del2              =   1.6034221735556E-04
(PID.TID 0000.0001) %MON forcing_fv_max               =   9.6228125691414E-01
(PID.TID 0000.0001) %MON forcing_fv_min               =  -1.6055805343860E+00
(PID.TID 0000.0001) %MON forcing_fv_mean              =  -8.9252679733611E-04
(PID.TID 0000.0001) %MON forcing_fv_sd                =   1.0672092457224E-01
(PID.TID 0000.0001) %MON forcing_fv_del2              =   1.5641841934489E-04
(PID.TID 0000.0001) %MON trAdv_CFL_u_max              =   2.9447878782501E-02
(PID.TID 0000.0001) %MON trAdv_CFL_v_max              =   2.3101741325411E-02
(PID.TID 0000.0001) %MON trAdv_CFL_w_max              =   1.0740290598628E-01
(PID.TID 0000.0001) %MON advcfl_uvel_max              =   2.9841785182275E-02
(PID.TID 0000.0001) %MON advcfl_vvel_max              =   2.2732675351859E-02
(PID.TID 0000.0001) %MON advcfl_wvel_max              =   1.0135873209966E-01
(PID.TID 0000.0001) %MON advcfl_W_hf_max              =   1.0740290598628E-01
(PID.TID 0000.0001) %MON pe_b_mean                    =   1.8215766304494E-03
(PID.TID 0000.0001) %MON ke_max                       =   2.8997198205491E+00
(PID.TID 0000.0001) %MON ke_mean                      =   8.6364307734192E-04
(PID.TID 0000.0001) %MON ke_vol                       =   1.3350064351420E+18
(PID.TID 0000.0001) %MON vort_r_min                   =  -1.0026682290950E-04
(PID.TID 0000.0001) %MON vort_r_max                   =   1.0930146564851E-04
(PID.TID 0000.0001) %MON vort_a_mean                  =  -1.9725071590800E-05
(PID.TID 0000.0001) %MON vort_a_sd                    =   7.4539348345129E-05
(PID.TID 0000.0001) %MON vort_p_mean                  =  -2.1669076029649E-05
(PID.TID 0000.0001) %MON vort_p_sd                    =   9.3608094567917E-05
(PID.TID 0000.0001) %MON surfExpan_theta_mean         =   1.6761735747233E-05
(PID.TID 0000.0001) %MON surfExpan_salt_mean          =   2.3468021729531E-05
(PID.TID 0000.0001) // =======================================================
(PID.TID 0000.0001) // End MONITOR dynamic field statistics
(PID.TID 0000.0001) // =======================================================
(PID.TID 0000.0001) // =======================================================
(PID.TID 0000.0001) // Begin MONITOR SEAICE statistics
(PID.TID 0000.0001) // =======================================================
(PID.TID 0000.0001) %MON seaice_tsnumber              =                174763
(PID.TID 0000.0001) %MON seaice_time_sec              =   7.8643350000000E+07
(PID.TID 0000.0001) %MON seaice_uice_max              =   1.4565430209657E+00
(PID.TID 0000.0001) %MON seaice_uice_min              =  -1.6365385602855E+00
(PID.TID 0000.0001) %MON seaice_uice_mean             =  -1.5377933338089E-04
(PID.TID 0000.0001) %MON seaice_uice_sd               =   1.5312151739731E-01
(PID.TID 0000.0001) %MON seaice_uice_del2             =   3.4057524143815E-04
(PID.TID 0000.0001) %MON seaice_vice_max              =   1.5116150158890E+00
(PID.TID 0000.0001) %MON seaice_vice_min              =  -1.4631828002019E+00
(PID.TID 0000.0001) %MON seaice_vice_mean             =  -2.2136076020117E-02
(PID.TID 0000.0001) %MON seaice_vice_sd               =   1.6621743525136E-01
(PID.TID 0000.0001) %MON seaice_vice_del2             =   3.1773303559851E-04
(PID.TID 0000.0001) %MON seaice_area_max              =   1.0035383720147E+00
(PID.TID 0000.0001) %MON seaice_area_min              =   0.0000000000000E+00
(PID.TID 0000.0001) %MON seaice_area_mean             =   5.7391453479381E-02
(PID.TID 0000.0001) %MON seaice_area_sd               =   2.2126568756141E-01
(PID.TID 0000.0001) %MON seaice_area_del2             =   2.9834860981191E-04
(PID.TID 0000.0001) %MON seaice_heff_max              =   9.9487971823176E+00
(PID.TID 0000.0001) %MON seaice_heff_min              =   0.0000000000000E+00
(PID.TID 0000.0001) %MON seaice_heff_mean             =   1.4980436841735E-01
(PID.TID 0000.0001) %MON seaice_heff_sd               =   7.2078962867596E-01
(PID.TID 0000.0001) %MON seaice_heff_del2             =   1.4108699380292E-03
(PID.TID 0000.0001) %MON seaice_hsnow_max             =   3.2861179215946E+00
(PID.TID 0000.0001) %MON seaice_hsnow_min             =   0.0000000000000E+00
(PID.TID 0000.0001) %MON seaice_hsnow_mean            =   1.2680384757873E-02
(PID.TID 0000.0001) %MON seaice_hsnow_sd              =   6.8576857325205E-02
(PID.TID 0000.0001) %MON seaice_hsnow_del2            =   3.9043729469715E-04
(PID.TID 0000.0001) // =======================================================
(PID.TID 0000.0001) // End MONITOR SEAICE statistics
(PID.TID 0000.0001) // =======================================================
(PID.TID 0000.0001) // =======================================================
(PID.TID 0000.0001) // Begin MONITOR dynamic field statistics
(PID.TID 0000.0001) // =======================================================
(PID.TID 0000.0001) %MON time_tsnumber                =                174764
(PID.TID 0000.0001) %MON time_secondsf                =   7.8643800000000E+07
(PID.TID 0000.0001) %MON dynstat_eta_max              =   2.1371393598970E+00
(PID.TID 0000.0001) %MON dynstat_eta_min              =  -1.1412430585249E+01
(PID.TID 0000.0001) %MON dynstat_eta_mean             =   6.7036525701730E-02
(PID.TID 0000.0001) %MON dynstat_eta_sd               =   8.4536744699854E-01
(PID.TID 0000.0001) %MON dynstat_eta_del2             =   2.0131899936750E-03
(PID.TID 0000.0001) %MON dynstat_uvel_max             =   2.2090840046133E+00
(PID.TID 0000.0001) %MON dynstat_uvel_min             =  -2.8528854325116E+00
(PID.TID 0000.0001) %MON dynstat_uvel_mean            =   2.8652199938941E-03
(PID.TID 0000.0001) %MON dynstat_uvel_sd              =   2.9272422580381E-02
(PID.TID 0000.0001) %MON dynstat_uvel_del2            =   3.5046719374027E-05
(PID.TID 0000.0001) %MON dynstat_vvel_max             =   2.1806727054219E+00
(PID.TID 0000.0001) %MON dynstat_vvel_min             =  -2.1770945160349E+00
(PID.TID 0000.0001) %MON dynstat_vvel_mean            =   2.3914881050064E-03
(PID.TID 0000.0001) %MON dynstat_vvel_sd              =   3.0344915174563E-02
(PID.TID 0000.0001) %MON dynstat_vvel_del2            =   3.2831822116320E-05
(PID.TID 0000.0001) %MON dynstat_wvel_max             =   6.7898085393158E-03
(PID.TID 0000.0001) %MON dynstat_wvel_min             =  -8.5951143803135E-03
(PID.TID 0000.0001) %MON dynstat_wvel_mean            =   6.7413230419736E-07
(PID.TID 0000.0001) %MON dynstat_wvel_sd              =   1.0166138484805E-04
(PID.TID 0000.0001) %MON dynstat_wvel_del2            =   2.4194009609056E-07
(PID.TID 0000.0001) %MON dynstat_theta_max            =   3.2441876254144E+01
(PID.TID 0000.0001) %MON dynstat_theta_min            =  -2.0376628055554E+00
(PID.TID 0000.0001) %MON dynstat_theta_mean           =   3.5921292445039E+00
(PID.TID 0000.0001) %MON dynstat_theta_sd             =   4.4421920265012E+00
(PID.TID 0000.0001) %MON dynstat_theta_del2           =   1.2322631211780E-04
(PID.TID 0000.0001) %MON dynstat_salt_max             =   4.0655991877178E+01
(PID.TID 0000.0001) %MON dynstat_salt_min             =   1.6086166795306E+01
(PID.TID 0000.0001) %MON dynstat_salt_mean            =   3.4724810650357E+01
(PID.TID 0000.0001) %MON dynstat_salt_sd              =   3.7968309717300E-01
(PID.TID 0000.0001) %MON dynstat_salt_del2            =   6.8065996251697E-05
(PID.TID 0000.0001) %MON dynstat_sst_max              =   3.2441876254144E+01
(PID.TID 0000.0001) %MON dynstat_sst_min              =  -2.0376628055554E+00
(PID.TID 0000.0001) %MON dynstat_sst_mean             =   1.8185807825249E+01
(PID.TID 0000.0001) %MON dynstat_sst_sd               =   1.0175274279559E+01
(PID.TID 0000.0001) %MON dynstat_sst_del2             =   1.1071910642259E-03
(PID.TID 0000.0001) %MON dynstat_sss_max              =   3.9468577680286E+01
(PID.TID 0000.0001) %MON dynstat_sss_min              =   1.6086166795306E+01
(PID.TID 0000.0001) %MON dynstat_sss_mean             =   3.4645595255932E+01
(PID.TID 0000.0001) %MON dynstat_sss_sd               =   1.2951668602399E+00
(PID.TID 0000.0001) %MON dynstat_sss_del2             =   1.4706617629763E-03
(PID.TID 0000.0001) %MON forcing_qnet_max             =   2.2699057617188E+03
(PID.TID 0000.0001) %MON forcing_qnet_min             =  -1.1174911303288E+03
(PID.TID 0000.0001) %MON forcing_qnet_mean            =  -3.7192771780311E+01
(PID.TID 0000.0001) %MON forcing_qnet_sd              =   2.3748613943530E+02
(PID.TID 0000.0001) %MON forcing_qnet_del2            =   4.9037041454769E-01
(PID.TID 0000.0001) %MON forcing_qsw_max              =   0.0000000000000E+00
(PID.TID 0000.0001) %MON forcing_qsw_min              =  -1.1116522764420E+02
(PID.TID 0000.0001) %MON forcing_qsw_mean             =  -2.4570501826491E+01
(PID.TID 0000.0001) %MON forcing_qsw_sd               =   3.3453628257664E+01
(PID.TID 0000.0001) %MON forcing_qsw_del2             =   2.0071505945563E-02
(PID.TID 0000.0001) %MON forcing_empmr_max            =   1.3981119729578E-02
(PID.TID 0000.0001) %MON forcing_empmr_min            =  -1.3793437182903E-01
(PID.TID 0000.0001) %MON forcing_empmr_mean           =   3.2460278428850E-06
(PID.TID 0000.0001) %MON forcing_empmr_sd             =   4.7143259820278E-04
(PID.TID 0000.0001) %MON forcing_empmr_del2           =   5.3003892281826E-06
(PID.TID 0000.0001) %MON forcing_fu_max               =   9.0957332566964E-01
(PID.TID 0000.0001) %MON forcing_fu_min               =  -8.6575546616921E-01
(PID.TID 0000.0001) %MON forcing_fu_mean              =   9.5152225509208E-03
(PID.TID 0000.0001) %MON forcing_fu_sd                =   1.2206823158496E-01
(PID.TID 0000.0001) %MON forcing_fu_del2              =   1.6074033079877E-04
(PID.TID 0000.0001) %MON forcing_fv_max               =   9.5666185021401E-01
(PID.TID 0000.0001) %MON forcing_fv_min               =  -1.6346643124395E+00
(PID.TID 0000.0001) %MON forcing_fv_mean              =  -8.8947117957859E-04
(PID.TID 0000.0001) %MON forcing_fv_sd                =   1.0672838684929E-01
(PID.TID 0000.0001) %MON forcing_fv_del2              =   1.5636320467548E-04
(PID.TID 0000.0001) %MON trAdv_CFL_u_max              =   2.9426540215513E-02
(PID.TID 0000.0001) %MON trAdv_CFL_v_max              =   2.3072716153453E-02
(PID.TID 0000.0001) %MON trAdv_CFL_w_max              =   1.0729450275135E-01
(PID.TID 0000.0001) %MON advcfl_uvel_max              =   2.9820161182229E-02
(PID.TID 0000.0001) %MON advcfl_vvel_max              =   2.2704113876692E-02
(PID.TID 0000.0001) %MON advcfl_wvel_max              =   1.0125398053638E-01
(PID.TID 0000.0001) %MON advcfl_W_hf_max              =   1.0729450275135E-01
(PID.TID 0000.0001) %MON pe_b_mean                    =   1.8295138015822E-03
(PID.TID 0000.0001) %MON ke_max                       =   2.8954740939865E+00
(PID.TID 0000.0001) %MON ke_mean                      =   8.6390626467720E-04
(PID.TID 0000.0001) %MON ke_vol                       =   1.3350064351420E+18
(PID.TID 0000.0001) %MON vort_r_min                   =  -1.0012671653520E-04
(PID.TID 0000.0001) %MON vort_r_max                   =   1.0922115196490E-04
(PID.TID 0000.0001) %MON vort_a_mean                  =  -1.9725071730527E-05
(PID.TID 0000.0001) %MON vort_a_sd                    =   7.4539359530718E-05
(PID.TID 0000.0001) %MON vort_p_mean                  =  -2.1669076183147E-05
(PID.TID 0000.0001) %MON vort_p_sd                    =   9.3608157115536E-05
(PID.TID 0000.0001) %MON surfExpan_theta_mean         =   1.7617990516995E-05
(PID.TID 0000.0001) %MON surfExpan_salt_mean          =   2.4418286964640E-05
(PID.TID 0000.0001) // =======================================================
(PID.TID 0000.0001) // End MONITOR dynamic field statistics
(PID.TID 0000.0001) // =======================================================
(PID.TID 0000.0001) // =======================================================
(PID.TID 0000.0001) // Begin MONITOR SEAICE statistics
(PID.TID 0000.0001) // =======================================================
(PID.TID 0000.0001) %MON seaice_tsnumber              =                174764
(PID.TID 0000.0001) %MON seaice_time_sec              =   7.8643800000000E+07
(PID.TID 0000.0001) %MON seaice_uice_max              =   1.4581049572395E+00
(PID.TID 0000.0001) %MON seaice_uice_min              =  -1.5757684515470E+00
(PID.TID 0000.0001) %MON seaice_uice_mean             =  -4.8592783970431E-05
(PID.TID 0000.0001) %MON seaice_uice_sd               =   1.5311290797746E-01
(PID.TID 0000.0001) %MON seaice_uice_del2             =   3.4041038894112E-04
(PID.TID 0000.0001) %MON seaice_vice_max              =   1.5107912035265E+00
(PID.TID 0000.0001) %MON seaice_vice_min              =  -1.4636888199009E+00
(PID.TID 0000.0001) %MON seaice_vice_mean             =  -2.2162539691566E-02
(PID.TID 0000.0001) %MON seaice_vice_sd               =   1.6632041473034E-01
(PID.TID 0000.0001) %MON seaice_vice_del2             =   3.1752226152138E-04
(PID.TID 0000.0001) %MON seaice_area_max              =   1.0036361569786E+00
(PID.TID 0000.0001) %MON seaice_area_min              =   0.0000000000000E+00
(PID.TID 0000.0001) %MON seaice_area_mean             =   5.7393417714660E-02
(PID.TID 0000.0001) %MON seaice_area_sd               =   2.2126108958332E-01
(PID.TID 0000.0001) %MON seaice_area_del2             =   2.9814490623965E-04
(PID.TID 0000.0001) %MON seaice_heff_max              =   9.9487848298694E+00
(PID.TID 0000.0001) %MON seaice_heff_min              =   0.0000000000000E+00
(PID.TID 0000.0001) %MON seaice_heff_mean             =   1.4980050964174E-01
(PID.TID 0000.0001) %MON seaice_heff_sd               =   7.2077869200204E-01
(PID.TID 0000.0001) %MON seaice_heff_del2             =   1.4100782956078E-03
(PID.TID 0000.0001) %MON seaice_hsnow_max             =   3.2861138703282E+00
(PID.TID 0000.0001) %MON seaice_hsnow_min             =   0.0000000000000E+00
(PID.TID 0000.0001) %MON seaice_hsnow_mean            =   1.2679686213132E-02
(PID.TID 0000.0001) %MON seaice_hsnow_sd              =   6.8569773688350E-02
(PID.TID 0000.0001) %MON seaice_hsnow_del2            =   3.9016815705696E-04
(PID.TID 0000.0001) // =======================================================
(PID.TID 0000.0001) // End MONITOR SEAICE statistics
(PID.TID 0000.0001) // =======================================================
(PID.TID 0000.0001) // =======================================================
(PID.TID 0000.0001) // Begin MONITOR dynamic field statistics
(PID.TID 0000.0001) // =======================================================
(PID.TID 0000.0001) %MON time_tsnumber                =                174765
(PID.TID 0000.0001) %MON time_secondsf                =   7.8644250000000E+07
(PID.TID 0000.0001) %MON dynstat_eta_max              =   2.1972819919119E+00
(PID.TID 0000.0001) %MON dynstat_eta_min              =  -1.1436869979286E+01
(PID.TID 0000.0001) %MON dynstat_eta_mean             =   6.7373021324400E-02
(PID.TID 0000.0001) %MON dynstat_eta_sd               =   8.4549203022350E-01
(PID.TID 0000.0001) %MON dynstat_eta_del2             =   2.0133140125229E-03
(PID.TID 0000.0001) %MON dynstat_uvel_max             =   2.2180265358219E+00
(PID.TID 0000.0001) %MON dynstat_uvel_min             =  -2.8507928004677E+00
(PID.TID 0000.0001) %MON dynstat_uvel_mean            =   2.9708561121823E-03
(PID.TID 0000.0001) %MON dynstat_uvel_sd              =   2.9283439604758E-02
(PID.TID 0000.0001) %MON dynstat_uvel_del2            =   3.5095686004297E-05
(PID.TID 0000.0001) %MON dynstat_vvel_max             =   2.1842584497875E+00
(PID.TID 0000.0001) %MON dynstat_vvel_min             =  -2.1801992009118E+00
(PID.TID 0000.0001) %MON dynstat_vvel_mean            =   2.3994875327820E-03
(PID.TID 0000.0001) %MON dynstat_vvel_sd              =   3.0334752926970E-02
(PID.TID 0000.0001) %MON dynstat_vvel_del2            =   3.2876714144861E-05
(PID.TID 0000.0001) %MON dynstat_wvel_max             =   6.8063176311938E-03
(PID.TID 0000.0001) %MON dynstat_wvel_min             =  -8.5067225285855E-03
(PID.TID 0000.0001) %MON dynstat_wvel_mean            =   6.9500137855052E-07
(PID.TID 0000.0001) %MON dynstat_wvel_sd              =   1.0194024265074E-04
(PID.TID 0000.0001) %MON dynstat_wvel_del2            =   2.4269898794961E-07
(PID.TID 0000.0001) %MON dynstat_theta_max            =   3.2438589769922E+01
(PID.TID 0000.0001) %MON dynstat_theta_min            =  -2.0377073682140E+00
(PID.TID 0000.0001) %MON dynstat_theta_mean           =   3.5921282630014E+00
(PID.TID 0000.0001) %MON dynstat_theta_sd             =   4.4421902966049E+00
(PID.TID 0000.0001) %MON dynstat_theta_del2           =   1.2327707143012E-04
(PID.TID 0000.0001) %MON dynstat_salt_max             =   4.0655991877089E+01
(PID.TID 0000.0001) %MON dynstat_salt_min             =   1.6084514940240E+01
(PID.TID 0000.0001) %MON dynstat_salt_mean            =   3.4724810552660E+01
(PID.TID 0000.0001) %MON dynstat_salt_sd              =   3.7968363801627E-01
(PID.TID 0000.0001) %MON dynstat_salt_del2            =   6.8012049327879E-05
(PID.TID 0000.0001) %MON dynstat_sst_max              =   3.2438589769922E+01
(PID.TID 0000.0001) %MON dynstat_sst_min              =  -2.0377073682140E+00
(PID.TID 0000.0001) %MON dynstat_sst_mean             =   1.8186077897992E+01
(PID.TID 0000.0001) %MON dynstat_sst_sd               =   1.0175685091610E+01
(PID.TID 0000.0001) %MON dynstat_sst_del2             =   1.1071148303587E-03
(PID.TID 0000.0001) %MON dynstat_sss_max              =   3.9468545876693E+01
(PID.TID 0000.0001) %MON dynstat_sss_min              =   1.6084514940240E+01
(PID.TID 0000.0001) %MON dynstat_sss_mean             =   3.4645551496090E+01
(PID.TID 0000.0001) %MON dynstat_sss_sd               =   1.2952592862824E+00
(PID.TID 0000.0001) %MON dynstat_sss_del2             =   1.4710970968118E-03
(PID.TID 0000.0001) %MON forcing_qnet_max             =   2.0932485351562E+03
(PID.TID 0000.0001) %MON forcing_qnet_min             =  -1.2495698242188E+03
(PID.TID 0000.0001) %MON forcing_qnet_mean            =  -3.8810124220731E+01
(PID.TID 0000.0001) %MON forcing_qnet_sd              =   2.3580915505769E+02
(PID.TID 0000.0001) %MON forcing_qnet_del2            =   4.8062568354991E-01
(PID.TID 0000.0001) %MON forcing_qsw_max              =   0.0000000000000E+00
(PID.TID 0000.0001) %MON forcing_qsw_min              =  -1.1115388572189E+02
(PID.TID 0000.0001) %MON forcing_qsw_mean             =  -2.4688561350999E+01
(PID.TID 0000.0001) %MON forcing_qsw_sd               =   3.3545988128454E+01
(PID.TID 0000.0001) %MON forcing_qsw_del2             =   2.0069517939303E-02
(PID.TID 0000.0001) %MON forcing_empmr_max            =   1.3992784544826E-02
(PID.TID 0000.0001) %MON forcing_empmr_min            =  -1.2030918151140E-01
(PID.TID 0000.0001) %MON forcing_empmr_mean           =   3.1023765011479E-06
(PID.TID 0000.0001) %MON forcing_empmr_sd             =   4.4121804575905E-04
(PID.TID 0000.0001) %MON forcing_empmr_del2           =   4.9846285400284E-06
(PID.TID 0000.0001) %MON forcing_fu_max               =   9.0322878838215E-01
(PID.TID 0000.0001) %MON forcing_fu_min               =  -8.7367985684642E-01
(PID.TID 0000.0001) %MON forcing_fu_mean              =   9.5406770138872E-03
(PID.TID 0000.0001) %MON forcing_fu_sd                =   1.2214537692834E-01
(PID.TID 0000.0001) %MON forcing_fu_del2              =   1.6103621176986E-04
(PID.TID 0000.0001) %MON forcing_fv_max               =   9.4990256428719E-01
(PID.TID 0000.0001) %MON forcing_fv_min               =  -1.6573358683196E+00
(PID.TID 0000.0001) %MON forcing_fv_mean              =  -8.8400143818096E-04
(PID.TID 0000.0001) %MON forcing_fv_sd                =   1.0674463092947E-01
(PID.TID 0000.0001) %MON forcing_fv_del2              =   1.5629488585907E-04
(PID.TID 0000.0001) %MON trAdv_CFL_u_max              =   2.9404955429705E-02
(PID.TID 0000.0001) %MON trAdv_CFL_v_max              =   2.3040967820496E-02
(PID.TID 0000.0001) %MON trAdv_CFL_w_max              =   1.0721297083906E-01
(PID.TID 0000.0001) %MON advcfl_uvel_max              =   2.9798287669843E-02
(PID.TID 0000.0001) %MON advcfl_vvel_max              =   2.2672872744870E-02
(PID.TID 0000.0001) %MON advcfl_wvel_max              =   1.0117647302703E-01
(PID.TID 0000.0001) %MON advcfl_W_hf_max              =   1.0721297083906E-01
(PID.TID 0000.0001) %MON pe_b_mean                    =   1.8379056022335E-03
(PID.TID 0000.0001) %MON ke_max                       =   2.8911938298530E+00
(PID.TID 0000.0001) %MON ke_mean                      =   8.6423562304220E-04
(PID.TID 0000.0001) %MON ke_vol                       =   1.3350064351420E+18
(PID.TID 0000.0001) %MON vort_r_min                   =  -9.9989334349380E-05
(PID.TID 0000.0001) %MON vort_r_max                   =   1.0914019150068E-04
(PID.TID 0000.0001) %MON vort_a_mean                  =  -1.9725071894193E-05
(PID.TID 0000.0001) %MON vort_a_sd                    =   7.4539370414204E-05
(PID.TID 0000.0001) %MON vort_p_mean                  =  -2.1669076362943E-05
(PID.TID 0000.0001) %MON vort_p_sd                    =   9.3608219481383E-05
(PID.TID 0000.0001) %MON surfExpan_theta_mean         =   1.8500388669570E-05
(PID.TID 0000.0001) %MON surfExpan_salt_mean          =   2.5401264462806E-05
(PID.TID 0000.0001) // =======================================================
(PID.TID 0000.0001) // End MONITOR dynamic field statistics
(PID.TID 0000.0001) // =======================================================
(PID.TID 0000.0001) // =======================================================
(PID.TID 0000.0001) // Begin MONITOR SEAICE statistics
(PID.TID 0000.0001) // =======================================================
(PID.TID 0000.0001) %MON seaice_tsnumber              =                174765
(PID.TID 0000.0001) %MON seaice_time_sec              =   7.8644250000000E+07
(PID.TID 0000.0001) %MON seaice_uice_max              =   1.4599782131875E+00
(PID.TID 0000.0001) %MON seaice_uice_min              =  -1.5129344221077E+00
(PID.TID 0000.0001) %MON seaice_uice_mean             =   6.0954889735038E-05
(PID.TID 0000.0001) %MON seaice_uice_sd               =   1.5310877539619E-01
(PID.TID 0000.0001) %MON seaice_uice_del2             =   3.4023752166364E-04
(PID.TID 0000.0001) %MON seaice_vice_max              =   1.4950951226989E+00
(PID.TID 0000.0001) %MON seaice_vice_min              =  -1.4641954431377E+00
(PID.TID 0000.0001) %MON seaice_vice_mean             =  -2.2194976963715E-02
(PID.TID 0000.0001) %MON seaice_vice_sd               =   1.6642051003434E-01
(PID.TID 0000.0001) %MON seaice_vice_del2             =   3.1737278200196E-04
(PID.TID 0000.0001) %MON seaice_area_max              =   1.0037360100745E+00
(PID.TID 0000.0001) %MON seaice_area_min              =   0.0000000000000E+00
(PID.TID 0000.0001) %MON seaice_area_mean             =   5.7395319243099E-02
(PID.TID 0000.0001) %MON seaice_area_sd               =   2.2125632331409E-01
(PID.TID 0000.0001) %MON seaice_area_del2             =   2.9794059112581E-04
(PID.TID 0000.0001) %MON seaice_heff_max              =   9.9487753367401E+00
(PID.TID 0000.0001) %MON seaice_heff_min              =   0.0000000000000E+00
(PID.TID 0000.0001) %MON seaice_heff_mean             =   1.4979663560171E-01
(PID.TID 0000.0001) %MON seaice_heff_sd               =   7.2076777224952E-01
(PID.TID 0000.0001) %MON seaice_heff_del2             =   1.4092840774029E-03
(PID.TID 0000.0001) %MON seaice_hsnow_max             =   3.2861105592163E+00
(PID.TID 0000.0001) %MON seaice_hsnow_min             =   0.0000000000000E+00
(PID.TID 0000.0001) %MON seaice_hsnow_mean            =   1.2678962000472E-02
(PID.TID 0000.0001) %MON seaice_hsnow_sd              =   6.8562607239042E-02
(PID.TID 0000.0001) %MON seaice_hsnow_del2            =   3.8989734225900E-04
(PID.TID 0000.0001) // =======================================================
(PID.TID 0000.0001) // End MONITOR SEAICE statistics
(PID.TID 0000.0001) // =======================================================
(PID.TID 0000.0001) // =======================================================
(PID.TID 0000.0001) // Begin MONITOR dynamic field statistics
(PID.TID 0000.0001) // =======================================================
(PID.TID 0000.0001) %MON time_tsnumber                =                174766
(PID.TID 0000.0001) %MON time_secondsf                =   7.8644700000000E+07
(PID.TID 0000.0001) %MON dynstat_eta_max              =   2.2414320268187E+00
(PID.TID 0000.0001) %MON dynstat_eta_min              =  -1.1458353366874E+01
(PID.TID 0000.0001) %MON dynstat_eta_mean             =   6.7723932245516E-02
(PID.TID 0000.0001) %MON dynstat_eta_sd               =   8.4564354093927E-01
(PID.TID 0000.0001) %MON dynstat_eta_del2             =   2.0134051692978E-03
(PID.TID 0000.0001) %MON dynstat_uvel_max             =   2.2268894761875E+00
(PID.TID 0000.0001) %MON dynstat_uvel_min             =  -2.8486959068934E+00
(PID.TID 0000.0001) %MON dynstat_uvel_mean            =   3.0744780793501E-03
(PID.TID 0000.0001) %MON dynstat_uvel_sd              =   2.9295996592040E-02
(PID.TID 0000.0001) %MON dynstat_uvel_del2            =   3.5144453458695E-05
(PID.TID 0000.0001) %MON dynstat_vvel_max             =   2.1872393296800E+00
(PID.TID 0000.0001) %MON dynstat_vvel_min             =  -2.1832195670622E+00
(PID.TID 0000.0001) %MON dynstat_vvel_mean            =   2.4062502725980E-03
(PID.TID 0000.0001) %MON dynstat_vvel_sd              =   3.0325485758516E-02
(PID.TID 0000.0001) %MON dynstat_vvel_del2            =   3.2923162723738E-05
(PID.TID 0000.0001) %MON dynstat_wvel_max             =   6.8226454995432E-03
(PID.TID 0000.0001) %MON dynstat_wvel_min             =  -8.4164291591791E-03
(PID.TID 0000.0001) %MON dynstat_wvel_mean            =   7.1529168429236E-07
(PID.TID 0000.0001) %MON dynstat_wvel_sd              =   1.0222502413973E-04
(PID.TID 0000.0001) %MON dynstat_wvel_del2            =   2.4345842296770E-07
(PID.TID 0000.0001) %MON dynstat_theta_max            =   3.2435393679139E+01
(PID.TID 0000.0001) %MON dynstat_theta_min            =  -2.0377269645608E+00
(PID.TID 0000.0001) %MON dynstat_theta_mean           =   3.5921271964519E+00
(PID.TID 0000.0001) %MON dynstat_theta_sd             =   4.4421882506230E+00
(PID.TID 0000.0001) %MON dynstat_theta_del2           =   1.2332721185938E-04
(PID.TID 0000.0001) %MON dynstat_salt_max             =   4.0655991877000E+01
(PID.TID 0000.0001) %MON dynstat_salt_min             =   1.6082866598028E+01
(PID.TID 0000.0001) %MON dynstat_salt_mean            =   3.4724810474532E+01
(PID.TID 0000.0001) %MON dynstat_salt_sd              =   3.7968414907301E-01
(PID.TID 0000.0001) %MON dynstat_salt_del2            =   6.7958491067593E-05
(PID.TID 0000.0001) %MON dynstat_sst_max              =   3.2435393679139E+01
(PID.TID 0000.0001) %MON dynstat_sst_min              =  -2.0377269645608E+00
(PID.TID 0000.0001) %MON dynstat_sst_mean             =   1.8186356453314E+01
(PID.TID 0000.0001) %MON dynstat_sst_sd               =   1.0176105600213E+01
(PID.TID 0000.0001) %MON dynstat_sst_del2             =   1.1069977346901E-03
(PID.TID 0000.0001) %MON dynstat_sss_max              =   3.9468500125835E+01
(PID.TID 0000.0001) %MON dynstat_sss_min              =   1.6082866598028E+01
(PID.TID 0000.0001) %MON dynstat_sss_mean             =   3.4645508601921E+01
(PID.TID 0000.0001) %MON dynstat_sss_sd               =   1.2953494318781E+00
(PID.TID 0000.0001) %MON dynstat_sss_del2             =   1.4715301959216E-03
(PID.TID 0000.0001) %MON forcing_qnet_max             =   1.6397995605469E+03
(PID.TID 0000.0001) %MON forcing_qnet_min             =  -1.4774949951172E+03
(PID.TID 0000.0001) %MON forcing_qnet_mean            =  -3.9363806662705E+01
(PID.TID 0000.0001) %MON forcing_qnet_sd              =   2.3507316533312E+02
(PID.TID 0000.0001) %MON forcing_qnet_del2            =   4.7307442200276E-01
(PID.TID 0000.0001) %MON forcing_qsw_max              =   0.0000000000000E+00
(PID.TID 0000.0001) %MON forcing_qsw_min              =  -1.1129118173467E+02
(PID.TID 0000.0001) %MON forcing_qsw_mean             =  -2.4710469626925E+01
(PID.TID 0000.0001) %MON forcing_qsw_sd               =   3.3554009495516E+01
(PID.TID 0000.0001) %MON forcing_qsw_del2             =   2.0177821635027E-02
(PID.TID 0000.0001) %MON forcing_empmr_max            =   1.3999566435814E-02
(PID.TID 0000.0001) %MON forcing_empmr_min            =  -1.1407240480185E-01
(PID.TID 0000.0001) %MON forcing_empmr_mean           =   3.1447754914325E-06
(PID.TID 0000.0001) %MON forcing_empmr_sd             =   4.3313436384942E-04
(PID.TID 0000.0001) %MON forcing_empmr_del2           =   4.8949406280789E-06
(PID.TID 0000.0001) %MON forcing_fu_max               =   8.9623941387937E-01
(PID.TID 0000.0001) %MON forcing_fu_min               =  -8.7800592233197E-01
(PID.TID 0000.0001) %MON forcing_fu_mean              =   9.5710638899943E-03
(PID.TID 0000.0001) %MON forcing_fu_sd                =   1.2221438495286E-01
(PID.TID 0000.0001) %MON forcing_fu_del2              =   1.6120504956184E-04
(PID.TID 0000.0001) %MON forcing_fv_max               =   9.4159305095673E-01
(PID.TID 0000.0001) %MON forcing_fv_min               =  -1.6744557858228E+00
(PID.TID 0000.0001) %MON forcing_fv_mean              =  -8.7623738253508E-04
(PID.TID 0000.0001) %MON forcing_fv_sd                =   1.0679566854344E-01
(PID.TID 0000.0001) %MON forcing_fv_del2              =   1.5628106405507E-04
(PID.TID 0000.0001) %MON trAdv_CFL_u_max              =   2.9383326687665E-02
(PID.TID 0000.0001) %MON trAdv_CFL_v_max              =   2.3006769157392E-02
(PID.TID 0000.0001) %MON trAdv_CFL_w_max              =   1.0715669783558E-01
(PID.TID 0000.0001) %MON advcfl_uvel_max              =   2.9776369613249E-02
(PID.TID 0000.0001) %MON advcfl_vvel_max              =   2.2639220428585E-02
(PID.TID 0000.0001) %MON advcfl_wvel_max              =   1.0112459328769E-01
(PID.TID 0000.0001) %MON advcfl_W_hf_max              =   1.0715669783558E-01
(PID.TID 0000.0001) %MON pe_b_mean                    =   1.8467405343403E-03
(PID.TID 0000.0001) %MON ke_max                       =   2.8869249089458E+00
(PID.TID 0000.0001) %MON ke_mean                      =   8.6463685541314E-04
(PID.TID 0000.0001) %MON ke_vol                       =   1.3350064351420E+18
(PID.TID 0000.0001) %MON vort_r_min                   =  -9.9855669557280E-05
(PID.TID 0000.0001) %MON vort_r_max                   =   1.0905948521235E-04
(PID.TID 0000.0001) %MON vort_a_mean                  =  -1.9725072080479E-05
(PID.TID 0000.0001) %MON vort_a_sd                    =   7.4539380965403E-05
(PID.TID 0000.0001) %MON vort_p_mean                  =  -2.1669076567589E-05
(PID.TID 0000.0001) %MON vort_p_sd                    =   9.3608281537763E-05
(PID.TID 0000.0001) %MON surfExpan_theta_mean         =   1.9396149371733E-05
(PID.TID 0000.0001) %MON surfExpan_salt_mean          =   2.6377152894583E-05
(PID.TID 0000.0001) // =======================================================
(PID.TID 0000.0001) // End MONITOR dynamic field statistics
(PID.TID 0000.0001) // =======================================================
(PID.TID 0000.0001) // =======================================================
(PID.TID 0000.0001) // Begin MONITOR SEAICE statistics
(PID.TID 0000.0001) // =======================================================
(PID.TID 0000.0001) %MON seaice_tsnumber              =                174766
(PID.TID 0000.0001) %MON seaice_time_sec              =   7.8644700000000E+07
(PID.TID 0000.0001) %MON seaice_uice_max              =   1.4621573751502E+00
(PID.TID 0000.0001) %MON seaice_uice_min              =  -1.4482632345407E+00
(PID.TID 0000.0001) %MON seaice_uice_mean             =   1.8299811448859E-04
(PID.TID 0000.0001) %MON seaice_uice_sd               =   1.5310402251147E-01
(PID.TID 0000.0001) %MON seaice_uice_del2             =   3.4014690335585E-04
(PID.TID 0000.0001) %MON seaice_vice_max              =   1.4653979441805E+00
(PID.TID 0000.0001) %MON seaice_vice_min              =  -1.4647070326229E+00
(PID.TID 0000.0001) %MON seaice_vice_mean             =  -2.2234831853334E-02
(PID.TID 0000.0001) %MON seaice_vice_sd               =   1.6652468982166E-01
(PID.TID 0000.0001) %MON seaice_vice_del2             =   3.1723952474193E-04
(PID.TID 0000.0001) %MON seaice_area_max              =   1.0038415087590E+00
(PID.TID 0000.0001) %MON seaice_area_min              =   0.0000000000000E+00
(PID.TID 0000.0001) %MON seaice_area_mean             =   5.7397205638062E-02
(PID.TID 0000.0001) %MON seaice_area_sd               =   2.2125155206525E-01
(PID.TID 0000.0001) %MON seaice_area_del2             =   2.9773596597919E-04
(PID.TID 0000.0001) %MON seaice_heff_max              =   9.9487629827055E+00
(PID.TID 0000.0001) %MON seaice_heff_min              =   0.0000000000000E+00
(PID.TID 0000.0001) %MON seaice_heff_mean             =   1.4979275643189E-01
(PID.TID 0000.0001) %MON seaice_heff_sd               =   7.2075690011511E-01
(PID.TID 0000.0001) %MON seaice_heff_del2             =   1.4084876552888E-03
(PID.TID 0000.0001) %MON seaice_hsnow_max             =   3.2861067413728E+00
(PID.TID 0000.0001) %MON seaice_hsnow_min             =   0.0000000000000E+00
(PID.TID 0000.0001) %MON seaice_hsnow_mean            =   1.2678241621055E-02
(PID.TID 0000.0001) %MON seaice_hsnow_sd              =   6.8555498970450E-02
(PID.TID 0000.0001) %MON seaice_hsnow_del2            =   3.8962469028542E-04
(PID.TID 0000.0001) // =======================================================
(PID.TID 0000.0001) // End MONITOR SEAICE statistics
(PID.TID 0000.0001) // =======================================================
(PID.TID 0000.0001) // =======================================================
(PID.TID 0000.0001) // Begin MONITOR dynamic field statistics
(PID.TID 0000.0001) // =======================================================
(PID.TID 0000.0001) %MON time_tsnumber                =                174767
(PID.TID 0000.0001) %MON time_secondsf                =   7.8645150000000E+07
(PID.TID 0000.0001) %MON dynstat_eta_max              =   2.2695888147150E+00
(PID.TID 0000.0001) %MON dynstat_eta_min              =  -1.1476621738882E+01
(PID.TID 0000.0001) %MON dynstat_eta_mean             =   6.8088547172259E-02
(PID.TID 0000.0001) %MON dynstat_eta_sd               =   8.4582315866689E-01
(PID.TID 0000.0001) %MON dynstat_eta_del2             =   2.0134592141301E-03
(PID.TID 0000.0001) %MON dynstat_uvel_max             =   2.2356538197535E+00
(PID.TID 0000.0001) %MON dynstat_uvel_min             =  -2.8466037204617E+00
(PID.TID 0000.0001) %MON dynstat_uvel_mean            =   3.1756567738509E-03
(PID.TID 0000.0001) %MON dynstat_uvel_sd              =   2.9309862633031E-02
(PID.TID 0000.0001) %MON dynstat_uvel_del2            =   3.5191415636635E-05
(PID.TID 0000.0001) %MON dynstat_vvel_max             =   2.1896044647553E+00
(PID.TID 0000.0001) %MON dynstat_vvel_min             =  -2.1861738854427E+00
(PID.TID 0000.0001) %MON dynstat_vvel_mean            =   2.4119106005307E-03
(PID.TID 0000.0001) %MON dynstat_vvel_sd              =   3.0317187394165E-02
(PID.TID 0000.0001) %MON dynstat_vvel_del2            =   3.2969039186285E-05
(PID.TID 0000.0001) %MON dynstat_wvel_max             =   6.8388066396313E-03
(PID.TID 0000.0001) %MON dynstat_wvel_min             =  -8.3244806019900E-03
(PID.TID 0000.0001) %MON dynstat_wvel_mean            =   7.3444667426558E-07
(PID.TID 0000.0001) %MON dynstat_wvel_sd              =   1.0251540732065E-04
(PID.TID 0000.0001) %MON dynstat_wvel_del2            =   2.4421656818436E-07
(PID.TID 0000.0001) %MON dynstat_theta_max            =   3.2432304356745E+01
(PID.TID 0000.0001) %MON dynstat_theta_min            =  -2.0377236234994E+00
(PID.TID 0000.0001) %MON dynstat_theta_mean           =   3.5921260313678E+00
(PID.TID 0000.0001) %MON dynstat_theta_sd             =   4.4421858371467E+00
(PID.TID 0000.0001) %MON dynstat_theta_del2           =   1.2337693553249E-04
(PID.TID 0000.0001) %MON dynstat_salt_max             =   4.0655991876910E+01
(PID.TID 0000.0001) %MON dynstat_salt_min             =   1.6081227029804E+01
(PID.TID 0000.0001) %MON dynstat_salt_mean            =   3.4724810411803E+01
(PID.TID 0000.0001) %MON dynstat_salt_sd              =   3.7968464139922E-01
(PID.TID 0000.0001) %MON dynstat_salt_del2            =   6.7905143221218E-05
(PID.TID 0000.0001) %MON dynstat_sst_max              =   3.2432304356745E+01
(PID.TID 0000.0001) %MON dynstat_sst_min              =  -2.0377236234994E+00
(PID.TID 0000.0001) %MON dynstat_sst_mean             =   1.8186628111792E+01
(PID.TID 0000.0001) %MON dynstat_sst_sd               =   1.0176528015645E+01
(PID.TID 0000.0001) %MON dynstat_sst_del2             =   1.1069455894559E-03
(PID.TID 0000.0001) %MON dynstat_sss_max              =   3.9468475601590E+01
(PID.TID 0000.0001) %MON dynstat_sss_min              =   1.6081227029804E+01
(PID.TID 0000.0001) %MON dynstat_sss_mean             =   3.4645465849501E+01
(PID.TID 0000.0001) %MON dynstat_sss_sd               =   1.2954393462664E+00
(PID.TID 0000.0001) %MON dynstat_sss_del2             =   1.4719541186755E-03
(PID.TID 0000.0001) %MON forcing_qnet_max             =   1.6798587646484E+03
(PID.TID 0000.0001) %MON forcing_qnet_min             =  -1.8543237304688E+03
(PID.TID 0000.0001) %MON forcing_qnet_mean            =  -3.9439453059703E+01
(PID.TID 0000.0001) %MON forcing_qnet_sd              =   2.3505875686563E+02
(PID.TID 0000.0001) %MON forcing_qnet_del2            =   4.8564522702197E-01
(PID.TID 0000.0001) %MON forcing_qsw_max              =   0.0000000000000E+00
(PID.TID 0000.0001) %MON forcing_qsw_min              =  -1.1140061624072E+02
(PID.TID 0000.0001) %MON forcing_qsw_mean             =  -2.4711246921105E+01
(PID.TID 0000.0001) %MON forcing_qsw_sd               =   3.3548848155462E+01
(PID.TID 0000.0001) %MON forcing_qsw_del2             =   2.0282166428088E-02
(PID.TID 0000.0001) %MON forcing_empmr_max            =   1.4012316241860E-02
(PID.TID 0000.0001) %MON forcing_empmr_min            =  -1.1192256957293E-01
(PID.TID 0000.0001) %MON forcing_empmr_mean           =   3.0744062017311E-06
(PID.TID 0000.0001) %MON forcing_empmr_sd             =   4.2863878251571E-04
(PID.TID 0000.0001) %MON forcing_empmr_del2           =   4.8434510586993E-06
(PID.TID 0000.0001) %MON forcing_fu_max               =   8.8856498078874E-01
(PID.TID 0000.0001) %MON forcing_fu_min               =  -8.8027842317672E-01
(PID.TID 0000.0001) %MON forcing_fu_mean              =   9.6035331004262E-03
(PID.TID 0000.0001) %MON forcing_fu_sd                =   1.2226616770495E-01
(PID.TID 0000.0001) %MON forcing_fu_del2              =   1.6120616673495E-04
(PID.TID 0000.0001) %MON forcing_fv_max               =   9.3585094809532E-01
(PID.TID 0000.0001) %MON forcing_fv_min               =  -1.6876536717922E+00
(PID.TID 0000.0001) %MON forcing_fv_mean              =  -8.6192292231330E-04
(PID.TID 0000.0001) %MON forcing_fv_sd                =   1.0682785568176E-01
(PID.TID 0000.0001) %MON forcing_fv_del2              =   1.5622794408881E-04
(PID.TID 0000.0001) %MON trAdv_CFL_u_max              =   2.9361746498194E-02
(PID.TID 0000.0001) %MON trAdv_CFL_v_max              =   2.2970363291782E-02
(PID.TID 0000.0001) %MON trAdv_CFL_w_max              =   1.0712060403064E-01
(PID.TID 0000.0001) %MON advcfl_uvel_max              =   2.9754500758683E-02
(PID.TID 0000.0001) %MON advcfl_vvel_max              =   2.2603396171351E-02
(PID.TID 0000.0001) %MON advcfl_wvel_max              =   1.0109315702497E-01
(PID.TID 0000.0001) %MON advcfl_W_hf_max              =   1.0712060403064E-01
(PID.TID 0000.0001) %MON pe_b_mean                    =   1.8560004951638E-03
(PID.TID 0000.0001) %MON ke_max                       =   2.8826979581344E+00
(PID.TID 0000.0001) %MON ke_mean                      =   8.6510399399994E-04
(PID.TID 0000.0001) %MON ke_vol                       =   1.3350064351420E+18
(PID.TID 0000.0001) %MON vort_r_min                   =  -9.9726366444532E-05
(PID.TID 0000.0001) %MON vort_r_max                   =   1.0897968645054E-04
(PID.TID 0000.0001) %MON vort_a_mean                  =  -1.9725072287795E-05
(PID.TID 0000.0001) %MON vort_a_sd                    =   7.4539391139574E-05
(PID.TID 0000.0001) %MON vort_p_mean                  =  -2.1669076795336E-05
(PID.TID 0000.0001) %MON vort_p_sd                    =   9.3608343821822E-05
(PID.TID 0000.0001) %MON surfExpan_theta_mean         =   2.0280740534251E-05
(PID.TID 0000.0001) %MON surfExpan_salt_mean          =   2.7316070787437E-05
(PID.TID 0000.0001) // =======================================================
(PID.TID 0000.0001) // End MONITOR dynamic field statistics
(PID.TID 0000.0001) // =======================================================
(PID.TID 0000.0001) // =======================================================
(PID.TID 0000.0001) // Begin MONITOR SEAICE statistics
(PID.TID 0000.0001) // =======================================================
(PID.TID 0000.0001) %MON seaice_tsnumber              =                174767
(PID.TID 0000.0001) %MON seaice_time_sec              =   7.8645150000000E+07
(PID.TID 0000.0001) %MON seaice_uice_max              =   1.4645883416826E+00
(PID.TID 0000.0001) %MON seaice_uice_min              =  -1.3822563194015E+00
(PID.TID 0000.0001) %MON seaice_uice_mean             =   3.0466545011565E-04
(PID.TID 0000.0001) %MON seaice_uice_sd               =   1.5310457965315E-01
(PID.TID 0000.0001) %MON seaice_uice_del2             =   3.4005074988234E-04
(PID.TID 0000.0001) %MON seaice_vice_max              =   1.4221607429103E+00
(PID.TID 0000.0001) %MON seaice_vice_min              =  -1.4652250035667E+00
(PID.TID 0000.0001) %MON seaice_vice_mean             =  -2.2277028776671E-02
(PID.TID 0000.0001) %MON seaice_vice_sd               =   1.6663137519838E-01
(PID.TID 0000.0001) %MON seaice_vice_del2             =   3.1728793235709E-04
(PID.TID 0000.0001) %MON seaice_area_max              =   1.0039455065903E+00
(PID.TID 0000.0001) %MON seaice_area_min              =   0.0000000000000E+00
(PID.TID 0000.0001) %MON seaice_area_mean             =   5.7399083286693E-02
(PID.TID 0000.0001) %MON seaice_area_sd               =   2.2124679329133E-01
(PID.TID 0000.0001) %MON seaice_area_del2             =   2.9753132136338E-04
(PID.TID 0000.0001) %MON seaice_heff_max              =   9.9487477633304E+00
(PID.TID 0000.0001) %MON seaice_heff_min              =   0.0000000000000E+00
(PID.TID 0000.0001) %MON seaice_heff_mean             =   1.4978887556127E-01
(PID.TID 0000.0001) %MON seaice_heff_sd               =   7.2074608368031E-01
(PID.TID 0000.0001) %MON seaice_heff_del2             =   1.4076899790639E-03
(PID.TID 0000.0001) %MON seaice_hsnow_max             =   3.2861012478925E+00
(PID.TID 0000.0001) %MON seaice_hsnow_min             =   0.0000000000000E+00
(PID.TID 0000.0001) %MON seaice_hsnow_mean            =   1.2677512611616E-02
(PID.TID 0000.0001) %MON seaice_hsnow_sd              =   6.8548362001795E-02
(PID.TID 0000.0001) %MON seaice_hsnow_del2            =   3.8935031044048E-04
(PID.TID 0000.0001) // =======================================================
(PID.TID 0000.0001) // End MONITOR SEAICE statistics
(PID.TID 0000.0001) // =======================================================
(PID.TID 0000.0001) // =======================================================
(PID.TID 0000.0001) // Begin MONITOR dynamic field statistics
(PID.TID 0000.0001) // =======================================================
(PID.TID 0000.0001) %MON time_tsnumber                =                174768
(PID.TID 0000.0001) %MON time_secondsf                =   7.8645600000000E+07
(PID.TID 0000.0001) %MON dynstat_eta_max              =   2.2819289560375E+00
(PID.TID 0000.0001) %MON dynstat_eta_min              =  -1.1490997892726E+01
(PID.TID 0000.0001) %MON dynstat_eta_mean             =   6.8465801543027E-02
(PID.TID 0000.0001) %MON dynstat_eta_sd               =   8.4603181197863E-01
(PID.TID 0000.0001) %MON dynstat_eta_del2             =   2.0134692710486E-03
(PID.TID 0000.0001) %MON dynstat_uvel_max             =   2.2442949988082E+00
(PID.TID 0000.0001) %MON dynstat_uvel_min             =  -2.8445298826592E+00
(PID.TID 0000.0001) %MON dynstat_uvel_mean            =   3.2739705272300E-03
(PID.TID 0000.0001) %MON dynstat_uvel_sd              =   2.9325008312931E-02
(PID.TID 0000.0001) %MON dynstat_uvel_del2            =   3.5238724733132E-05
(PID.TID 0000.0001) %MON dynstat_vvel_max             =   2.1913461489927E+00
(PID.TID 0000.0001) %MON dynstat_vvel_min             =  -2.1890796233698E+00
(PID.TID 0000.0001) %MON dynstat_vvel_mean            =   2.4166206179839E-03
(PID.TID 0000.0001) %MON dynstat_vvel_sd              =   3.0310155503270E-02
(PID.TID 0000.0001) %MON dynstat_vvel_del2            =   3.3016511212296E-05
(PID.TID 0000.0001) %MON dynstat_wvel_max             =   6.8548234032348E-03
(PID.TID 0000.0001) %MON dynstat_wvel_min             =  -8.2311444988745E-03
(PID.TID 0000.0001) %MON dynstat_wvel_mean            =   7.5237878946068E-07
(PID.TID 0000.0001) %MON dynstat_wvel_sd              =   1.0281105766761E-04
(PID.TID 0000.0001) %MON dynstat_wvel_del2            =   2.4497343819059E-07
(PID.TID 0000.0001) %MON dynstat_theta_max            =   3.2429342476656E+01
(PID.TID 0000.0001) %MON dynstat_theta_min            =  -2.0376999285720E+00
(PID.TID 0000.0001) %MON dynstat_theta_mean           =   3.5921247749431E+00
(PID.TID 0000.0001) %MON dynstat_theta_sd             =   4.4421830950160E+00
(PID.TID 0000.0001) %MON dynstat_theta_del2           =   1.2342590890775E-04
(PID.TID 0000.0001) %MON dynstat_salt_max             =   4.0655991876819E+01
(PID.TID 0000.0001) %MON dynstat_salt_min             =   1.6079600925703E+01
(PID.TID 0000.0001) %MON dynstat_salt_mean            =   3.4724810362771E+01
(PID.TID 0000.0001) %MON dynstat_salt_sd              =   3.7968510248510E-01
(PID.TID 0000.0001) %MON dynstat_salt_del2            =   6.7851927792812E-05
(PID.TID 0000.0001) %MON dynstat_sst_max              =   3.2429342476656E+01
(PID.TID 0000.0001) %MON dynstat_sst_min              =  -2.0376999285720E+00
(PID.TID 0000.0001) %MON dynstat_sst_mean             =   1.8186902606280E+01
(PID.TID 0000.0001) %MON dynstat_sst_sd               =   1.0176956792231E+01
(PID.TID 0000.0001) %MON dynstat_sst_del2             =   1.1068050629179E-03
(PID.TID 0000.0001) %MON dynstat_sss_max              =   3.9468452957806E+01
(PID.TID 0000.0001) %MON dynstat_sss_min              =   1.6079600925703E+01
(PID.TID 0000.0001) %MON dynstat_sss_mean             =   3.4645423606095E+01
(PID.TID 0000.0001) %MON dynstat_sss_sd               =   1.2955261783744E+00
(PID.TID 0000.0001) %MON dynstat_sss_del2             =   1.4723389572815E-03
(PID.TID 0000.0001) %MON forcing_qnet_max             =   1.7236359863281E+03
(PID.TID 0000.0001) %MON forcing_qnet_min             =  -2.0741250000000E+03
(PID.TID 0000.0001) %MON forcing_qnet_mean            =  -3.9622665770384E+01
(PID.TID 0000.0001) %MON forcing_qnet_sd              =   2.3503082549465E+02
(PID.TID 0000.0001) %MON forcing_qnet_del2            =   5.0398453357251E-01
(PID.TID 0000.0001) %MON forcing_qsw_max              =   0.0000000000000E+00
(PID.TID 0000.0001) %MON forcing_qsw_min              =  -1.1139155130138E+02
(PID.TID 0000.0001) %MON forcing_qsw_mean             =  -2.4691178203313E+01
(PID.TID 0000.0001) %MON forcing_qsw_sd               =   3.3530427056244E+01
(PID.TID 0000.0001) %MON forcing_qsw_del2             =   2.0382347618316E-02
(PID.TID 0000.0001) %MON forcing_empmr_max            =   1.4024523086846E-02
(PID.TID 0000.0001) %MON forcing_empmr_min            =  -1.0857561230659E-01
(PID.TID 0000.0001) %MON forcing_empmr_mean           =   3.5289182672463E-06
(PID.TID 0000.0001) %MON forcing_empmr_sd             =   4.2148264820829E-04
(PID.TID 0000.0001) %MON forcing_empmr_del2           =   4.7588349146894E-06
(PID.TID 0000.0001) %MON forcing_fu_max               =   8.8469735906091E-01
(PID.TID 0000.0001) %MON forcing_fu_min               =  -8.8363617125355E-01
(PID.TID 0000.0001) %MON forcing_fu_mean              =   9.6332031702885E-03
(PID.TID 0000.0001) %MON forcing_fu_sd                =   1.2233338559194E-01
(PID.TID 0000.0001) %MON forcing_fu_del2              =   1.6129347472601E-04
(PID.TID 0000.0001) %MON forcing_fv_max               =   9.2909130454063E-01
(PID.TID 0000.0001) %MON forcing_fv_min               =  -1.6989140305259E+00
(PID.TID 0000.0001) %MON forcing_fv_mean              =  -8.4723411483311E-04
(PID.TID 0000.0001) %MON forcing_fv_sd                =   1.0685518559116E-01
(PID.TID 0000.0001) %MON forcing_fv_del2              =   1.5610419624623E-04
(PID.TID 0000.0001) %MON trAdv_CFL_u_max              =   2.9340355568576E-02
(PID.TID 0000.0001) %MON trAdv_CFL_v_max              =   2.2931949366786E-02
(PID.TID 0000.0001) %MON trAdv_CFL_w_max              =   1.0710218823556E-01
(PID.TID 0000.0001) %MON advcfl_uvel_max              =   2.9732823695584E-02
(PID.TID 0000.0001) %MON advcfl_vvel_max              =   2.2565595934839E-02
(PID.TID 0000.0001) %MON advcfl_wvel_max              =   1.0107976435800E-01
(PID.TID 0000.0001) %MON advcfl_W_hf_max              =   1.0710218823556E-01
(PID.TID 0000.0001) %MON pe_b_mean                    =   1.8656576422227E-03
(PID.TID 0000.0001) %MON ke_max                       =   2.8785494384103E+00
(PID.TID 0000.0001) %MON ke_mean                      =   8.6564322876450E-04
(PID.TID 0000.0001) %MON ke_vol                       =   1.3350064351420E+18
(PID.TID 0000.0001) %MON vort_r_min                   =  -9.9602054604861E-05
(PID.TID 0000.0001) %MON vort_r_max                   =   1.0890153959752E-04
(PID.TID 0000.0001) %MON vort_a_mean                  =  -1.9725072514190E-05
(PID.TID 0000.0001) %MON vort_a_sd                    =   7.4539400911468E-05
(PID.TID 0000.0001) %MON vort_p_mean                  =  -2.1669077044044E-05
(PID.TID 0000.0001) %MON vort_p_sd                    =   9.3608405432546E-05
(PID.TID 0000.0001) %MON surfExpan_theta_mean         =   2.1139481162020E-05
(PID.TID 0000.0001) %MON surfExpan_salt_mean          =   2.8212777434864E-05
(PID.TID 0000.0001) // =======================================================
(PID.TID 0000.0001) // End MONITOR dynamic field statistics
(PID.TID 0000.0001) // =======================================================
(PID.TID 0000.0001) // =======================================================
(PID.TID 0000.0001) // Begin MONITOR SEAICE statistics
(PID.TID 0000.0001) // =======================================================
(PID.TID 0000.0001) %MON seaice_tsnumber              =                174768
(PID.TID 0000.0001) %MON seaice_time_sec              =   7.8645600000000E+07
(PID.TID 0000.0001) %MON seaice_uice_max              =   1.4672578019570E+00
(PID.TID 0000.0001) %MON seaice_uice_min              =  -1.3150128555681E+00
(PID.TID 0000.0001) %MON seaice_uice_mean             =   4.2919881371463E-04
(PID.TID 0000.0001) %MON seaice_uice_sd               =   1.5310882745341E-01
(PID.TID 0000.0001) %MON seaice_uice_del2             =   3.4001143102928E-04
(PID.TID 0000.0001) %MON seaice_vice_max              =   1.3654607223815E+00
(PID.TID 0000.0001) %MON seaice_vice_min              =  -1.4657518125887E+00
(PID.TID 0000.0001) %MON seaice_vice_mean             =  -2.2324908668562E-02
(PID.TID 0000.0001) %MON seaice_vice_sd               =   1.6673455592278E-01
(PID.TID 0000.0001) %MON seaice_vice_del2             =   3.1733152296444E-04
(PID.TID 0000.0001) %MON seaice_area_max              =   1.0040481584380E+00
(PID.TID 0000.0001) %MON seaice_area_min              =   0.0000000000000E+00
(PID.TID 0000.0001) %MON seaice_area_mean             =   5.7400951991248E-02
(PID.TID 0000.0001) %MON seaice_area_sd               =   2.2124205129410E-01
(PID.TID 0000.0001) %MON seaice_area_del2             =   2.9732659622882E-04
(PID.TID 0000.0001) %MON seaice_heff_max              =   9.9487363621410E+00
(PID.TID 0000.0001) %MON seaice_heff_min              =   0.0000000000000E+00
(PID.TID 0000.0001) %MON seaice_heff_mean             =   1.4978499350020E-01
(PID.TID 0000.0001) %MON seaice_heff_sd               =   7.2073531649507E-01
(PID.TID 0000.0001) %MON seaice_heff_del2             =   1.4068918794735E-03
(PID.TID 0000.0001) %MON seaice_hsnow_max             =   3.2860976754103E+00
(PID.TID 0000.0001) %MON seaice_hsnow_min             =   0.0000000000000E+00
(PID.TID 0000.0001) %MON seaice_hsnow_mean            =   1.2676773845638E-02
(PID.TID 0000.0001) %MON seaice_hsnow_sd              =   6.8541212704095E-02
(PID.TID 0000.0001) %MON seaice_hsnow_del2            =   3.8907446454409E-04
(PID.TID 0000.0001) // =======================================================
(PID.TID 0000.0001) // End MONITOR SEAICE statistics
(PID.TID 0000.0001) // =======================================================
(PID.TID 0000.0001) // =======================================================
(PID.TID 0000.0001) // Begin MONITOR dynamic field statistics
(PID.TID 0000.0001) // =======================================================
(PID.TID 0000.0001) %MON time_tsnumber                =                174769
(PID.TID 0000.0001) %MON time_secondsf                =   7.8646050000000E+07
(PID.TID 0000.0001) %MON dynstat_eta_max              =   2.2787950148202E+00
(PID.TID 0000.0001) %MON dynstat_eta_min              =  -1.1501384722217E+01
(PID.TID 0000.0001) %MON dynstat_eta_mean             =   6.8855506871231E-02
(PID.TID 0000.0001) %MON dynstat_eta_sd               =   8.4627154559984E-01
(PID.TID 0000.0001) %MON dynstat_eta_del2             =   2.0134345973633E-03
(PID.TID 0000.0001) %MON dynstat_uvel_max             =   2.2527852080326E+00
(PID.TID 0000.0001) %MON dynstat_uvel_min             =  -2.8424803785027E+00
(PID.TID 0000.0001) %MON dynstat_uvel_mean            =   3.3690267358943E-03
(PID.TID 0000.0001) %MON dynstat_uvel_sd              =   2.9341213690894E-02
(PID.TID 0000.0001) %MON dynstat_uvel_del2            =   3.5285529561509E-05
(PID.TID 0000.0001) %MON dynstat_vvel_max             =   2.1924576801739E+00
(PID.TID 0000.0001) %MON dynstat_vvel_min             =  -2.1919505920254E+00
(PID.TID 0000.0001) %MON dynstat_vvel_mean            =   2.4205414972842E-03
(PID.TID 0000.0001) %MON dynstat_vvel_sd              =   3.0304531743411E-02
(PID.TID 0000.0001) %MON dynstat_vvel_del2            =   3.3064635738245E-05
(PID.TID 0000.0001) %MON dynstat_wvel_max             =   6.8707216416373E-03
(PID.TID 0000.0001) %MON dynstat_wvel_min             =  -8.1366695584527E-03
(PID.TID 0000.0001) %MON dynstat_wvel_mean            =   7.6955415380236E-07
(PID.TID 0000.0001) %MON dynstat_wvel_sd              =   1.0311061946935E-04
(PID.TID 0000.0001) %MON dynstat_wvel_del2            =   2.4572800399206E-07
(PID.TID 0000.0001) %MON dynstat_theta_max            =   3.2426508670433E+01
(PID.TID 0000.0001) %MON dynstat_theta_min            =  -2.0376589027384E+00
(PID.TID 0000.0001) %MON dynstat_theta_mean           =   3.5921234067964E+00
(PID.TID 0000.0001) %MON dynstat_theta_sd             =   4.4421799308242E+00
(PID.TID 0000.0001) %MON dynstat_theta_del2           =   1.2347458068080E-04
(PID.TID 0000.0001) %MON dynstat_salt_max             =   4.0655991876728E+01
(PID.TID 0000.0001) %MON dynstat_salt_min             =   1.6077993634194E+01
(PID.TID 0000.0001) %MON dynstat_salt_mean            =   3.4724810320809E+01
(PID.TID 0000.0001) %MON dynstat_salt_sd              =   3.7968558754363E-01
(PID.TID 0000.0001) %MON dynstat_salt_del2            =   6.7798780183539E-05
(PID.TID 0000.0001) %MON dynstat_sst_max              =   3.2426508670433E+01
(PID.TID 0000.0001) %MON dynstat_sst_min              =  -2.0376589027384E+00
(PID.TID 0000.0001) %MON dynstat_sst_mean             =   1.8187165884143E+01
(PID.TID 0000.0001) %MON dynstat_sst_sd               =   1.0177382508923E+01
(PID.TID 0000.0001) %MON dynstat_sst_del2             =   1.1067235445781E-03
(PID.TID 0000.0001) %MON dynstat_sss_max              =   3.9468430416854E+01
(PID.TID 0000.0001) %MON dynstat_sss_min              =   1.6077993634194E+01
(PID.TID 0000.0001) %MON dynstat_sss_mean             =   3.4645380248226E+01
(PID.TID 0000.0001) %MON dynstat_sss_sd               =   1.2956162715470E+00
(PID.TID 0000.0001) %MON dynstat_sss_del2             =   1.4727031926393E-03
(PID.TID 0000.0001) %MON forcing_qnet_max             =   1.8819593525416E+03
(PID.TID 0000.0001) %MON forcing_qnet_min             =  -1.1701785093889E+03
(PID.TID 0000.0001) %MON forcing_qnet_mean            =  -3.9196207964975E+01
(PID.TID 0000.0001) %MON forcing_qnet_sd              =   2.3419572557254E+02
(PID.TID 0000.0001) %MON forcing_qnet_del2            =   4.8550407608793E-01
(PID.TID 0000.0001) %MON forcing_qsw_max              =   0.0000000000000E+00
(PID.TID 0000.0001) %MON forcing_qsw_min              =  -1.1126404074008E+02
(PID.TID 0000.0001) %MON forcing_qsw_mean             =  -2.4650931976718E+01
(PID.TID 0000.0001) %MON forcing_qsw_sd               =   3.3498427264530E+01
(PID.TID 0000.0001) %MON forcing_qsw_del2             =   2.0478026784354E-02
(PID.TID 0000.0001) %MON forcing_empmr_max            =   1.4035644941032E-02
(PID.TID 0000.0001) %MON forcing_empmr_min            =  -1.0794929414988E-01
(PID.TID 0000.0001) %MON forcing_empmr_mean           =   3.2726065887090E-06
(PID.TID 0000.0001) %MON forcing_empmr_sd             =   4.1725219301169E-04
(PID.TID 0000.0001) %MON forcing_empmr_del2           =   4.7261026634683E-06
(PID.TID 0000.0001) %MON forcing_fu_max               =   9.0642677746795E-01
(PID.TID 0000.0001) %MON forcing_fu_min               =  -8.8853602540291E-01
(PID.TID 0000.0001) %MON forcing_fu_mean              =   9.6621178107443E-03
(PID.TID 0000.0001) %MON forcing_fu_sd                =   1.2238227957969E-01
(PID.TID 0000.0001) %MON forcing_fu_del2              =   1.6145458874063E-04
(PID.TID 0000.0001) %MON forcing_fv_max               =   9.2214506864548E-01
(PID.TID 0000.0001) %MON forcing_fv_min               =  -1.7134255579578E+00
(PID.TID 0000.0001) %MON forcing_fv_mean              =  -8.3483993774191E-04
(PID.TID 0000.0001) %MON forcing_fv_sd                =   1.0691322145146E-01
(PID.TID 0000.0001) %MON forcing_fv_del2              =   1.5592362865150E-04
(PID.TID 0000.0001) %MON trAdv_CFL_u_max              =   2.9319215632217E-02
(PID.TID 0000.0001) %MON trAdv_CFL_v_max              =   2.2891707875560E-02
(PID.TID 0000.0001) %MON trAdv_CFL_w_max              =   1.0710015733006E-01
(PID.TID 0000.0001) %MON advcfl_uvel_max              =   2.9711400983127E-02
(PID.TID 0000.0001) %MON advcfl_vvel_max              =   2.2525997328707E-02
(PID.TID 0000.0001) %MON advcfl_wvel_max              =   1.0108328350897E-01
(PID.TID 0000.0001) %MON advcfl_W_hf_max              =   1.0710015733006E-01
(PID.TID 0000.0001) %MON pe_b_mean                    =   1.8757104288161E-03
(PID.TID 0000.0001) %MON ke_max                       =   2.8745011002930E+00
(PID.TID 0000.0001) %MON ke_mean                      =   8.6625078106433E-04
(PID.TID 0000.0001) %MON ke_vol                       =   1.3350064351420E+18
(PID.TID 0000.0001) %MON vort_r_min                   =  -9.9483098460774E-05
(PID.TID 0000.0001) %MON vort_r_max                   =   1.0882551768351E-04
(PID.TID 0000.0001) %MON vort_a_mean                  =  -1.9725072757518E-05
(PID.TID 0000.0001) %MON vort_a_sd                    =   7.4539410264215E-05
(PID.TID 0000.0001) %MON vort_p_mean                  =  -2.1669077311353E-05
(PID.TID 0000.0001) %MON vort_p_sd                    =   9.3608466412497E-05
(PID.TID 0000.0001) %MON surfExpan_theta_mean         =   2.1996493652551E-05
(PID.TID 0000.0001) %MON surfExpan_salt_mean          =   2.9094132993026E-05
(PID.TID 0000.0001) // =======================================================
(PID.TID 0000.0001) // End MONITOR dynamic field statistics
(PID.TID 0000.0001) // =======================================================
(PID.TID 0000.0001) // =======================================================
(PID.TID 0000.0001) // Begin MONITOR SEAICE statistics
(PID.TID 0000.0001) // =======================================================
(PID.TID 0000.0001) %MON seaice_tsnumber              =                174769
(PID.TID 0000.0001) %MON seaice_time_sec              =   7.8646050000000E+07
(PID.TID 0000.0001) %MON seaice_uice_max              =   1.4701118864846E+00
(PID.TID 0000.0001) %MON seaice_uice_min              =  -1.3093002729110E+00
(PID.TID 0000.0001) %MON seaice_uice_mean             =   5.5769032353331E-04
(PID.TID 0000.0001) %MON seaice_uice_sd               =   1.5311548510117E-01
(PID.TID 0000.0001) %MON seaice_uice_del2             =   3.3992616363599E-04
(PID.TID 0000.0001) %MON seaice_vice_max              =   1.2955583893334E+00
(PID.TID 0000.0001) %MON seaice_vice_min              =  -1.4662878715790E+00
(PID.TID 0000.0001) %MON seaice_vice_mean             =  -2.2377745830933E-02
(PID.TID 0000.0001) %MON seaice_vice_sd               =   1.6684034949345E-01
(PID.TID 0000.0001) %MON seaice_vice_del2             =   3.1744423467506E-04
(PID.TID 0000.0001) %MON seaice_area_max              =   1.0041425027911E+00
(PID.TID 0000.0001) %MON seaice_area_min              =   0.0000000000000E+00
(PID.TID 0000.0001) %MON seaice_area_mean             =   5.7402823960423E-02
(PID.TID 0000.0001) %MON seaice_area_sd               =   2.2123731768499E-01
(PID.TID 0000.0001) %MON seaice_area_del2             =   2.9712188389858E-04
(PID.TID 0000.0001) %MON seaice_heff_max              =   9.9487249562434E+00
(PID.TID 0000.0001) %MON seaice_heff_min              =   0.0000000000000E+00
(PID.TID 0000.0001) %MON seaice_heff_mean             =   1.4978112841132E-01
(PID.TID 0000.0001) %MON seaice_heff_sd               =   7.2072465846367E-01
(PID.TID 0000.0001) %MON seaice_heff_del2             =   1.4060929587075E-03
(PID.TID 0000.0001) %MON seaice_hsnow_max             =   3.2860941080917E+00
(PID.TID 0000.0001) %MON seaice_hsnow_min             =   0.0000000000000E+00
(PID.TID 0000.0001) %MON seaice_hsnow_mean            =   1.2676042025978E-02
(PID.TID 0000.0001) %MON seaice_hsnow_sd              =   6.8534142922502E-02
(PID.TID 0000.0001) %MON seaice_hsnow_del2            =   3.8879671853312E-04
(PID.TID 0000.0001) // =======================================================
(PID.TID 0000.0001) // End MONITOR SEAICE statistics
(PID.TID 0000.0001) // =======================================================
(PID.TID 0000.0001) // =======================================================
(PID.TID 0000.0001) // Begin MONITOR dynamic field statistics
(PID.TID 0000.0001) // =======================================================
(PID.TID 0000.0001) %MON time_tsnumber                =                174770
(PID.TID 0000.0001) %MON time_secondsf                =   7.8646500000000E+07
(PID.TID 0000.0001) %MON dynstat_eta_max              =   2.2606818093487E+00
(PID.TID 0000.0001) %MON dynstat_eta_min              =  -1.1507279910460E+01
(PID.TID 0000.0001) %MON dynstat_eta_mean             =   6.9257171889035E-02
(PID.TID 0000.0001) %MON dynstat_eta_sd               =   8.4654426724425E-01
(PID.TID 0000.0001) %MON dynstat_eta_del2             =   2.0133559138003E-03
(PID.TID 0000.0001) %MON dynstat_uvel_max             =   2.2610963201619E+00
(PID.TID 0000.0001) %MON dynstat_uvel_min             =  -2.8404618251563E+00
(PID.TID 0000.0001) %MON dynstat_uvel_mean            =   3.4604563825031E-03
(PID.TID 0000.0001) %MON dynstat_uvel_sd              =   2.9358406942539E-02
(PID.TID 0000.0001) %MON dynstat_uvel_del2            =   3.5332055046189E-05
(PID.TID 0000.0001) %MON dynstat_vvel_max             =   2.1929366213178E+00
(PID.TID 0000.0001) %MON dynstat_vvel_min             =  -2.1947988796556E+00
(PID.TID 0000.0001) %MON dynstat_vvel_mean            =   2.4238253040021E-03
(PID.TID 0000.0001) %MON dynstat_vvel_sd              =   3.0300538031809E-02
(PID.TID 0000.0001) %MON dynstat_vvel_del2            =   3.3113711950336E-05
(PID.TID 0000.0001) %MON dynstat_wvel_max             =   6.8865297560362E-03
(PID.TID 0000.0001) %MON dynstat_wvel_min             =  -8.0412609106413E-03
(PID.TID 0000.0001) %MON dynstat_wvel_mean            =   7.8618866946197E-07
(PID.TID 0000.0001) %MON dynstat_wvel_sd              =   1.0341281123070E-04
(PID.TID 0000.0001) %MON dynstat_wvel_del2            =   2.4647878149004E-07
(PID.TID 0000.0001) %MON dynstat_theta_max            =   3.2423802278065E+01
(PID.TID 0000.0001) %MON dynstat_theta_min            =  -2.0376036599154E+00
(PID.TID 0000.0001) %MON dynstat_theta_mean           =   3.5921219367045E+00
(PID.TID 0000.0001) %MON dynstat_theta_sd             =   4.4421764175932E+00
(PID.TID 0000.0001) %MON dynstat_theta_del2           =   1.2352243884333E-04
(PID.TID 0000.0001) %MON dynstat_salt_max             =   4.0655991876636E+01
(PID.TID 0000.0001) %MON dynstat_salt_min             =   1.6076409499827E+01
(PID.TID 0000.0001) %MON dynstat_salt_mean            =   3.4724810286627E+01
(PID.TID 0000.0001) %MON dynstat_salt_sd              =   3.7968606800263E-01
(PID.TID 0000.0001) %MON dynstat_salt_del2            =   6.7745494848022E-05
(PID.TID 0000.0001) %MON dynstat_sst_max              =   3.2423802278065E+01
(PID.TID 0000.0001) %MON dynstat_sst_min              =  -2.0376036599154E+00
(PID.TID 0000.0001) %MON dynstat_sst_mean             =   1.8187425648613E+01
(PID.TID 0000.0001) %MON dynstat_sst_sd               =   1.0177811083452E+01
(PID.TID 0000.0001) %MON dynstat_sst_del2             =   1.1065681913502E-03
(PID.TID 0000.0001) %MON dynstat_sss_max              =   3.9468392494116E+01
(PID.TID 0000.0001) %MON dynstat_sss_min              =   1.6076409499827E+01
(PID.TID 0000.0001) %MON dynstat_sss_mean             =   3.4645337106021E+01
(PID.TID 0000.0001) %MON dynstat_sss_sd               =   1.2957052905333E+00
(PID.TID 0000.0001) %MON dynstat_sss_del2             =   1.4730318669586E-03
(PID.TID 0000.0001) %MON forcing_qnet_max             =   2.0642604980469E+03
(PID.TID 0000.0001) %MON forcing_qnet_min             =  -2.8360163574219E+03
(PID.TID 0000.0001) %MON forcing_qnet_mean            =  -3.9070252637468E+01
(PID.TID 0000.0001) %MON forcing_qnet_sd              =   2.3391896159245E+02
(PID.TID 0000.0001) %MON forcing_qnet_del2            =   5.1077239971209E-01
(PID.TID 0000.0001) %MON forcing_qsw_max              =   0.0000000000000E+00
(PID.TID 0000.0001) %MON forcing_qsw_min              =  -1.1101823011267E+02
(PID.TID 0000.0001) %MON forcing_qsw_mean             =  -2.4590818469170E+01
(PID.TID 0000.0001) %MON forcing_qsw_sd               =   3.3452817076164E+01
(PID.TID 0000.0001) %MON forcing_qsw_del2             =   2.0568855099517E-02
(PID.TID 0000.0001) %MON forcing_empmr_max            =   1.4042426832020E-02
(PID.TID 0000.0001) %MON forcing_empmr_min            =  -1.0178386420012E-01
(PID.TID 0000.0001) %MON forcing_empmr_mean           =   3.1656485333215E-06
(PID.TID 0000.0001) %MON forcing_empmr_sd             =   4.0796013680037E-04
(PID.TID 0000.0001) %MON forcing_empmr_del2           =   4.6109152451604E-06
(PID.TID 0000.0001) %MON forcing_fu_max               =   9.2636353297087E-01
(PID.TID 0000.0001) %MON forcing_fu_min               =  -8.9394499678387E-01
(PID.TID 0000.0001) %MON forcing_fu_mean              =   9.6878723353550E-03
(PID.TID 0000.0001) %MON forcing_fu_sd                =   1.2240049650162E-01
(PID.TID 0000.0001) %MON forcing_fu_del2              =   1.6167592119764E-04
(PID.TID 0000.0001) %MON forcing_fv_max               =   9.1749620437622E-01
(PID.TID 0000.0001) %MON forcing_fv_min               =  -1.7276697382307E+00
(PID.TID 0000.0001) %MON forcing_fv_mean              =  -8.2866366825843E-04
(PID.TID 0000.0001) %MON forcing_fv_sd                =   1.0693720454990E-01
(PID.TID 0000.0001) %MON forcing_fv_del2              =   1.5575269433042E-04
(PID.TID 0000.0001) %MON trAdv_CFL_u_max              =   2.9298394942907E-02
(PID.TID 0000.0001) %MON trAdv_CFL_v_max              =   2.2849862501748E-02
(PID.TID 0000.0001) %MON trAdv_CFL_w_max              =   1.0711104401873E-01
(PID.TID 0000.0001) %MON advcfl_uvel_max              =   2.9690301788095E-02
(PID.TID 0000.0001) %MON advcfl_vvel_max              =   2.2484820463100E-02
(PID.TID 0000.0001) %MON advcfl_wvel_max              =   1.0110025793977E-01
(PID.TID 0000.0001) %MON advcfl_W_hf_max              =   1.0711104401873E-01
(PID.TID 0000.0001) %MON pe_b_mean                    =   1.8861495357333E-03
(PID.TID 0000.0001) %MON ke_max                       =   2.8705675802206E+00
(PID.TID 0000.0001) %MON ke_mean                      =   8.6692934958329E-04
(PID.TID 0000.0001) %MON ke_vol                       =   1.3350064351420E+18
(PID.TID 0000.0001) %MON vort_r_min                   =  -9.9369961787072E-05
(PID.TID 0000.0001) %MON vort_r_max                   =   1.0875191041845E-04
(PID.TID 0000.0001) %MON vort_a_mean                  =  -1.9725073015271E-05
(PID.TID 0000.0001) %MON vort_a_sd                    =   7.4539419187599E-05
(PID.TID 0000.0001) %MON vort_p_mean                  =  -2.1669077594508E-05
(PID.TID 0000.0001) %MON vort_p_sd                    =   9.3608526380886E-05
(PID.TID 0000.0001) %MON surfExpan_theta_mean         =   2.2849130841679E-05
(PID.TID 0000.0001) %MON surfExpan_salt_mean          =   2.9965277457486E-05
(PID.TID 0000.0001) // =======================================================
(PID.TID 0000.0001) // End MONITOR dynamic field statistics
(PID.TID 0000.0001) // =======================================================
(PID.TID 0000.0001) // =======================================================
(PID.TID 0000.0001) // Begin MONITOR SEAICE statistics
(PID.TID 0000.0001) // =======================================================
(PID.TID 0000.0001) %MON seaice_tsnumber              =                174770
(PID.TID 0000.0001) %MON seaice_time_sec              =   7.8646500000000E+07
(PID.TID 0000.0001) %MON seaice_uice_max              =   1.4731175746360E+00
(PID.TID 0000.0001) %MON seaice_uice_min              =  -1.3046382270167E+00
(PID.TID 0000.0001) %MON seaice_uice_mean             =   6.8858034903075E-04
(PID.TID 0000.0001) %MON seaice_uice_sd               =   1.5312360135041E-01
(PID.TID 0000.0001) %MON seaice_uice_del2             =   3.3991095861848E-04
(PID.TID 0000.0001) %MON seaice_vice_max              =   1.2149027573315E+00
(PID.TID 0000.0001) %MON seaice_vice_min              =  -1.4668357039243E+00
(PID.TID 0000.0001) %MON seaice_vice_mean             =  -2.2435680971316E-02
(PID.TID 0000.0001) %MON seaice_vice_sd               =   1.6694455812666E-01
(PID.TID 0000.0001) %MON seaice_vice_del2             =   3.1760027539303E-04
(PID.TID 0000.0001) %MON seaice_area_max              =   1.0042271931595E+00
(PID.TID 0000.0001) %MON seaice_area_min              =   0.0000000000000E+00
(PID.TID 0000.0001) %MON seaice_area_mean             =   5.7404705140088E-02
(PID.TID 0000.0001) %MON seaice_area_sd               =   2.2123260072699E-01
(PID.TID 0000.0001) %MON seaice_area_del2             =   2.9691648326234E-04
(PID.TID 0000.0001) %MON seaice_heff_max              =   9.9487145056848E+00
(PID.TID 0000.0001) %MON seaice_heff_min              =   0.0000000000000E+00
(PID.TID 0000.0001) %MON seaice_heff_mean             =   1.4977726447963E-01
(PID.TID 0000.0001) %MON seaice_heff_sd               =   7.2071403116783E-01
(PID.TID 0000.0001) %MON seaice_heff_del2             =   1.4052946338781E-03
(PID.TID 0000.0001) %MON seaice_hsnow_max             =   3.2860905463856E+00
(PID.TID 0000.0001) %MON seaice_hsnow_min             =   0.0000000000000E+00
(PID.TID 0000.0001) %MON seaice_hsnow_mean            =   1.2675294810311E-02
(PID.TID 0000.0001) %MON seaice_hsnow_sd              =   6.8526988985603E-02
(PID.TID 0000.0001) %MON seaice_hsnow_del2            =   3.8851790958342E-04
(PID.TID 0000.0001) // =======================================================
(PID.TID 0000.0001) // End MONITOR SEAICE statistics
(PID.TID 0000.0001) // =======================================================
(PID.TID 0000.0001) // =======================================================
(PID.TID 0000.0001) // Begin MONITOR dynamic field statistics
(PID.TID 0000.0001) // =======================================================
(PID.TID 0000.0001) %MON time_tsnumber                =                174771
(PID.TID 0000.0001) %MON time_secondsf                =   7.8646950000000E+07
(PID.TID 0000.0001) %MON dynstat_eta_max              =   2.2282196000553E+00
(PID.TID 0000.0001) %MON dynstat_eta_min              =  -1.1508780882070E+01
(PID.TID 0000.0001) %MON dynstat_eta_mean             =   6.9669789369060E-02
(PID.TID 0000.0001) %MON dynstat_eta_sd               =   8.4685153719101E-01
(PID.TID 0000.0001) %MON dynstat_eta_del2             =   2.0132329336328E-03
(PID.TID 0000.0001) %MON dynstat_uvel_max             =   2.2691975907929E+00
(PID.TID 0000.0001) %MON dynstat_uvel_min             =  -2.8384736737916E+00
(PID.TID 0000.0001) %MON dynstat_uvel_mean            =   3.5479118349865E-03
(PID.TID 0000.0001) %MON dynstat_uvel_sd              =   2.9376387569163E-02
(PID.TID 0000.0001) %MON dynstat_uvel_del2            =   3.5377906855446E-05
(PID.TID 0000.0001) %MON dynstat_vvel_max             =   2.1927816358532E+00
(PID.TID 0000.0001) %MON dynstat_vvel_min             =  -2.1976374314724E+00
(PID.TID 0000.0001) %MON dynstat_vvel_mean            =   2.4266187524509E-03
(PID.TID 0000.0001) %MON dynstat_vvel_sd              =   3.0298279030404E-02
(PID.TID 0000.0001) %MON dynstat_vvel_del2            =   3.3162579158493E-05
(PID.TID 0000.0001) %MON dynstat_wvel_max             =   6.9022698637169E-03
(PID.TID 0000.0001) %MON dynstat_wvel_min             =  -7.9451094645874E-03
(PID.TID 0000.0001) %MON dynstat_wvel_mean            =   8.0156702560800E-07
(PID.TID 0000.0001) %MON dynstat_wvel_sd              =   1.0371689212763E-04
(PID.TID 0000.0001) %MON dynstat_wvel_del2            =   2.4722532774820E-07
(PID.TID 0000.0001) %MON dynstat_theta_max            =   3.2421276974079E+01
(PID.TID 0000.0001) %MON dynstat_theta_min            =  -2.0375378588808E+00
(PID.TID 0000.0001) %MON dynstat_theta_mean           =   3.5921203670294E+00
(PID.TID 0000.0001) %MON dynstat_theta_sd             =   4.4421725837006E+00
(PID.TID 0000.0001) %MON dynstat_theta_del2           =   1.2356996388205E-04
(PID.TID 0000.0001) %MON dynstat_salt_max             =   4.0655991876544E+01
(PID.TID 0000.0001) %MON dynstat_salt_min             =   1.6074853386477E+01
(PID.TID 0000.0001) %MON dynstat_salt_mean            =   3.4724810258658E+01
(PID.TID 0000.0001) %MON dynstat_salt_sd              =   3.7968653981276E-01
(PID.TID 0000.0001) %MON dynstat_salt_del2            =   6.7692262428841E-05
(PID.TID 0000.0001) %MON dynstat_sst_max              =   3.2421276974079E+01
(PID.TID 0000.0001) %MON dynstat_sst_min              =  -2.0375378588808E+00
(PID.TID 0000.0001) %MON dynstat_sst_mean             =   1.8187678179409E+01
(PID.TID 0000.0001) %MON dynstat_sst_sd               =   1.0178242092704E+01
(PID.TID 0000.0001) %MON dynstat_sst_del2             =   1.1064452177794E-03
(PID.TID 0000.0001) %MON dynstat_sss_max              =   3.9468377523548E+01
(PID.TID 0000.0001) %MON dynstat_sss_min              =   1.6074853386477E+01
(PID.TID 0000.0001) %MON dynstat_sss_mean             =   3.4645294849923E+01
(PID.TID 0000.0001) %MON dynstat_sss_sd               =   1.2957927460476E+00
(PID.TID 0000.0001) %MON dynstat_sss_del2             =   1.4733270869966E-03
(PID.TID 0000.0001) %MON forcing_qnet_max             =   1.8443186035156E+03
(PID.TID 0000.0001) %MON forcing_qnet_min             =  -1.7150212402344E+03
(PID.TID 0000.0001) %MON forcing_qnet_mean            =  -3.8888810997637E+01
(PID.TID 0000.0001) %MON forcing_qnet_sd              =   2.3262028275553E+02
(PID.TID 0000.0001) %MON forcing_qnet_del2            =   4.6821718165029E-01
(PID.TID 0000.0001) %MON forcing_qsw_max              =   0.0000000000000E+00
(PID.TID 0000.0001) %MON forcing_qsw_min              =  -1.1065436499261E+02
(PID.TID 0000.0001) %MON forcing_qsw_mean             =  -2.4511104426051E+01
(PID.TID 0000.0001) %MON forcing_qsw_sd               =   3.3393602068233E+01
(PID.TID 0000.0001) %MON forcing_qsw_del2             =   2.0654514012241E-02
(PID.TID 0000.0001) %MON forcing_empmr_max            =   1.4050835743546E-02
(PID.TID 0000.0001) %MON forcing_empmr_min            =  -9.8447941243649E-02
(PID.TID 0000.0001) %MON forcing_empmr_mean           =   3.4117288772616E-06
(PID.TID 0000.0001) %MON forcing_empmr_sd             =   4.0180395482537E-04
(PID.TID 0000.0001) %MON forcing_empmr_del2           =   4.5313316874958E-06
(PID.TID 0000.0001) %MON forcing_fu_max               =   9.4403955976117E-01
(PID.TID 0000.0001) %MON forcing_fu_min               =  -9.0261366891468E-01
(PID.TID 0000.0001) %MON forcing_fu_mean              =   9.7190714648580E-03
(PID.TID 0000.0001) %MON forcing_fu_sd                =   1.2242985931175E-01
(PID.TID 0000.0001) %MON forcing_fu_del2              =   1.6198900976253E-04
(PID.TID 0000.0001) %MON forcing_fv_max               =   9.1359096765518E-01
(PID.TID 0000.0001) %MON forcing_fv_min               =  -1.7419281779620E+00
(PID.TID 0000.0001) %MON forcing_fv_mean              =  -8.2243942380269E-04
(PID.TID 0000.0001) %MON forcing_fv_sd                =   1.0698160003812E-01
(PID.TID 0000.0001) %MON forcing_fv_del2              =   1.5565567637915E-04
(PID.TID 0000.0001) %MON trAdv_CFL_u_max              =   2.9277887839671E-02
(PID.TID 0000.0001) %MON trAdv_CFL_v_max              =   2.2806563166857E-02
(PID.TID 0000.0001) %MON trAdv_CFL_w_max              =   1.0713066438156E-01
(PID.TID 0000.0001) %MON advcfl_uvel_max              =   2.9669520373786E-02
(PID.TID 0000.0001) %MON advcfl_vvel_max              =   2.2442212864427E-02
(PID.TID 0000.0001) %MON advcfl_wvel_max              =   1.0112649620904E-01
(PID.TID 0000.0001) %MON advcfl_W_hf_max              =   1.0713066438156E-01
(PID.TID 0000.0001) %MON pe_b_mean                    =   1.8969509290225E-03
(PID.TID 0000.0001) %MON ke_max                       =   2.8667486034631E+00
(PID.TID 0000.0001) %MON ke_mean                      =   8.6767453271136E-04
(PID.TID 0000.0001) %MON ke_vol                       =   1.3350064351420E+18
(PID.TID 0000.0001) %MON vort_r_min                   =  -9.9262659909150E-05
(PID.TID 0000.0001) %MON vort_r_max                   =   1.0868072304670E-04
(PID.TID 0000.0001) %MON vort_a_mean                  =  -1.9725073284774E-05
(PID.TID 0000.0001) %MON vort_a_sd                    =   7.4539427671362E-05
(PID.TID 0000.0001) %MON vort_p_mean                  =  -2.1669077890573E-05
(PID.TID 0000.0001) %MON vort_p_sd                    =   9.3608585475016E-05
(PID.TID 0000.0001) %MON surfExpan_theta_mean         =   2.3673613173887E-05
(PID.TID 0000.0001) %MON surfExpan_salt_mean          =   3.0793578124639E-05
(PID.TID 0000.0001) // =======================================================
(PID.TID 0000.0001) // End MONITOR dynamic field statistics
(PID.TID 0000.0001) // =======================================================
(PID.TID 0000.0001) // =======================================================
(PID.TID 0000.0001) // Begin MONITOR SEAICE statistics
(PID.TID 0000.0001) // =======================================================
(PID.TID 0000.0001) %MON seaice_tsnumber              =                174771
(PID.TID 0000.0001) %MON seaice_time_sec              =   7.8646950000000E+07
(PID.TID 0000.0001) %MON seaice_uice_max              =   1.4762151703331E+00
(PID.TID 0000.0001) %MON seaice_uice_min              =  -1.2997373541025E+00
(PID.TID 0000.0001) %MON seaice_uice_mean             =   8.2014827372008E-04
(PID.TID 0000.0001) %MON seaice_uice_sd               =   1.5313938481564E-01
(PID.TID 0000.0001) %MON seaice_uice_del2             =   3.3991698407256E-04
(PID.TID 0000.0001) %MON seaice_vice_max              =   1.1278864908708E+00
(PID.TID 0000.0001) %MON seaice_vice_min              =  -1.4673969224053E+00
(PID.TID 0000.0001) %MON seaice_vice_mean             =  -2.2496826425552E-02
(PID.TID 0000.0001) %MON seaice_vice_sd               =   1.6705239538866E-01
(PID.TID 0000.0001) %MON seaice_vice_del2             =   3.1783565727719E-04
(PID.TID 0000.0001) %MON seaice_area_max              =   1.0044714536931E+00
(PID.TID 0000.0001) %MON seaice_area_min              =   0.0000000000000E+00
(PID.TID 0000.0001) %MON seaice_area_mean             =   5.7406566509001E-02
(PID.TID 0000.0001) %MON seaice_area_sd               =   2.2122787801738E-01
(PID.TID 0000.0001) %MON seaice_area_del2             =   2.9671421606874E-04
(PID.TID 0000.0001) %MON seaice_heff_max              =   9.9487021420247E+00
(PID.TID 0000.0001) %MON seaice_heff_min              =   0.0000000000000E+00
(PID.TID 0000.0001) %MON seaice_heff_mean             =   1.4977341325496E-01
(PID.TID 0000.0001) %MON seaice_heff_sd               =   7.2070349700075E-01
(PID.TID 0000.0001) %MON seaice_heff_del2             =   1.4044988411191E-03
(PID.TID 0000.0001) %MON seaice_hsnow_max             =   3.2860867230056E+00
(PID.TID 0000.0001) %MON seaice_hsnow_min             =   0.0000000000000E+00
(PID.TID 0000.0001) %MON seaice_hsnow_mean            =   1.2674552357710E-02
(PID.TID 0000.0001) %MON seaice_hsnow_sd              =   6.8519905558051E-02
(PID.TID 0000.0001) %MON seaice_hsnow_del2            =   3.8823821327445E-04
(PID.TID 0000.0001) // =======================================================
(PID.TID 0000.0001) // End MONITOR SEAICE statistics
(PID.TID 0000.0001) // =======================================================
(PID.TID 0000.0001) // =======================================================
(PID.TID 0000.0001) // Begin MONITOR dynamic field statistics
(PID.TID 0000.0001) // =======================================================
(PID.TID 0000.0001) %MON time_tsnumber                =                174772
(PID.TID 0000.0001) %MON time_secondsf                =   7.8647400000000E+07
(PID.TID 0000.0001) %MON dynstat_eta_max              =   2.1821582800251E+00
(PID.TID 0000.0001) %MON dynstat_eta_min              =  -1.1505583103490E+01
(PID.TID 0000.0001) %MON dynstat_eta_mean             =   7.0092447119242E-02
(PID.TID 0000.0001) %MON dynstat_eta_sd               =   8.4719439379287E-01
(PID.TID 0000.0001) %MON dynstat_eta_del2             =   2.0130675982110E-03
(PID.TID 0000.0001) %MON dynstat_uvel_max             =   2.2770556730023E+00
(PID.TID 0000.0001) %MON dynstat_uvel_min             =  -2.8364997978106E+00
(PID.TID 0000.0001) %MON dynstat_uvel_mean            =   3.6310815798535E-03
(PID.TID 0000.0001) %MON dynstat_uvel_sd              =   2.9395057990176E-02
(PID.TID 0000.0001) %MON dynstat_uvel_del2            =   3.5423159227352E-05
(PID.TID 0000.0001) %MON dynstat_vvel_max             =   2.1919915017978E+00
(PID.TID 0000.0001) %MON dynstat_vvel_min             =  -2.2004778062966E+00
(PID.TID 0000.0001) %MON dynstat_vvel_mean            =   2.4290643918096E-03
(PID.TID 0000.0001) %MON dynstat_vvel_sd              =   3.0297942364779E-02
(PID.TID 0000.0001) %MON dynstat_vvel_del2            =   3.3211176733482E-05
(PID.TID 0000.0001) %MON dynstat_wvel_max             =   6.9179632120870E-03
(PID.TID 0000.0001) %MON dynstat_wvel_min             =  -7.8815704415214E-03
(PID.TID 0000.0001) %MON dynstat_wvel_mean            =   8.1567545920574E-07
(PID.TID 0000.0001) %MON dynstat_wvel_sd              =   1.0402195379606E-04
(PID.TID 0000.0001) %MON dynstat_wvel_del2            =   2.4796722198438E-07
(PID.TID 0000.0001) %MON dynstat_theta_max            =   3.2418933023501E+01
(PID.TID 0000.0001) %MON dynstat_theta_min            =  -2.0374650702411E+00
(PID.TID 0000.0001) %MON dynstat_theta_mean           =   3.5921187047501E+00
(PID.TID 0000.0001) %MON dynstat_theta_sd             =   4.4421684794381E+00
(PID.TID 0000.0001) %MON dynstat_theta_del2           =   1.2361667193549E-04
(PID.TID 0000.0001) %MON dynstat_salt_max             =   4.0655991876452E+01
(PID.TID 0000.0001) %MON dynstat_salt_min             =   1.6073329514295E+01
(PID.TID 0000.0001) %MON dynstat_salt_mean            =   3.4724810235694E+01
(PID.TID 0000.0001) %MON dynstat_salt_sd              =   3.7968700447780E-01
(PID.TID 0000.0001) %MON dynstat_salt_del2            =   6.7638897529611E-05
(PID.TID 0000.0001) %MON dynstat_sst_max              =   3.2418933023501E+01
(PID.TID 0000.0001) %MON dynstat_sst_min              =  -2.0374650702411E+00
(PID.TID 0000.0001) %MON dynstat_sst_mean             =   1.8187926093685E+01
(PID.TID 0000.0001) %MON dynstat_sst_sd               =   1.0178678047667E+01
(PID.TID 0000.0001) %MON dynstat_sst_del2             =   1.1062463039039E-03
(PID.TID 0000.0001) %MON dynstat_sss_max              =   3.9468063991573E+01
(PID.TID 0000.0001) %MON dynstat_sss_min              =   1.6073329514295E+01
(PID.TID 0000.0001) %MON dynstat_sss_mean             =   3.4645253333777E+01
(PID.TID 0000.0001) %MON dynstat_sss_sd               =   1.2958786405351E+00
(PID.TID 0000.0001) %MON dynstat_sss_del2             =   1.4735866667923E-03
(PID.TID 0000.0001) %MON forcing_qnet_max             =   1.8775426025391E+03
(PID.TID 0000.0001) %MON forcing_qnet_min             =  -4.4720273437500E+03
(PID.TID 0000.0001) %MON forcing_qnet_mean            =  -3.8775981187080E+01
(PID.TID 0000.0001) %MON forcing_qnet_sd              =   2.3311754463027E+02
(PID.TID 0000.0001) %MON forcing_qnet_del2            =   5.2832346622820E-01
(PID.TID 0000.0001) %MON forcing_qsw_max              =   0.0000000000000E+00
(PID.TID 0000.0001) %MON forcing_qsw_min              =  -1.1051205145707E+02
(PID.TID 0000.0001) %MON forcing_qsw_mean             =  -2.4412297396708E+01
(PID.TID 0000.0001) %MON forcing_qsw_sd               =   3.3320665158795E+01
(PID.TID 0000.0001) %MON forcing_qsw_del2             =   2.0734697990541E-02
(PID.TID 0000.0001) %MON forcing_empmr_max            =   1.5849655494094E-02
(PID.TID 0000.0001) %MON forcing_empmr_min            =  -9.3342974781990E-02
(PID.TID 0000.0001) %MON forcing_empmr_mean           =   3.9305430249082E-06
(PID.TID 0000.0001) %MON forcing_empmr_sd             =   4.0072306106410E-04
(PID.TID 0000.0001) %MON forcing_empmr_del2           =   4.4978692653221E-06
(PID.TID 0000.0001) %MON forcing_fu_max               =   9.5857935736859E-01
(PID.TID 0000.0001) %MON forcing_fu_min               =  -9.1167240712773E-01
(PID.TID 0000.0001) %MON forcing_fu_mean              =   9.7522240865636E-03
(PID.TID 0000.0001) %MON forcing_fu_sd                =   1.2249941794134E-01
(PID.TID 0000.0001) %MON forcing_fu_del2              =   1.6219204995173E-04
(PID.TID 0000.0001) %MON forcing_fv_max               =   9.0997296571732E-01
(PID.TID 0000.0001) %MON forcing_fv_min               =  -1.7559789587878E+00
(PID.TID 0000.0001) %MON forcing_fv_mean              =  -8.0999228443452E-04
(PID.TID 0000.0001) %MON forcing_fv_sd                =   1.0706335555371E-01
(PID.TID 0000.0001) %MON forcing_fv_del2              =   1.5555899275031E-04
(PID.TID 0000.0001) %MON trAdv_CFL_u_max              =   2.9257527982148E-02
(PID.TID 0000.0001) %MON trAdv_CFL_v_max              =   2.2761988607633E-02
(PID.TID 0000.0001) %MON trAdv_CFL_w_max              =   1.0715438237465E-01
(PID.TID 0000.0001) %MON advcfl_uvel_max              =   2.9648888174807E-02
(PID.TID 0000.0001) %MON advcfl_vvel_max              =   2.2398350413995E-02
(PID.TID 0000.0001) %MON advcfl_wvel_max              =   1.0115735369986E-01
(PID.TID 0000.0001) %MON advcfl_W_hf_max              =   1.0715438237465E-01
(PID.TID 0000.0001) %MON pe_b_mean                    =   1.9080936486063E-03
(PID.TID 0000.0001) %MON ke_max                       =   2.8630179343506E+00
(PID.TID 0000.0001) %MON ke_mean                      =   8.6848731114693E-04
(PID.TID 0000.0001) %MON ke_vol                       =   1.3350064351420E+18
(PID.TID 0000.0001) %MON vort_r_min                   =  -9.9160848726192E-05
(PID.TID 0000.0001) %MON vort_r_max                   =   1.0861150075441E-04
(PID.TID 0000.0001) %MON vort_a_mean                  =  -1.9725073563224E-05
(PID.TID 0000.0001) %MON vort_a_sd                    =   7.4539435723685E-05
(PID.TID 0000.0001) %MON vort_p_mean                  =  -2.1669078196466E-05
(PID.TID 0000.0001) %MON vort_p_sd                    =   9.3608643696354E-05
(PID.TID 0000.0001) %MON surfExpan_theta_mean         =   2.4460660992713E-05
(PID.TID 0000.0001) %MON surfExpan_salt_mean          =   3.1583164859479E-05
(PID.TID 0000.0001) // =======================================================
(PID.TID 0000.0001) // End MONITOR dynamic field statistics
(PID.TID 0000.0001) // =======================================================
(PID.TID 0000.0001) // =======================================================
(PID.TID 0000.0001) // Begin MONITOR SEAICE statistics
(PID.TID 0000.0001) // =======================================================
(PID.TID 0000.0001) %MON seaice_tsnumber              =                174772
(PID.TID 0000.0001) %MON seaice_time_sec              =   7.8647400000000E+07
(PID.TID 0000.0001) %MON seaice_uice_max              =   1.4793553357058E+00
(PID.TID 0000.0001) %MON seaice_uice_min              =  -1.2946343169221E+00
(PID.TID 0000.0001) %MON seaice_uice_mean             =   9.5080243868553E-04
(PID.TID 0000.0001) %MON seaice_uice_sd               =   1.5315658293525E-01
(PID.TID 0000.0001) %MON seaice_uice_del2             =   3.3991741017769E-04
(PID.TID 0000.0001) %MON seaice_vice_max              =   1.0506641607033E+00
(PID.TID 0000.0001) %MON seaice_vice_min              =  -1.4679703319168E+00
(PID.TID 0000.0001) %MON seaice_vice_mean             =  -2.2561292619460E-02
(PID.TID 0000.0001) %MON seaice_vice_sd               =   1.6716018205089E-01
(PID.TID 0000.0001) %MON seaice_vice_del2             =   3.1811984978166E-04
(PID.TID 0000.0001) %MON seaice_area_max              =   1.0075795171091E+00
(PID.TID 0000.0001) %MON seaice_area_min              =   0.0000000000000E+00
(PID.TID 0000.0001) %MON seaice_area_mean             =   5.7408381341697E-02
(PID.TID 0000.0001) %MON seaice_area_sd               =   2.2122299227534E-01
(PID.TID 0000.0001) %MON seaice_area_del2             =   2.9651396389406E-04
(PID.TID 0000.0001) %MON seaice_heff_max              =   9.9486869186487E+00
(PID.TID 0000.0001) %MON seaice_heff_min              =   0.0000000000000E+00
(PID.TID 0000.0001) %MON seaice_heff_mean             =   1.4976956725475E-01
(PID.TID 0000.0001) %MON seaice_heff_sd               =   7.2069300119265E-01
(PID.TID 0000.0001) %MON seaice_heff_del2             =   1.4037058170275E-03
(PID.TID 0000.0001) %MON seaice_hsnow_max             =   3.2860816971475E+00
(PID.TID 0000.0001) %MON seaice_hsnow_min             =   0.0000000000000E+00
(PID.TID 0000.0001) %MON seaice_hsnow_mean            =   1.2673810260950E-02
(PID.TID 0000.0001) %MON seaice_hsnow_sd              =   6.8512856225733E-02
(PID.TID 0000.0001) %MON seaice_hsnow_del2            =   3.8795790956794E-04
(PID.TID 0000.0001) // =======================================================
(PID.TID 0000.0001) // End MONITOR SEAICE statistics
(PID.TID 0000.0001) // =======================================================
(PID.TID 0000.0001) // =======================================================
(PID.TID 0000.0001) // Begin MONITOR dynamic field statistics
(PID.TID 0000.0001) // =======================================================
(PID.TID 0000.0001) %MON time_tsnumber                =                174773
(PID.TID 0000.0001) %MON time_secondsf                =   7.8647850000000E+07
(PID.TID 0000.0001) %MON dynstat_eta_max              =   2.1233510831238E+00
(PID.TID 0000.0001) %MON dynstat_eta_min              =  -1.1497948919899E+01
(PID.TID 0000.0001) %MON dynstat_eta_mean             =   7.0524219289653E-02
(PID.TID 0000.0001) %MON dynstat_eta_sd               =   8.4757413686368E-01
(PID.TID 0000.0001) %MON dynstat_eta_del2             =   2.0128643730757E-03
(PID.TID 0000.0001) %MON dynstat_uvel_max             =   2.2846372643506E+00
(PID.TID 0000.0001) %MON dynstat_uvel_min             =  -2.8345499324061E+00
(PID.TID 0000.0001) %MON dynstat_uvel_mean            =   3.7096712480351E-03
(PID.TID 0000.0001) %MON dynstat_uvel_sd              =   2.9414324357422E-02
(PID.TID 0000.0001) %MON dynstat_uvel_del2            =   3.5468142707112E-05
(PID.TID 0000.0001) %MON dynstat_vvel_max             =   2.1905696691503E+00
(PID.TID 0000.0001) %MON dynstat_vvel_min             =  -2.2033265412466E+00
(PID.TID 0000.0001) %MON dynstat_vvel_mean            =   2.4313174318260E-03
(PID.TID 0000.0001) %MON dynstat_vvel_sd              =   3.0299595533619E-02
(PID.TID 0000.0001) %MON dynstat_vvel_del2            =   3.3259836839117E-05
(PID.TID 0000.0001) %MON dynstat_wvel_max             =   6.9336374575500E-03
(PID.TID 0000.0001) %MON dynstat_wvel_min             =  -7.8891333324517E-03
(PID.TID 0000.0001) %MON dynstat_wvel_mean            =   8.2845127665565E-07
(PID.TID 0000.0001) %MON dynstat_wvel_sd              =   1.0432726264598E-04
(PID.TID 0000.0001) %MON dynstat_wvel_del2            =   2.4870443829047E-07
(PID.TID 0000.0001) %MON dynstat_theta_max            =   3.2416826337785E+01
(PID.TID 0000.0001) %MON dynstat_theta_min            =  -2.0373889700229E+00
(PID.TID 0000.0001) %MON dynstat_theta_mean           =   3.5921169608714E+00
(PID.TID 0000.0001) %MON dynstat_theta_sd             =   4.4421641828868E+00
(PID.TID 0000.0001) %MON dynstat_theta_del2           =   1.2366276692168E-04
(PID.TID 0000.0001) %MON dynstat_salt_max             =   4.0655991876359E+01
(PID.TID 0000.0001) %MON dynstat_salt_min             =   1.6071841734784E+01
(PID.TID 0000.0001) %MON dynstat_salt_mean            =   3.4724810211240E+01
(PID.TID 0000.0001) %MON dynstat_salt_sd              =   3.7968747010651E-01
(PID.TID 0000.0001) %MON dynstat_salt_del2            =   6.7584852435630E-05
(PID.TID 0000.0001) %MON dynstat_sst_max              =   3.2416826337785E+01
(PID.TID 0000.0001) %MON dynstat_sst_min              =  -2.0373889700229E+00
(PID.TID 0000.0001) %MON dynstat_sst_mean             =   1.8188141441588E+01
(PID.TID 0000.0001) %MON dynstat_sst_sd               =   1.0179110139002E+01
(PID.TID 0000.0001) %MON dynstat_sst_del2             =   1.1060394562106E-03
(PID.TID 0000.0001) %MON dynstat_sss_max              =   3.9467736869831E+01
(PID.TID 0000.0001) %MON dynstat_sss_min              =   1.6071841734784E+01
(PID.TID 0000.0001) %MON dynstat_sss_mean             =   3.4645210679526E+01
(PID.TID 0000.0001) %MON dynstat_sss_sd               =   1.2959633593628E+00
(PID.TID 0000.0001) %MON dynstat_sss_del2             =   1.4737665526116E-03
(PID.TID 0000.0001) %MON forcing_qnet_max             =   1.8960258789062E+03
(PID.TID 0000.0001) %MON forcing_qnet_min             =  -1.7244346923828E+03
(PID.TID 0000.0001) %MON forcing_qnet_mean            =  -3.8912342373088E+01
(PID.TID 0000.0001) %MON forcing_qnet_sd              =   2.2956667310896E+02
(PID.TID 0000.0001) %MON forcing_qnet_del2            =   4.7879645283257E-01
(PID.TID 0000.0001) %MON forcing_qsw_max              =   0.0000000000000E+00
(PID.TID 0000.0001) %MON forcing_qsw_min              =  -1.1060808415448E+02
(PID.TID 0000.0001) %MON forcing_qsw_mean             =  -2.4257195582476E+01
(PID.TID 0000.0001) %MON forcing_qsw_sd               =   3.3258059669808E+01
(PID.TID 0000.0001) %MON forcing_qsw_del2             =   2.1392639432686E-02
(PID.TID 0000.0001) %MON forcing_empmr_max            =   2.8573948889971E-02
(PID.TID 0000.0001) %MON forcing_empmr_min            =  -8.4561690688133E-02
(PID.TID 0000.0001) %MON forcing_empmr_mean           =   4.3220028093675E-06
(PID.TID 0000.0001) %MON forcing_empmr_sd             =   4.0338800747263E-04
(PID.TID 0000.0001) %MON forcing_empmr_del2           =   4.4578536284507E-06
(PID.TID 0000.0001) %MON forcing_fu_max               =   9.6923034517193E-01
(PID.TID 0000.0001) %MON forcing_fu_min               =  -9.1826160001792E-01
(PID.TID 0000.0001) %MON forcing_fu_mean              =   9.7922465803589E-03
(PID.TID 0000.0001) %MON forcing_fu_sd                =   1.2256701001730E-01
(PID.TID 0000.0001) %MON forcing_fu_del2              =   1.6222891109181E-04
(PID.TID 0000.0001) %MON forcing_fv_max               =   9.0557071566582E-01
(PID.TID 0000.0001) %MON forcing_fv_min               =  -1.7693563105814E+00
(PID.TID 0000.0001) %MON forcing_fv_mean              =  -8.0529861879044E-04
(PID.TID 0000.0001) %MON forcing_fv_sd                =   1.0711696695547E-01
(PID.TID 0000.0001) %MON forcing_fv_del2              =   1.5547312835751E-04
(PID.TID 0000.0001) %MON trAdv_CFL_u_max              =   2.9237415785532E-02
(PID.TID 0000.0001) %MON trAdv_CFL_v_max              =   2.2716188223490E-02
(PID.TID 0000.0001) %MON trAdv_CFL_w_max              =   1.0717835143182E-01
(PID.TID 0000.0001) %MON advcfl_uvel_max              =   2.9628506949545E-02
(PID.TID 0000.0001) %MON advcfl_vvel_max              =   2.2353281722027E-02
(PID.TID 0000.0001) %MON advcfl_wvel_max              =   1.0118902395413E-01
(PID.TID 0000.0001) %MON advcfl_W_hf_max              =   1.0717835143182E-01
(PID.TID 0000.0001) %MON pe_b_mean                    =   1.9195551005180E-03
(PID.TID 0000.0001) %MON ke_max                       =   2.8593883299950E+00
(PID.TID 0000.0001) %MON ke_mean                      =   8.6936530850435E-04
(PID.TID 0000.0001) %MON ke_vol                       =   1.3350064351420E+18
(PID.TID 0000.0001) %MON vort_r_min                   =  -9.9064556032097E-05
(PID.TID 0000.0001) %MON vort_r_max                   =   1.0854444844465E-04
(PID.TID 0000.0001) %MON vort_a_mean                  =  -1.9725073847783E-05
(PID.TID 0000.0001) %MON vort_a_sd                    =   7.4539443361110E-05
(PID.TID 0000.0001) %MON vort_p_mean                  =  -2.1669078509069E-05
(PID.TID 0000.0001) %MON vort_p_sd                    =   9.3608700913968E-05
(PID.TID 0000.0001) %MON surfExpan_theta_mean         =   2.5201892246379E-05
(PID.TID 0000.0001) %MON surfExpan_salt_mean          =   3.2318180539323E-05
(PID.TID 0000.0001) // =======================================================
(PID.TID 0000.0001) // End MONITOR dynamic field statistics
(PID.TID 0000.0001) // =======================================================
(PID.TID 0000.0001) // =======================================================
(PID.TID 0000.0001) // Begin MONITOR SEAICE statistics
(PID.TID 0000.0001) // =======================================================
(PID.TID 0000.0001) %MON seaice_tsnumber              =                174773
(PID.TID 0000.0001) %MON seaice_time_sec              =   7.8647850000000E+07
(PID.TID 0000.0001) %MON seaice_uice_max              =   1.4824700084965E+00
(PID.TID 0000.0001) %MON seaice_uice_min              =  -1.2893539213533E+00
(PID.TID 0000.0001) %MON seaice_uice_mean             =   1.0824990585096E-03
(PID.TID 0000.0001) %MON seaice_uice_sd               =   1.5318087235769E-01
(PID.TID 0000.0001) %MON seaice_uice_del2             =   3.4000631547306E-04
(PID.TID 0000.0001) %MON seaice_vice_max              =   9.8958863666420E-01
(PID.TID 0000.0001) %MON seaice_vice_min              =  -1.4685589454297E+00
(PID.TID 0000.0001) %MON seaice_vice_mean             =  -2.2627997483405E-02
(PID.TID 0000.0001) %MON seaice_vice_sd               =   1.6726974267056E-01
(PID.TID 0000.0001) %MON seaice_vice_del2             =   3.1846152728983E-04
(PID.TID 0000.0001) %MON seaice_area_max              =   1.0069155421782E+00
(PID.TID 0000.0001) %MON seaice_area_min              =   0.0000000000000E+00
(PID.TID 0000.0001) %MON seaice_area_mean             =   5.7410175437642E-02
(PID.TID 0000.0001) %MON seaice_area_sd               =   2.2121803286412E-01
(PID.TID 0000.0001) %MON seaice_area_del2             =   2.9631731109399E-04
(PID.TID 0000.0001) %MON seaice_heff_max              =   9.9486716898142E+00
(PID.TID 0000.0001) %MON seaice_heff_min              =   0.0000000000000E+00
(PID.TID 0000.0001) %MON seaice_heff_mean             =   1.4976573034413E-01
(PID.TID 0000.0001) %MON seaice_heff_sd               =   7.2068255854148E-01
(PID.TID 0000.0001) %MON seaice_heff_del2             =   1.4029162569191E-03
(PID.TID 0000.0001) %MON seaice_hsnow_max             =   3.2860761825027E+00
(PID.TID 0000.0001) %MON seaice_hsnow_min             =   0.0000000000000E+00
(PID.TID 0000.0001) %MON seaice_hsnow_mean            =   1.2673059165793E-02
(PID.TID 0000.0001) %MON seaice_hsnow_sd              =   6.8505846488617E-02
(PID.TID 0000.0001) %MON seaice_hsnow_del2            =   3.8767703607141E-04
(PID.TID 0000.0001) // =======================================================
(PID.TID 0000.0001) // End MONITOR SEAICE statistics
(PID.TID 0000.0001) // =======================================================
(PID.TID 0000.0001) // =======================================================
(PID.TID 0000.0001) // Begin MONITOR dynamic field statistics
(PID.TID 0000.0001) // =======================================================
(PID.TID 0000.0001) %MON time_tsnumber                =                174774
(PID.TID 0000.0001) %MON time_secondsf                =   7.8648300000000E+07
(PID.TID 0000.0001) %MON dynstat_eta_max              =   2.0527449452265E+00
(PID.TID 0000.0001) %MON dynstat_eta_min              =  -1.1485721174378E+01
(PID.TID 0000.0001) %MON dynstat_eta_mean             =   7.0962796040069E-02
(PID.TID 0000.0001) %MON dynstat_eta_sd               =   8.4799317430514E-01
(PID.TID 0000.0001) %MON dynstat_eta_del2             =   2.0126301578785E-03
(PID.TID 0000.0001) %MON dynstat_uvel_max             =   2.2919111324197E+00
(PID.TID 0000.0001) %MON dynstat_uvel_min             =  -2.8326100639000E+00
(PID.TID 0000.0001) %MON dynstat_uvel_mean            =   3.7834319723213E-03
(PID.TID 0000.0001) %MON dynstat_uvel_sd              =   2.9434104502467E-02
(PID.TID 0000.0001) %MON dynstat_uvel_del2            =   3.5512749695031E-05
(PID.TID 0000.0001) %MON dynstat_vvel_max             =   2.1885250131095E+00
(PID.TID 0000.0001) %MON dynstat_vvel_min             =  -2.2061901938849E+00
(PID.TID 0000.0001) %MON dynstat_vvel_mean            =   2.4335604675579E-03
(PID.TID 0000.0001) %MON dynstat_vvel_sd              =   3.0303528361683E-02
(PID.TID 0000.0001) %MON dynstat_vvel_del2            =   3.3308293133317E-05
(PID.TID 0000.0001) %MON dynstat_wvel_max             =   6.9493221427225E-03
(PID.TID 0000.0001) %MON dynstat_wvel_min             =  -7.8961324754189E-03
(PID.TID 0000.0001) %MON dynstat_wvel_mean            =   8.4021382134883E-07
(PID.TID 0000.0001) %MON dynstat_wvel_sd              =   1.0463252350473E-04
(PID.TID 0000.0001) %MON dynstat_wvel_del2            =   2.4943684148268E-07
(PID.TID 0000.0001) %MON dynstat_theta_max            =   3.2414918500041E+01
(PID.TID 0000.0001) %MON dynstat_theta_min            =  -2.0373132097429E+00
(PID.TID 0000.0001) %MON dynstat_theta_mean           =   3.5921151441767E+00
(PID.TID 0000.0001) %MON dynstat_theta_sd             =   4.4421597050075E+00
(PID.TID 0000.0001) %MON dynstat_theta_del2           =   1.2370815478932E-04
(PID.TID 0000.0001) %MON dynstat_salt_max             =   4.0655991876266E+01
(PID.TID 0000.0001) %MON dynstat_salt_min             =   1.6070393437839E+01
(PID.TID 0000.0001) %MON dynstat_salt_mean            =   3.4724810181912E+01
(PID.TID 0000.0001) %MON dynstat_salt_sd              =   3.7968793946658E-01
(PID.TID 0000.0001) %MON dynstat_salt_del2            =   6.7530408675540E-05
(PID.TID 0000.0001) %MON dynstat_sst_max              =   3.2414918500041E+01
(PID.TID 0000.0001) %MON dynstat_sst_min              =  -2.0373132097429E+00
(PID.TID 0000.0001) %MON dynstat_sst_mean             =   1.8188366756713E+01
(PID.TID 0000.0001) %MON dynstat_sst_sd               =   1.0179550583350E+01
(PID.TID 0000.0001) %MON dynstat_sst_del2             =   1.1057693434666E-03
(PID.TID 0000.0001) %MON dynstat_sss_max              =   3.9467419118631E+01
(PID.TID 0000.0001) %MON dynstat_sss_min              =   1.6070393437839E+01
(PID.TID 0000.0001) %MON dynstat_sss_mean             =   3.4645167806258E+01
(PID.TID 0000.0001) %MON dynstat_sss_sd               =   1.2960463009023E+00
(PID.TID 0000.0001) %MON dynstat_sss_del2             =   1.4738879292002E-03
(PID.TID 0000.0001) %MON forcing_qnet_max             =   1.2272414062500E+04
(PID.TID 0000.0001) %MON forcing_qnet_min             =  -9.5182094781293E+02
(PID.TID 0000.0001) %MON forcing_qnet_mean            =  -3.8966592823096E+01
(PID.TID 0000.0001) %MON forcing_qnet_sd              =   2.3583936397996E+02
(PID.TID 0000.0001) %MON forcing_qnet_del2            =   6.9963169754072E-01
(PID.TID 0000.0001) %MON forcing_qsw_max              =   0.0000000000000E+00
(PID.TID 0000.0001) %MON forcing_qsw_min              =  -1.1088792493709E+02
(PID.TID 0000.0001) %MON forcing_qsw_mean             =  -2.4212711442253E+01
(PID.TID 0000.0001) %MON forcing_qsw_sd               =   3.3233699856098E+01
(PID.TID 0000.0001) %MON forcing_qsw_del2             =   2.1537183624955E-02
(PID.TID 0000.0001) %MON forcing_empmr_max            =   1.9262641668320E-01
(PID.TID 0000.0001) %MON forcing_empmr_min            =  -7.2718843817711E-02
(PID.TID 0000.0001) %MON forcing_empmr_mean           =   8.2588661422938E-06
(PID.TID 0000.0001) %MON forcing_empmr_sd             =   9.8778830231764E-04
(PID.TID 0000.0001) %MON forcing_empmr_del2           =   9.3091252160357E-06
(PID.TID 0000.0001) %MON forcing_fu_max               =   9.7553122638037E-01
(PID.TID 0000.0001) %MON forcing_fu_min               =  -9.2509562960109E-01
(PID.TID 0000.0001) %MON forcing_fu_mean              =   9.8414911548533E-03
(PID.TID 0000.0001) %MON forcing_fu_sd                =   1.2264526947767E-01
(PID.TID 0000.0001) %MON forcing_fu_del2              =   1.6221405156093E-04
(PID.TID 0000.0001) %MON forcing_fv_max               =   9.0094441175461E-01
(PID.TID 0000.0001) %MON forcing_fv_min               =  -1.7817195097852E+00
(PID.TID 0000.0001) %MON forcing_fv_mean              =  -7.9615984810876E-04
(PID.TID 0000.0001) %MON forcing_fv_sd                =   1.0717682273925E-01
(PID.TID 0000.0001) %MON forcing_fv_del2              =   1.5534755944210E-04
(PID.TID 0000.0001) %MON trAdv_CFL_u_max              =   2.9217406703513E-02
(PID.TID 0000.0001) %MON trAdv_CFL_v_max              =   2.2669238821966E-02
(PID.TID 0000.0001) %MON trAdv_CFL_w_max              =   1.0719887613536E-01
(PID.TID 0000.0001) %MON advcfl_uvel_max              =   2.9608230218182E-02
(PID.TID 0000.0001) %MON advcfl_vvel_max              =   2.2307082369010E-02
(PID.TID 0000.0001) %MON advcfl_wvel_max              =   1.0121783888429E-01
(PID.TID 0000.0001) %MON advcfl_W_hf_max              =   1.0719887613536E-01
(PID.TID 0000.0001) %MON pe_b_mean                    =   1.9312799804929E-03
(PID.TID 0000.0001) %MON ke_max                       =   2.8558327426511E+00
(PID.TID 0000.0001) %MON ke_mean                      =   8.7031318479566E-04
(PID.TID 0000.0001) %MON ke_vol                       =   1.3350064351420E+18
(PID.TID 0000.0001) %MON vort_r_min                   =  -9.8973248480238E-05
(PID.TID 0000.0001) %MON vort_r_max                   =   1.0847906379035E-04
(PID.TID 0000.0001) %MON vort_a_mean                  =  -1.9725074135596E-05
(PID.TID 0000.0001) %MON vort_a_sd                    =   7.4539450608186E-05
(PID.TID 0000.0001) %MON vort_p_mean                  =  -2.1669078825248E-05
(PID.TID 0000.0001) %MON vort_p_sd                    =   9.3608757228890E-05
(PID.TID 0000.0001) %MON surfExpan_theta_mean         =   2.5919340853423E-05
(PID.TID 0000.0001) %MON surfExpan_salt_mean          =   3.3013830898101E-05
(PID.TID 0000.0001) // =======================================================
(PID.TID 0000.0001) // End MONITOR dynamic field statistics
(PID.TID 0000.0001) // =======================================================
(PID.TID 0000.0001) // =======================================================
(PID.TID 0000.0001) // Begin MONITOR SEAICE statistics
(PID.TID 0000.0001) // =======================================================
(PID.TID 0000.0001) %MON seaice_tsnumber              =                174774
(PID.TID 0000.0001) %MON seaice_time_sec              =   7.8648300000000E+07
(PID.TID 0000.0001) %MON seaice_uice_max              =   1.4855234809463E+00
(PID.TID 0000.0001) %MON seaice_uice_min              =  -1.2839414649739E+00
(PID.TID 0000.0001) %MON seaice_uice_mean             =   1.2106032255504E-03
(PID.TID 0000.0001) %MON seaice_uice_sd               =   1.5321384365451E-01
(PID.TID 0000.0001) %MON seaice_uice_del2             =   3.4010962521805E-04
(PID.TID 0000.0001) %MON seaice_vice_max              =   9.4235617894694E-01
(PID.TID 0000.0001) %MON seaice_vice_min              =  -1.4691616975987E+00
(PID.TID 0000.0001) %MON seaice_vice_mean             =  -2.2684725673783E-02
(PID.TID 0000.0001) %MON seaice_vice_sd               =   1.6737930081496E-01
(PID.TID 0000.0001) %MON seaice_vice_del2             =   3.1879451906732E-04
(PID.TID 0000.0001) %MON seaice_area_max              =   1.0064298039447E+00
(PID.TID 0000.0001) %MON seaice_area_min              =   0.0000000000000E+00
(PID.TID 0000.0001) %MON seaice_area_mean             =   5.7411932056167E-02
(PID.TID 0000.0001) %MON seaice_area_sd               =   2.2121294209604E-01
(PID.TID 0000.0001) %MON seaice_area_del2             =   2.9611952935907E-04
(PID.TID 0000.0001) %MON seaice_heff_max              =   9.9486555088048E+00
(PID.TID 0000.0001) %MON seaice_heff_min              =   0.0000000000000E+00
(PID.TID 0000.0001) %MON seaice_heff_mean             =   1.4976190585478E-01
(PID.TID 0000.0001) %MON seaice_heff_sd               =   7.2067216952205E-01
(PID.TID 0000.0001) %MON seaice_heff_del2             =   1.4021271391003E-03
(PID.TID 0000.0001) %MON seaice_hsnow_max             =   3.2860709000815E+00
(PID.TID 0000.0001) %MON seaice_hsnow_min             =   0.0000000000000E+00
(PID.TID 0000.0001) %MON seaice_hsnow_mean            =   1.2672317707705E-02
(PID.TID 0000.0001) %MON seaice_hsnow_sd              =   6.8498895251854E-02
(PID.TID 0000.0001) %MON seaice_hsnow_del2            =   3.8739451592725E-04
(PID.TID 0000.0001) // =======================================================
(PID.TID 0000.0001) // End MONITOR SEAICE statistics
(PID.TID 0000.0001) // =======================================================
(PID.TID 0000.0001) // =======================================================
(PID.TID 0000.0001) // Begin MONITOR dynamic field statistics
(PID.TID 0000.0001) // =======================================================
(PID.TID 0000.0001) %MON time_tsnumber                =                174775
(PID.TID 0000.0001) %MON time_secondsf                =   7.8648750000000E+07
(PID.TID 0000.0001) %MON dynstat_eta_max              =   2.0922588040569E+00
(PID.TID 0000.0001) %MON dynstat_eta_min              =  -1.1469357990095E+01
(PID.TID 0000.0001) %MON dynstat_eta_mean             =   7.1410674248584E-02
(PID.TID 0000.0001) %MON dynstat_eta_sd               =   8.4845041467888E-01
(PID.TID 0000.0001) %MON dynstat_eta_del2             =   2.0123670888672E-03
(PID.TID 0000.0001) %MON dynstat_uvel_max             =   2.2988495744196E+00
(PID.TID 0000.0001) %MON dynstat_uvel_min             =  -2.8306660481402E+00
(PID.TID 0000.0001) %MON dynstat_uvel_mean            =   3.8521165608083E-03
(PID.TID 0000.0001) %MON dynstat_uvel_sd              =   2.9454228261511E-02
(PID.TID 0000.0001) %MON dynstat_uvel_del2            =   3.5555445549996E-05
(PID.TID 0000.0001) %MON dynstat_vvel_max             =   2.1858691664988E+00
(PID.TID 0000.0001) %MON dynstat_vvel_min             =  -2.2090715889856E+00
(PID.TID 0000.0001) %MON dynstat_vvel_mean            =   2.4358597108428E-03
(PID.TID 0000.0001) %MON dynstat_vvel_sd              =   3.0309719761203E-02
(PID.TID 0000.0001) %MON dynstat_vvel_del2            =   3.3353225749396E-05
(PID.TID 0000.0001) %MON dynstat_wvel_max             =   6.9650329831810E-03
(PID.TID 0000.0001) %MON dynstat_wvel_min             =  -7.9024139662311E-03
(PID.TID 0000.0001) %MON dynstat_wvel_mean            =   8.5076585301328E-07
(PID.TID 0000.0001) %MON dynstat_wvel_sd              =   1.0493702025753E-04
(PID.TID 0000.0001) %MON dynstat_wvel_del2            =   2.5016379689695E-07
(PID.TID 0000.0001) %MON dynstat_theta_max            =   3.2413254952593E+01
(PID.TID 0000.0001) %MON dynstat_theta_min            =  -2.0372413976828E+00
(PID.TID 0000.0001) %MON dynstat_theta_mean           =   3.5921132345756E+00
(PID.TID 0000.0001) %MON dynstat_theta_sd             =   4.4421549764525E+00
(PID.TID 0000.0001) %MON dynstat_theta_del2           =   1.2375276428990E-04
(PID.TID 0000.0001) %MON dynstat_salt_max             =   4.0655991876173E+01
(PID.TID 0000.0001) %MON dynstat_salt_min             =   1.6068987807252E+01
(PID.TID 0000.0001) %MON dynstat_salt_mean            =   3.4724810150794E+01
(PID.TID 0000.0001) %MON dynstat_salt_sd              =   3.7968844561380E-01
(PID.TID 0000.0001) %MON dynstat_salt_del2            =   6.7474776155978E-05
(PID.TID 0000.0001) %MON dynstat_sst_max              =   3.2413254952593E+01
(PID.TID 0000.0001) %MON dynstat_sst_min              =  -2.0372413976828E+00
(PID.TID 0000.0001) %MON dynstat_sst_mean             =   1.8188576688638E+01
(PID.TID 0000.0001) %MON dynstat_sst_sd               =   1.0179988286202E+01
(PID.TID 0000.0001) %MON dynstat_sst_del2             =   1.1055187537958E-03
(PID.TID 0000.0001) %MON dynstat_sss_max              =   3.9467116645446E+01
(PID.TID 0000.0001) %MON dynstat_sss_min              =   1.6068987807252E+01
(PID.TID 0000.0001) %MON dynstat_sss_mean             =   3.4645126352676E+01
(PID.TID 0000.0001) %MON dynstat_sss_sd               =   1.2961307522665E+00
(PID.TID 0000.0001) %MON dynstat_sss_del2             =   1.4739686213112E-03
(PID.TID 0000.0001) %MON forcing_qnet_max             =   2.0480451660156E+03
(PID.TID 0000.0001) %MON forcing_qnet_min             =  -1.2704007891930E+03
(PID.TID 0000.0001) %MON forcing_qnet_mean            =  -3.8804851233822E+01
(PID.TID 0000.0001) %MON forcing_qnet_sd              =   2.2802587928295E+02
(PID.TID 0000.0001) %MON forcing_qnet_del2            =   4.7617435560568E-01
(PID.TID 0000.0001) %MON forcing_qsw_max              =   0.0000000000000E+00
(PID.TID 0000.0001) %MON forcing_qsw_min              =  -1.1105413763212E+02
(PID.TID 0000.0001) %MON forcing_qsw_mean             =  -2.4148924264697E+01
(PID.TID 0000.0001) %MON forcing_qsw_sd               =   3.3195271748601E+01
(PID.TID 0000.0001) %MON forcing_qsw_del2             =   2.1675299682832E-02
(PID.TID 0000.0001) %MON forcing_empmr_max            =   2.2681772708893E-02
(PID.TID 0000.0001) %MON forcing_empmr_min            =  -6.9060392677784E-02
(PID.TID 0000.0001) %MON forcing_empmr_mean           =   4.5232869173932E-06
(PID.TID 0000.0001) %MON forcing_empmr_sd             =   3.7842237475293E-04
(PID.TID 0000.0001) %MON forcing_empmr_del2           =   4.2026197417391E-06
(PID.TID 0000.0001) %MON forcing_fu_max               =   9.7733484985986E-01
(PID.TID 0000.0001) %MON forcing_fu_min               =  -9.2890337034813E-01
(PID.TID 0000.0001) %MON forcing_fu_mean              =   9.8967962439572E-03
(PID.TID 0000.0001) %MON forcing_fu_sd                =   1.2270910782790E-01
(PID.TID 0000.0001) %MON forcing_fu_del2              =   1.6230166166803E-04
(PID.TID 0000.0001) %MON forcing_fv_max               =   9.0093231201172E-01
(PID.TID 0000.0001) %MON forcing_fv_min               =  -1.7930004262978E+00
(PID.TID 0000.0001) %MON forcing_fv_mean              =  -7.9441465679439E-04
(PID.TID 0000.0001) %MON forcing_fv_sd                =   1.0721810367399E-01
(PID.TID 0000.0001) %MON forcing_fv_del2              =   1.5538538676154E-04
(PID.TID 0000.0001) %MON trAdv_CFL_u_max              =   2.9197354843988E-02
(PID.TID 0000.0001) %MON trAdv_CFL_v_max              =   2.2621276165599E-02
(PID.TID 0000.0001) %MON trAdv_CFL_w_max              =   1.0721184606136E-01
(PID.TID 0000.0001) %MON advcfl_uvel_max              =   2.9587910137103E-02
(PID.TID 0000.0001) %MON advcfl_vvel_max              =   2.2259885948582E-02
(PID.TID 0000.0001) %MON advcfl_wvel_max              =   1.0123967417346E-01
(PID.TID 0000.0001) %MON advcfl_W_hf_max              =   1.0721184606136E-01
(PID.TID 0000.0001) %MON pe_b_mean                    =   1.9433319848566E-03
(PID.TID 0000.0001) %MON ke_max                       =   2.8523160388893E+00
(PID.TID 0000.0001) %MON ke_mean                      =   8.7132375292387E-04
(PID.TID 0000.0001) %MON ke_vol                       =   1.3350064351420E+18
(PID.TID 0000.0001) %MON vort_r_min                   =  -9.8886497430396E-05
(PID.TID 0000.0001) %MON vort_r_max                   =   1.0841464242670E-04
(PID.TID 0000.0001) %MON vort_a_mean                  =  -1.9725074423963E-05
(PID.TID 0000.0001) %MON vort_a_sd                    =   7.4539457459610E-05
(PID.TID 0000.0001) %MON vort_p_mean                  =  -2.1669079142034E-05
(PID.TID 0000.0001) %MON vort_p_sd                    =   9.3608811484285E-05
(PID.TID 0000.0001) %MON surfExpan_theta_mean         =   2.6601460898767E-05
(PID.TID 0000.0001) %MON surfExpan_salt_mean          =   3.3664012449575E-05
(PID.TID 0000.0001) // =======================================================
(PID.TID 0000.0001) // End MONITOR dynamic field statistics
(PID.TID 0000.0001) // =======================================================
(PID.TID 0000.0001) // =======================================================
(PID.TID 0000.0001) // Begin MONITOR SEAICE statistics
(PID.TID 0000.0001) // =======================================================
(PID.TID 0000.0001) %MON seaice_tsnumber              =                174775
(PID.TID 0000.0001) %MON seaice_time_sec              =   7.8648750000000E+07
(PID.TID 0000.0001) %MON seaice_uice_max              =   1.4884563268999E+00
(PID.TID 0000.0001) %MON seaice_uice_min              =  -1.2804710643891E+00
(PID.TID 0000.0001) %MON seaice_uice_mean             =   1.3378900474957E-03
(PID.TID 0000.0001) %MON seaice_uice_sd               =   1.5325639356179E-01
(PID.TID 0000.0001) %MON seaice_uice_del2             =   3.4021932226665E-04
(PID.TID 0000.0001) %MON seaice_vice_max              =   9.2759724743669E-01
(PID.TID 0000.0001) %MON seaice_vice_min              =  -1.4697803314832E+00
(PID.TID 0000.0001) %MON seaice_vice_mean             =  -2.2747433463034E-02
(PID.TID 0000.0001) %MON seaice_vice_sd               =   1.6749341618435E-01
(PID.TID 0000.0001) %MON seaice_vice_del2             =   3.1918723131018E-04
(PID.TID 0000.0001) %MON seaice_area_max              =   1.0059937424240E+00
(PID.TID 0000.0001) %MON seaice_area_min              =   0.0000000000000E+00
(PID.TID 0000.0001) %MON seaice_area_mean             =   5.7413658443515E-02
(PID.TID 0000.0001) %MON seaice_area_sd               =   2.2120774268253E-01
(PID.TID 0000.0001) %MON seaice_area_del2             =   2.9591949885230E-04
(PID.TID 0000.0001) %MON seaice_heff_max              =   9.9486412295647E+00
(PID.TID 0000.0001) %MON seaice_heff_min              =   0.0000000000000E+00
(PID.TID 0000.0001) %MON seaice_heff_mean             =   1.4975809006286E-01
(PID.TID 0000.0001) %MON seaice_heff_sd               =   7.2066181558852E-01
(PID.TID 0000.0001) %MON seaice_heff_del2             =   1.4013359314684E-03
(PID.TID 0000.0001) %MON seaice_hsnow_max             =   3.2860661107649E+00
(PID.TID 0000.0001) %MON seaice_hsnow_min             =   0.0000000000000E+00
(PID.TID 0000.0001) %MON seaice_hsnow_mean            =   1.2671566678403E-02
(PID.TID 0000.0001) %MON seaice_hsnow_sd              =   6.8491934593445E-02
(PID.TID 0000.0001) %MON seaice_hsnow_del2            =   3.8710952286139E-04
(PID.TID 0000.0001) // =======================================================
(PID.TID 0000.0001) // End MONITOR SEAICE statistics
(PID.TID 0000.0001) // =======================================================
(PID.TID 0000.0001) // =======================================================
(PID.TID 0000.0001) // Begin MONITOR dynamic field statistics
(PID.TID 0000.0001) // =======================================================
(PID.TID 0000.0001) %MON time_tsnumber                =                174776
(PID.TID 0000.0001) %MON time_secondsf                =   7.8649200000000E+07
(PID.TID 0000.0001) %MON dynstat_eta_max              =   2.1358728741757E+00
(PID.TID 0000.0001) %MON dynstat_eta_min              =  -1.1448855916925E+01
(PID.TID 0000.0001) %MON dynstat_eta_mean             =   7.1865307314838E-02
(PID.TID 0000.0001) %MON dynstat_eta_sd               =   8.4894750784230E-01
(PID.TID 0000.0001) %MON dynstat_eta_del2             =   2.0120904716208E-03
(PID.TID 0000.0001) %MON dynstat_uvel_max             =   2.3054279221008E+00
(PID.TID 0000.0001) %MON dynstat_uvel_min             =  -2.8286971646257E+00
(PID.TID 0000.0001) %MON dynstat_uvel_mean            =   3.9155372914190E-03
(PID.TID 0000.0001) %MON dynstat_uvel_sd              =   2.9474734263877E-02
(PID.TID 0000.0001) %MON dynstat_uvel_del2            =   3.5598551464947E-05
(PID.TID 0000.0001) %MON dynstat_vvel_max             =   2.1826256329680E+00
(PID.TID 0000.0001) %MON dynstat_vvel_min             =  -2.2119729123807E+00
(PID.TID 0000.0001) %MON dynstat_vvel_mean            =   2.4383302000952E-03
(PID.TID 0000.0001) %MON dynstat_vvel_sd              =   3.0318371248074E-02
(PID.TID 0000.0001) %MON dynstat_vvel_del2            =   3.3399970026694E-05
(PID.TID 0000.0001) %MON dynstat_wvel_max             =   6.9807869649065E-03
(PID.TID 0000.0001) %MON dynstat_wvel_min             =  -7.9078536288249E-03
(PID.TID 0000.0001) %MON dynstat_wvel_mean            =   8.5972464064561E-07
(PID.TID 0000.0001) %MON dynstat_wvel_sd              =   1.0524081274791E-04
(PID.TID 0000.0001) %MON dynstat_wvel_del2            =   2.5088611324987E-07
(PID.TID 0000.0001) %MON dynstat_theta_max            =   3.2411827393898E+01
(PID.TID 0000.0001) %MON dynstat_theta_min            =  -2.0371770109427E+00
(PID.TID 0000.0001) %MON dynstat_theta_mean           =   3.5921112429951E+00
(PID.TID 0000.0001) %MON dynstat_theta_sd             =   4.4421500586360E+00
(PID.TID 0000.0001) %MON dynstat_theta_del2           =   1.2379723517870E-04
(PID.TID 0000.0001) %MON dynstat_salt_max             =   4.0655991876080E+01
(PID.TID 0000.0001) %MON dynstat_salt_min             =   1.6067627017435E+01
(PID.TID 0000.0001) %MON dynstat_salt_mean            =   3.4724810111574E+01
(PID.TID 0000.0001) %MON dynstat_salt_sd              =   3.7968897592290E-01
(PID.TID 0000.0001) %MON dynstat_salt_del2            =   6.7420086965798E-05
(PID.TID 0000.0001) %MON dynstat_sst_max              =   3.2411827393898E+01
(PID.TID 0000.0001) %MON dynstat_sst_min              =  -2.0371770109427E+00
(PID.TID 0000.0001) %MON dynstat_sst_mean             =   1.8188783077616E+01
(PID.TID 0000.0001) %MON dynstat_sst_sd               =   1.0180429637051E+01
(PID.TID 0000.0001) %MON dynstat_sst_del2             =   1.1052425694984E-03
(PID.TID 0000.0001) %MON dynstat_sss_max              =   3.9466829817937E+01
(PID.TID 0000.0001) %MON dynstat_sss_min              =   1.6067627017435E+01
(PID.TID 0000.0001) %MON dynstat_sss_mean             =   3.4645084747037E+01
(PID.TID 0000.0001) %MON dynstat_sss_sd               =   1.2962144374144E+00
(PID.TID 0000.0001) %MON dynstat_sss_del2             =   1.4740117879811E-03
(PID.TID 0000.0001) %MON forcing_qnet_max             =   1.8892357177734E+03
(PID.TID 0000.0001) %MON forcing_qnet_min             =  -2.2046782226562E+03
(PID.TID 0000.0001) %MON forcing_qnet_mean            =  -3.8587660404790E+01
(PID.TID 0000.0001) %MON forcing_qnet_sd              =   2.2721931292938E+02
(PID.TID 0000.0001) %MON forcing_qnet_del2            =   4.8953485854695E-01
(PID.TID 0000.0001) %MON forcing_qsw_max              =   0.0000000000000E+00
(PID.TID 0000.0001) %MON forcing_qsw_min              =  -1.1114403959973E+02
(PID.TID 0000.0001) %MON forcing_qsw_mean             =  -2.4067065344405E+01
(PID.TID 0000.0001) %MON forcing_qsw_sd               =   3.3142113963407E+01
(PID.TID 0000.0001) %MON forcing_qsw_del2             =   2.1806534279797E-02
(PID.TID 0000.0001) %MON forcing_empmr_max            =   1.4084744267166E-02
(PID.TID 0000.0001) %MON forcing_empmr_min            =  -6.4412564039230E-02
(PID.TID 0000.0001) %MON forcing_empmr_mean           =   3.9038773968823E-06
(PID.TID 0000.0001) %MON forcing_empmr_sd             =   3.6147884505979E-04
(PID.TID 0000.0001) %MON forcing_empmr_del2           =   4.0718676706342E-06
(PID.TID 0000.0001) %MON forcing_fu_max               =   9.7544559130433E-01
(PID.TID 0000.0001) %MON forcing_fu_min               =  -9.3544003580151E-01
(PID.TID 0000.0001) %MON forcing_fu_mean              =   9.9509667889159E-03
(PID.TID 0000.0001) %MON forcing_fu_sd                =   1.2278315098309E-01
(PID.TID 0000.0001) %MON forcing_fu_del2              =   1.6252847446516E-04
(PID.TID 0000.0001) %MON forcing_fv_max               =   8.9436963200569E-01
(PID.TID 0000.0001) %MON forcing_fv_min               =  -1.8035308894764E+00
(PID.TID 0000.0001) %MON forcing_fv_mean              =  -7.9833567326414E-04
(PID.TID 0000.0001) %MON forcing_fv_sd                =   1.0723036065705E-01
(PID.TID 0000.0001) %MON forcing_fv_del2              =   1.5517522394449E-04
(PID.TID 0000.0001) %MON trAdv_CFL_u_max              =   2.9177046482054E-02
(PID.TID 0000.0001) %MON trAdv_CFL_v_max              =   2.2572253153052E-02
(PID.TID 0000.0001) %MON trAdv_CFL_w_max              =   1.0721415798934E-01
(PID.TID 0000.0001) %MON advcfl_uvel_max              =   2.9567330122539E-02
(PID.TID 0000.0001) %MON advcfl_vvel_max              =   2.2211646111884E-02
(PID.TID 0000.0001) %MON advcfl_wvel_max              =   1.0125144601081E-01
(PID.TID 0000.0001) %MON advcfl_W_hf_max              =   1.0721415798934E-01
(PID.TID 0000.0001) %MON pe_b_mean                    =   1.9556481647593E-03
(PID.TID 0000.0001) %MON ke_max                       =   2.8487945969325E+00
(PID.TID 0000.0001) %MON ke_mean                      =   8.7240261772410E-04
(PID.TID 0000.0001) %MON ke_vol                       =   1.3350064351420E+18
(PID.TID 0000.0001) %MON vort_r_min                   =  -9.8803216919828E-05
(PID.TID 0000.0001) %MON vort_r_max                   =   1.0835034469886E-04
(PID.TID 0000.0001) %MON vort_a_mean                  =  -1.9725074710393E-05
(PID.TID 0000.0001) %MON vort_a_sd                    =   7.4539463979824E-05
(PID.TID 0000.0001) %MON vort_p_mean                  =  -2.1669079456694E-05
(PID.TID 0000.0001) %MON vort_p_sd                    =   9.3608865188197E-05
(PID.TID 0000.0001) %MON surfExpan_theta_mean         =   2.7235590407042E-05
(PID.TID 0000.0001) %MON surfExpan_salt_mean          =   3.4241798130528E-05
(PID.TID 0000.0001) // =======================================================
(PID.TID 0000.0001) // End MONITOR dynamic field statistics
(PID.TID 0000.0001) // =======================================================
(PID.TID 0000.0001) // =======================================================
(PID.TID 0000.0001) // Begin MONITOR SEAICE statistics
(PID.TID 0000.0001) // =======================================================
(PID.TID 0000.0001) %MON seaice_tsnumber              =                174776
(PID.TID 0000.0001) %MON seaice_time_sec              =   7.8649200000000E+07
(PID.TID 0000.0001) %MON seaice_uice_max              =   1.4912190539541E+00
(PID.TID 0000.0001) %MON seaice_uice_min              =  -1.2773232274482E+00
(PID.TID 0000.0001) %MON seaice_uice_mean             =   1.4623562628186E-03
(PID.TID 0000.0001) %MON seaice_uice_sd               =   1.5330577101294E-01
(PID.TID 0000.0001) %MON seaice_uice_del2             =   3.4044993167243E-04
(PID.TID 0000.0001) %MON seaice_vice_max              =   9.0920659075066E-01
(PID.TID 0000.0001) %MON seaice_vice_min              =  -1.4704132095592E+00
(PID.TID 0000.0001) %MON seaice_vice_mean             =  -2.2807487231688E-02
(PID.TID 0000.0001) %MON seaice_vice_sd               =   1.6760335404373E-01
(PID.TID 0000.0001) %MON seaice_vice_del2             =   3.1956095828987E-04
(PID.TID 0000.0001) %MON seaice_area_max              =   1.0055903111114E+00
(PID.TID 0000.0001) %MON seaice_area_min              =   0.0000000000000E+00
(PID.TID 0000.0001) %MON seaice_area_mean             =   5.7415339458394E-02
(PID.TID 0000.0001) %MON seaice_area_sd               =   2.2120239832792E-01
(PID.TID 0000.0001) %MON seaice_area_del2             =   2.9571820890072E-04
(PID.TID 0000.0001) %MON seaice_heff_max              =   9.9486250447718E+00
(PID.TID 0000.0001) %MON seaice_heff_min              =   0.0000000000000E+00
(PID.TID 0000.0001) %MON seaice_heff_mean             =   1.4975428357140E-01
(PID.TID 0000.0001) %MON seaice_heff_sd               =   7.2065153087477E-01
(PID.TID 0000.0001) %MON seaice_heff_del2             =   1.4005442769084E-03
(PID.TID 0000.0001) %MON seaice_hsnow_max             =   3.2860608278982E+00
(PID.TID 0000.0001) %MON seaice_hsnow_min             =   0.0000000000000E+00
(PID.TID 0000.0001) %MON seaice_hsnow_mean            =   1.2670815263829E-02
(PID.TID 0000.0001) %MON seaice_hsnow_sd              =   6.8485002087268E-02
(PID.TID 0000.0001) %MON seaice_hsnow_del2            =   3.8682267276477E-04
(PID.TID 0000.0001) // =======================================================
(PID.TID 0000.0001) // End MONITOR SEAICE statistics
(PID.TID 0000.0001) // =======================================================
(PID.TID 0000.0001) // =======================================================
(PID.TID 0000.0001) // Begin MONITOR dynamic field statistics
(PID.TID 0000.0001) // =======================================================
(PID.TID 0000.0001) %MON time_tsnumber                =                174777
(PID.TID 0000.0001) %MON time_secondsf                =   7.8649650000000E+07
(PID.TID 0000.0001) %MON dynstat_eta_max              =   2.1680943273562E+00
(PID.TID 0000.0001) %MON dynstat_eta_min              =  -1.1424813817478E+01
(PID.TID 0000.0001) %MON dynstat_eta_mean             =   7.2325175066309E-02
(PID.TID 0000.0001) %MON dynstat_eta_sd               =   8.4948488945674E-01
(PID.TID 0000.0001) %MON dynstat_eta_del2             =   2.0118093316570E-03
(PID.TID 0000.0001) %MON dynstat_uvel_max             =   2.3116205334122E+00
(PID.TID 0000.0001) %MON dynstat_uvel_min             =  -2.8266946053563E+00
(PID.TID 0000.0001) %MON dynstat_uvel_mean            =   3.9735336384418E-03
(PID.TID 0000.0001) %MON dynstat_uvel_sd              =   2.9495542742211E-02
(PID.TID 0000.0001) %MON dynstat_uvel_del2            =   3.5641154993582E-05
(PID.TID 0000.0001) %MON dynstat_vvel_max             =   2.1788083467638E+00
(PID.TID 0000.0001) %MON dynstat_vvel_min             =  -2.2148930580341E+00
(PID.TID 0000.0001) %MON dynstat_vvel_mean            =   2.4410841780465E-03
(PID.TID 0000.0001) %MON dynstat_vvel_sd              =   3.0329511065854E-02
(PID.TID 0000.0001) %MON dynstat_vvel_del2            =   3.3446345791858E-05
(PID.TID 0000.0001) %MON dynstat_wvel_max             =   6.9966076083417E-03
(PID.TID 0000.0001) %MON dynstat_wvel_min             =  -7.9123329391845E-03
(PID.TID 0000.0001) %MON dynstat_wvel_mean            =   8.6718547068604E-07
(PID.TID 0000.0001) %MON dynstat_wvel_sd              =   1.0554428825474E-04
(PID.TID 0000.0001) %MON dynstat_wvel_del2            =   2.5160482605059E-07
(PID.TID 0000.0001) %MON dynstat_theta_max            =   3.2410682810861E+01
(PID.TID 0000.0001) %MON dynstat_theta_min            =  -2.0371231676225E+00
(PID.TID 0000.0001) %MON dynstat_theta_mean           =   3.5921091636811E+00
(PID.TID 0000.0001) %MON dynstat_theta_sd             =   4.4421449262450E+00
(PID.TID 0000.0001) %MON dynstat_theta_del2           =   1.2384132348680E-04
(PID.TID 0000.0001) %MON dynstat_salt_max             =   4.0655991875987E+01
(PID.TID 0000.0001) %MON dynstat_salt_min             =   1.6066312722732E+01
(PID.TID 0000.0001) %MON dynstat_salt_mean            =   3.4724810062405E+01
(PID.TID 0000.0001) %MON dynstat_salt_sd              =   3.7968953403475E-01
(PID.TID 0000.0001) %MON dynstat_salt_del2            =   6.7365414359746E-05
(PID.TID 0000.0001) %MON dynstat_sst_max              =   3.2410682810861E+01
(PID.TID 0000.0001) %MON dynstat_sst_min              =  -2.0371231676225E+00
(PID.TID 0000.0001) %MON dynstat_sst_mean             =   1.8188975327074E+01
(PID.TID 0000.0001) %MON dynstat_sst_sd               =   1.0180867553011E+01
(PID.TID 0000.0001) %MON dynstat_sst_del2             =   1.1049534410986E-03
(PID.TID 0000.0001) %MON dynstat_sss_max              =   3.9466557159379E+01
(PID.TID 0000.0001) %MON dynstat_sss_min              =   1.6066312722732E+01
(PID.TID 0000.0001) %MON dynstat_sss_mean             =   3.4645042989487E+01
(PID.TID 0000.0001) %MON dynstat_sss_sd               =   1.2962974837063E+00
(PID.TID 0000.0001) %MON dynstat_sss_del2             =   1.4740346874088E-03
(PID.TID 0000.0001) %MON forcing_qnet_max             =   1.8640893554688E+03
(PID.TID 0000.0001) %MON forcing_qnet_min             =  -1.0954424753176E+03
(PID.TID 0000.0001) %MON forcing_qnet_mean            =  -3.7913479107746E+01
(PID.TID 0000.0001) %MON forcing_qnet_sd              =   2.2623264127357E+02
(PID.TID 0000.0001) %MON forcing_qnet_del2            =   4.7972932864566E-01
(PID.TID 0000.0001) %MON forcing_qsw_max              =   0.0000000000000E+00
(PID.TID 0000.0001) %MON forcing_qsw_min              =  -1.1120556570275E+02
(PID.TID 0000.0001) %MON forcing_qsw_mean             =  -2.3968491957321E+01
(PID.TID 0000.0001) %MON forcing_qsw_sd               =   3.3073497486770E+01
(PID.TID 0000.0001) %MON forcing_qsw_del2             =   2.1930360326361E-02
(PID.TID 0000.0001) %MON forcing_empmr_max            =   1.4088813215494E-02
(PID.TID 0000.0001) %MON forcing_empmr_min            =  -6.3627362251282E-02
(PID.TID 0000.0001) %MON forcing_empmr_mean           =   4.1519774978613E-06
(PID.TID 0000.0001) %MON forcing_empmr_sd             =   3.5863829591831E-04
(PID.TID 0000.0001) %MON forcing_empmr_del2           =   4.0445246093586E-06
(PID.TID 0000.0001) %MON forcing_fu_max               =   9.7088097785039E-01
(PID.TID 0000.0001) %MON forcing_fu_min               =  -9.4185881485768E-01
(PID.TID 0000.0001) %MON forcing_fu_mean              =   1.0003357318063E-02
(PID.TID 0000.0001) %MON forcing_fu_sd                =   1.2284604923002E-01
(PID.TID 0000.0001) %MON forcing_fu_del2              =   1.6269947924839E-04
(PID.TID 0000.0001) %MON forcing_fv_max               =   8.8866096735001E-01
(PID.TID 0000.0001) %MON forcing_fv_min               =  -1.8132070182529E+00
(PID.TID 0000.0001) %MON forcing_fv_mean              =  -8.0003485491526E-04
(PID.TID 0000.0001) %MON forcing_fv_sd                =   1.0726929340546E-01
(PID.TID 0000.0001) %MON forcing_fv_del2              =   1.5516446826421E-04
(PID.TID 0000.0001) %MON trAdv_CFL_u_max              =   2.9156390766195E-02
(PID.TID 0000.0001) %MON trAdv_CFL_v_max              =   2.2522232605518E-02
(PID.TID 0000.0001) %MON trAdv_CFL_w_max              =   1.0720328625783E-01
(PID.TID 0000.0001) %MON advcfl_uvel_max              =   2.9546398107706E-02
(PID.TID 0000.0001) %MON advcfl_vvel_max              =   2.2162424676494E-02
(PID.TID 0000.0001) %MON advcfl_wvel_max              =   1.0125070791152E-01
(PID.TID 0000.0001) %MON advcfl_W_hf_max              =   1.0720328625783E-01
(PID.TID 0000.0001) %MON pe_b_mean                    =   1.9681900727396E-03
(PID.TID 0000.0001) %MON ke_max                       =   2.8452410538611E+00
(PID.TID 0000.0001) %MON ke_mean                      =   8.7354710573518E-04
(PID.TID 0000.0001) %MON ke_vol                       =   1.3350064351420E+18
(PID.TID 0000.0001) %MON vort_r_min                   =  -9.8722945534456E-05
(PID.TID 0000.0001) %MON vort_r_max                   =   1.0828559173839E-04
(PID.TID 0000.0001) %MON vort_a_mean                  =  -1.9725074992507E-05
(PID.TID 0000.0001) %MON vort_a_sd                    =   7.4539470189677E-05
(PID.TID 0000.0001) %MON vort_p_mean                  =  -2.1669079766612E-05
(PID.TID 0000.0001) %MON vort_p_sd                    =   9.3608917825031E-05
(PID.TID 0000.0001) %MON surfExpan_theta_mean         =   2.7817557490005E-05
(PID.TID 0000.0001) %MON surfExpan_salt_mean          =   3.4747993229215E-05
(PID.TID 0000.0001) // =======================================================
(PID.TID 0000.0001) // End MONITOR dynamic field statistics
(PID.TID 0000.0001) // =======================================================
(PID.TID 0000.0001) // =======================================================
(PID.TID 0000.0001) // Begin MONITOR SEAICE statistics
(PID.TID 0000.0001) // =======================================================
(PID.TID 0000.0001) %MON seaice_tsnumber              =                174777
(PID.TID 0000.0001) %MON seaice_time_sec              =   7.8649650000000E+07
(PID.TID 0000.0001) %MON seaice_uice_max              =   1.4937810522281E+00
(PID.TID 0000.0001) %MON seaice_uice_min              =  -1.2741278044769E+00
(PID.TID 0000.0001) %MON seaice_uice_mean             =   1.5857826652350E-03
(PID.TID 0000.0001) %MON seaice_uice_sd               =   1.5336441636627E-01
(PID.TID 0000.0001) %MON seaice_uice_del2             =   3.4065876886917E-04
(PID.TID 0000.0001) %MON seaice_vice_max              =   8.8772439569826E-01
(PID.TID 0000.0001) %MON seaice_vice_min              =  -1.4710575952281E+00
(PID.TID 0000.0001) %MON seaice_vice_mean             =  -2.2870968441582E-02
(PID.TID 0000.0001) %MON seaice_vice_sd               =   1.6771384838364E-01
(PID.TID 0000.0001) %MON seaice_vice_del2             =   3.1995104765198E-04
(PID.TID 0000.0001) %MON seaice_area_max              =   1.0052073120843E+00
(PID.TID 0000.0001) %MON seaice_area_min              =   0.0000000000000E+00
(PID.TID 0000.0001) %MON seaice_area_mean             =   5.7417003264715E-02
(PID.TID 0000.0001) %MON seaice_area_sd               =   2.2119699947190E-01
(PID.TID 0000.0001) %MON seaice_area_del2             =   2.9551634901974E-04
(PID.TID 0000.0001) %MON seaice_heff_max              =   9.9486098079432E+00
(PID.TID 0000.0001) %MON seaice_heff_min              =   0.0000000000000E+00
(PID.TID 0000.0001) %MON seaice_heff_mean             =   1.4975047915867E-01
(PID.TID 0000.0001) %MON seaice_heff_sd               =   7.2064126637940E-01
(PID.TID 0000.0001) %MON seaice_heff_del2             =   1.3997532379471E-03
(PID.TID 0000.0001) %MON seaice_hsnow_max             =   3.2860555454590E+00
(PID.TID 0000.0001) %MON seaice_hsnow_min             =   0.0000000000000E+00
(PID.TID 0000.0001) %MON seaice_hsnow_mean            =   1.2670069796016E-02
(PID.TID 0000.0001) %MON seaice_hsnow_sd              =   6.8478090049589E-02
(PID.TID 0000.0001) %MON seaice_hsnow_del2            =   3.8653452349486E-04
(PID.TID 0000.0001) // =======================================================
(PID.TID 0000.0001) // End MONITOR SEAICE statistics
(PID.TID 0000.0001) // =======================================================
(PID.TID 0000.0001) // =======================================================
(PID.TID 0000.0001) // Begin MONITOR dynamic field statistics
(PID.TID 0000.0001) // =======================================================
(PID.TID 0000.0001) %MON time_tsnumber                =                174778
(PID.TID 0000.0001) %MON time_secondsf                =   7.8650100000000E+07
(PID.TID 0000.0001) %MON dynstat_eta_max              =   2.1887888150305E+00
(PID.TID 0000.0001) %MON dynstat_eta_min              =  -1.1397334200545E+01
(PID.TID 0000.0001) %MON dynstat_eta_mean             =   7.2789632011682E-02
(PID.TID 0000.0001) %MON dynstat_eta_sd               =   8.5006284947796E-01
(PID.TID 0000.0001) %MON dynstat_eta_del2             =   2.0115286066190E-03
(PID.TID 0000.0001) %MON dynstat_uvel_max             =   2.3174081703683E+00
(PID.TID 0000.0001) %MON dynstat_uvel_min             =  -2.8246317579861E+00
(PID.TID 0000.0001) %MON dynstat_uvel_mean            =   4.0259950448945E-03
(PID.TID 0000.0001) %MON dynstat_uvel_sd              =   2.9516671165223E-02
(PID.TID 0000.0001) %MON dynstat_uvel_del2            =   3.5683294641299E-05
(PID.TID 0000.0001) %MON dynstat_vvel_max             =   2.1744300657202E+00
(PID.TID 0000.0001) %MON dynstat_vvel_min             =  -2.2178292713122E+00
(PID.TID 0000.0001) %MON dynstat_vvel_mean            =   2.4442144104118E-03
(PID.TID 0000.0001) %MON dynstat_vvel_sd              =   3.0343249993835E-02
(PID.TID 0000.0001) %MON dynstat_vvel_del2            =   3.3492368996045E-05
(PID.TID 0000.0001) %MON dynstat_wvel_max             =   7.0125227630496E-03
(PID.TID 0000.0001) %MON dynstat_wvel_min             =  -7.9157856406040E-03
(PID.TID 0000.0001) %MON dynstat_wvel_mean            =   8.7351898714316E-07
(PID.TID 0000.0001) %MON dynstat_wvel_sd              =   1.0584751962750E-04
(PID.TID 0000.0001) %MON dynstat_wvel_del2            =   2.5231937059864E-07
(PID.TID 0000.0001) %MON dynstat_theta_max            =   3.2409802299759E+01
(PID.TID 0000.0001) %MON dynstat_theta_min            =  -2.0370827137497E+00
(PID.TID 0000.0001) %MON dynstat_theta_mean           =   3.5921070057218E+00
(PID.TID 0000.0001) %MON dynstat_theta_sd             =   4.4421396345788E+00
(PID.TID 0000.0001) %MON dynstat_theta_del2           =   1.2388514109312E-04
(PID.TID 0000.0001) %MON dynstat_salt_max             =   4.0655991875894E+01
(PID.TID 0000.0001) %MON dynstat_salt_min             =   1.6065045709457E+01
(PID.TID 0000.0001) %MON dynstat_salt_mean            =   3.4724810001126E+01
(PID.TID 0000.0001) %MON dynstat_salt_sd              =   3.7969012157537E-01
(PID.TID 0000.0001) %MON dynstat_salt_del2            =   6.7310571533804E-05
(PID.TID 0000.0001) %MON dynstat_sst_max              =   3.2409802299759E+01
(PID.TID 0000.0001) %MON dynstat_sst_min              =  -2.0370827137497E+00
(PID.TID 0000.0001) %MON dynstat_sst_mean             =   1.8189159682165E+01
(PID.TID 0000.0001) %MON dynstat_sst_sd               =   1.0181305695991E+01
(PID.TID 0000.0001) %MON dynstat_sst_del2             =   1.1046530114356E-03
(PID.TID 0000.0001) %MON dynstat_sss_max              =   3.9466296461584E+01
(PID.TID 0000.0001) %MON dynstat_sss_min              =   1.6065045709457E+01
(PID.TID 0000.0001) %MON dynstat_sss_mean             =   3.4645001061132E+01
(PID.TID 0000.0001) %MON dynstat_sss_sd               =   1.2963797090815E+00
(PID.TID 0000.0001) %MON dynstat_sss_del2             =   1.4740299353050E-03
(PID.TID 0000.0001) %MON forcing_qnet_max             =   1.8058178710938E+03
(PID.TID 0000.0001) %MON forcing_qnet_min             =  -3.4845859375000E+03
(PID.TID 0000.0001) %MON forcing_qnet_mean            =  -3.7417697180428E+01
(PID.TID 0000.0001) %MON forcing_qnet_sd              =   2.2580412530441E+02
(PID.TID 0000.0001) %MON forcing_qnet_del2            =   5.2023238389762E-01
(PID.TID 0000.0001) %MON forcing_qsw_max              =   0.0000000000000E+00
(PID.TID 0000.0001) %MON forcing_qsw_min              =  -1.1115349483274E+02
(PID.TID 0000.0001) %MON forcing_qsw_mean             =  -2.3854020058641E+01
(PID.TID 0000.0001) %MON forcing_qsw_sd               =   3.2989124066555E+01
(PID.TID 0000.0001) %MON forcing_qsw_del2             =   2.2046340749655E-02
(PID.TID 0000.0001) %MON forcing_empmr_max            =   1.4090983197093E-02
(PID.TID 0000.0001) %MON forcing_empmr_min            =  -5.5816754698753E-02
(PID.TID 0000.0001) %MON forcing_empmr_mean           =   3.8703035050896E-06
(PID.TID 0000.0001) %MON forcing_empmr_sd             =   3.5393600656353E-04
(PID.TID 0000.0001) %MON forcing_empmr_del2           =   3.9774084988415E-06
(PID.TID 0000.0001) %MON forcing_fu_max               =   9.6505982187786E-01
(PID.TID 0000.0001) %MON forcing_fu_min               =  -9.4887940595718E-01
(PID.TID 0000.0001) %MON forcing_fu_mean              =   1.0054097340070E-02
(PID.TID 0000.0001) %MON forcing_fu_sd                =   1.2290331420805E-01
(PID.TID 0000.0001) %MON forcing_fu_del2              =   1.6286958884351E-04
(PID.TID 0000.0001) %MON forcing_fv_max               =   8.8688072562218E-01
(PID.TID 0000.0001) %MON forcing_fv_min               =  -1.8225562553201E+00
(PID.TID 0000.0001) %MON forcing_fv_mean              =  -8.0297139203871E-04
(PID.TID 0000.0001) %MON forcing_fv_sd                =   1.0730173083708E-01
(PID.TID 0000.0001) %MON forcing_fv_del2              =   1.5513375777458E-04
(PID.TID 0000.0001) %MON trAdv_CFL_u_max              =   2.9135113199137E-02
(PID.TID 0000.0001) %MON trAdv_CFL_v_max              =   2.2471202155895E-02
(PID.TID 0000.0001) %MON trAdv_CFL_w_max              =   1.0717809827000E-01
(PID.TID 0000.0001) %MON advcfl_uvel_max              =   2.9524835923550E-02
(PID.TID 0000.0001) %MON advcfl_vvel_max              =   2.2112209472887E-02
(PID.TID 0000.0001) %MON advcfl_wvel_max              =   1.0123640665630E-01
(PID.TID 0000.0001) %MON advcfl_W_hf_max              =   1.0717809827000E-01
(PID.TID 0000.0001) %MON pe_b_mean                    =   1.9809423197773E-03
(PID.TID 0000.0001) %MON ke_max                       =   2.8415957796611E+00
(PID.TID 0000.0001) %MON ke_mean                      =   8.7475993645879E-04
(PID.TID 0000.0001) %MON ke_vol                       =   1.3350064351420E+18
(PID.TID 0000.0001) %MON vort_r_min                   =  -9.8644497565559E-05
(PID.TID 0000.0001) %MON vort_r_max                   =   1.0821920980470E-04
(PID.TID 0000.0001) %MON vort_a_mean                  =  -1.9725075268136E-05
(PID.TID 0000.0001) %MON vort_a_sd                    =   7.4539476130141E-05
(PID.TID 0000.0001) %MON vort_p_mean                  =  -2.1669080069405E-05
(PID.TID 0000.0001) %MON vort_p_sd                    =   9.3608969439016E-05
(PID.TID 0000.0001) %MON surfExpan_theta_mean         =   2.8350928261921E-05
(PID.TID 0000.0001) %MON surfExpan_salt_mean          =   3.5199590615356E-05
(PID.TID 0000.0001) // =======================================================
(PID.TID 0000.0001) // End MONITOR dynamic field statistics
(PID.TID 0000.0001) // =======================================================
(PID.TID 0000.0001) // =======================================================
(PID.TID 0000.0001) // Begin MONITOR SEAICE statistics
(PID.TID 0000.0001) // =======================================================
(PID.TID 0000.0001) %MON seaice_tsnumber              =                174778
(PID.TID 0000.0001) %MON seaice_time_sec              =   7.8650100000000E+07
(PID.TID 0000.0001) %MON seaice_uice_max              =   1.4961194451318E+00
(PID.TID 0000.0001) %MON seaice_uice_min              =  -1.2709326710433E+00
(PID.TID 0000.0001) %MON seaice_uice_mean             =   1.7078804964358E-03
(PID.TID 0000.0001) %MON seaice_uice_sd               =   1.5342641106543E-01
(PID.TID 0000.0001) %MON seaice_uice_del2             =   3.4091875618914E-04
(PID.TID 0000.0001) %MON seaice_vice_max              =   8.8711247422319E-01
(PID.TID 0000.0001) %MON seaice_vice_min              =  -1.4717113116317E+00
(PID.TID 0000.0001) %MON seaice_vice_mean             =  -2.2933658366201E-02
(PID.TID 0000.0001) %MON seaice_vice_sd               =   1.6782061222011E-01
(PID.TID 0000.0001) %MON seaice_vice_del2             =   3.2026883019035E-04
(PID.TID 0000.0001) %MON seaice_area_max              =   1.0048379517720E+00
(PID.TID 0000.0001) %MON seaice_area_min              =   0.0000000000000E+00
(PID.TID 0000.0001) %MON seaice_area_mean             =   5.7418666001819E-02
(PID.TID 0000.0001) %MON seaice_area_sd               =   2.2119162481612E-01
(PID.TID 0000.0001) %MON seaice_area_del2             =   2.9531429690194E-04
(PID.TID 0000.0001) %MON seaice_heff_max              =   9.9485945731065E+00
(PID.TID 0000.0001) %MON seaice_heff_min              =   0.0000000000000E+00
(PID.TID 0000.0001) %MON seaice_heff_mean             =   1.4974668355100E-01
(PID.TID 0000.0001) %MON seaice_heff_sd               =   7.2063103045251E-01
(PID.TID 0000.0001) %MON seaice_heff_del2             =   1.3989608574214E-03
(PID.TID 0000.0001) %MON seaice_hsnow_max             =   3.2860505059649E+00
(PID.TID 0000.0001) %MON seaice_hsnow_min             =   0.0000000000000E+00
(PID.TID 0000.0001) %MON seaice_hsnow_mean            =   1.2669321697897E-02
(PID.TID 0000.0001) %MON seaice_hsnow_sd              =   6.8471167702899E-02
(PID.TID 0000.0001) %MON seaice_hsnow_del2            =   3.8624430097451E-04
(PID.TID 0000.0001) // =======================================================
(PID.TID 0000.0001) // End MONITOR SEAICE statistics
(PID.TID 0000.0001) // =======================================================
(PID.TID 0000.0001) // =======================================================
(PID.TID 0000.0001) // Begin MONITOR dynamic field statistics
(PID.TID 0000.0001) // =======================================================
(PID.TID 0000.0001) %MON time_tsnumber                =                174779
(PID.TID 0000.0001) %MON time_secondsf                =   7.8650550000000E+07
(PID.TID 0000.0001) %MON dynstat_eta_max              =   2.1979312977980E+00
(PID.TID 0000.0001) %MON dynstat_eta_min              =  -1.1367074813503E+01
(PID.TID 0000.0001) %MON dynstat_eta_mean             =   7.3258233965367E-02
(PID.TID 0000.0001) %MON dynstat_eta_sd               =   8.5068113868233E-01
(PID.TID 0000.0001) %MON dynstat_eta_del2             =   2.0112554633718E-03
(PID.TID 0000.0001) %MON dynstat_uvel_max             =   2.3227800404085E+00
(PID.TID 0000.0001) %MON dynstat_uvel_min             =  -2.8224885784460E+00
(PID.TID 0000.0001) %MON dynstat_uvel_mean            =   4.0728378480849E-03
(PID.TID 0000.0001) %MON dynstat_uvel_sd              =   2.9538080028260E-02
(PID.TID 0000.0001) %MON dynstat_uvel_del2            =   3.5724551969008E-05
(PID.TID 0000.0001) %MON dynstat_vvel_max             =   2.1695042928308E+00
(PID.TID 0000.0001) %MON dynstat_vvel_min             =  -2.2207782139953E+00
(PID.TID 0000.0001) %MON dynstat_vvel_mean            =   2.4477960744095E-03
(PID.TID 0000.0001) %MON dynstat_vvel_sd              =   3.0359610900321E-02
(PID.TID 0000.0001) %MON dynstat_vvel_del2            =   3.3537522881733E-05
(PID.TID 0000.0001) %MON dynstat_wvel_max             =   7.0285513512896E-03
(PID.TID 0000.0001) %MON dynstat_wvel_min             =  -7.9181709402820E-03
(PID.TID 0000.0001) %MON dynstat_wvel_mean            =   8.7920617387679E-07
(PID.TID 0000.0001) %MON dynstat_wvel_sd              =   1.0615105775109E-04
(PID.TID 0000.0001) %MON dynstat_wvel_del2            =   2.5303059694490E-07
(PID.TID 0000.0001) %MON dynstat_theta_max            =   3.2409192911006E+01
(PID.TID 0000.0001) %MON dynstat_theta_min            =  -2.0370580489368E+00
(PID.TID 0000.0001) %MON dynstat_theta_mean           =   3.5921047644158E+00
(PID.TID 0000.0001) %MON dynstat_theta_sd             =   4.4421341763660E+00
(PID.TID 0000.0001) %MON dynstat_theta_del2           =   1.2392923286402E-04
(PID.TID 0000.0001) %MON dynstat_salt_max             =   4.0655991875800E+01
(PID.TID 0000.0001) %MON dynstat_salt_min             =   1.6063825847355E+01
(PID.TID 0000.0001) %MON dynstat_salt_mean            =   3.4724809926635E+01
(PID.TID 0000.0001) %MON dynstat_salt_sd              =   3.7969075776351E-01
(PID.TID 0000.0001) %MON dynstat_salt_del2            =   6.7256255046194E-05
(PID.TID 0000.0001) %MON dynstat_sst_max              =   3.2409192911006E+01
(PID.TID 0000.0001) %MON dynstat_sst_min              =  -2.0370580489368E+00
(PID.TID 0000.0001) %MON dynstat_sst_mean             =   1.8189328585313E+01
(PID.TID 0000.0001) %MON dynstat_sst_sd               =   1.0181740616508E+01
(PID.TID 0000.0001) %MON dynstat_sst_del2             =   1.1043813362395E-03
(PID.TID 0000.0001) %MON dynstat_sss_max              =   3.9466066417893E+01
(PID.TID 0000.0001) %MON dynstat_sss_min              =   1.6063825847355E+01
(PID.TID 0000.0001) %MON dynstat_sss_mean             =   3.4644958630294E+01
(PID.TID 0000.0001) %MON dynstat_sss_sd               =   1.2964636056550E+00
(PID.TID 0000.0001) %MON dynstat_sss_del2             =   1.4740245823725E-03
(PID.TID 0000.0001) %MON forcing_qnet_max             =   1.7521711425781E+03
(PID.TID 0000.0001) %MON forcing_qnet_min             =  -1.7828271484375E+03
(PID.TID 0000.0001) %MON forcing_qnet_mean            =  -3.6593022204289E+01
(PID.TID 0000.0001) %MON forcing_qnet_sd              =   2.2423437090724E+02
(PID.TID 0000.0001) %MON forcing_qnet_del2            =   4.7677709945583E-01
(PID.TID 0000.0001) %MON forcing_qsw_max              =   0.0000000000000E+00
(PID.TID 0000.0001) %MON forcing_qsw_min              =  -1.1107003972076E+02
(PID.TID 0000.0001) %MON forcing_qsw_mean             =  -2.3723557951617E+01
(PID.TID 0000.0001) %MON forcing_qsw_sd               =   3.2889377588314E+01
(PID.TID 0000.0001) %MON forcing_qsw_del2             =   2.2153940215425E-02
(PID.TID 0000.0001) %MON forcing_empmr_max            =   1.4087728224695E-02
(PID.TID 0000.0001) %MON forcing_empmr_min            =  -5.3523857146502E-02
(PID.TID 0000.0001) %MON forcing_empmr_mean           =   3.4854454736612E-06
(PID.TID 0000.0001) %MON forcing_empmr_sd             =   3.4901376962330E-04
(PID.TID 0000.0001) %MON forcing_empmr_del2           =   3.9344931055386E-06
(PID.TID 0000.0001) %MON forcing_fu_max               =   9.5906711405112E-01
(PID.TID 0000.0001) %MON forcing_fu_min               =  -9.5384935533190E-01
(PID.TID 0000.0001) %MON forcing_fu_mean              =   1.0116594567706E-02
(PID.TID 0000.0001) %MON forcing_fu_sd                =   1.2298515492980E-01
(PID.TID 0000.0001) %MON forcing_fu_del2              =   1.6307359998002E-04
(PID.TID 0000.0001) %MON forcing_fv_max               =   8.8904276490211E-01
(PID.TID 0000.0001) %MON forcing_fv_min               =  -1.8320218954909E+00
(PID.TID 0000.0001) %MON forcing_fv_mean              =  -8.0491434243105E-04
(PID.TID 0000.0001) %MON forcing_fv_sd                =   1.0734096557568E-01
(PID.TID 0000.0001) %MON forcing_fv_del2              =   1.5506225056987E-04
(PID.TID 0000.0001) %MON trAdv_CFL_u_max              =   2.9113007033145E-02
(PID.TID 0000.0001) %MON trAdv_CFL_v_max              =   2.2419160036680E-02
(PID.TID 0000.0001) %MON trAdv_CFL_w_max              =   1.0713716663116E-01
(PID.TID 0000.0001) %MON advcfl_uvel_max              =   2.9502434056793E-02
(PID.TID 0000.0001) %MON advcfl_vvel_max              =   2.2060998761795E-02
(PID.TID 0000.0001) %MON advcfl_wvel_max              =   1.0120706563743E-01
(PID.TID 0000.0001) %MON advcfl_W_hf_max              =   1.0713716663116E-01
(PID.TID 0000.0001) %MON pe_b_mean                    =   1.9938930830240E-03
(PID.TID 0000.0001) %MON ke_max                       =   2.8378086625118E+00
(PID.TID 0000.0001) %MON ke_mean                      =   8.7603978959207E-04
(PID.TID 0000.0001) %MON ke_vol                       =   1.3350064351420E+18
(PID.TID 0000.0001) %MON vort_r_min                   =  -9.8566901101694E-05
(PID.TID 0000.0001) %MON vort_r_max                   =   1.0815018081835E-04
(PID.TID 0000.0001) %MON vort_a_mean                  =  -1.9725075535243E-05
(PID.TID 0000.0001) %MON vort_a_sd                    =   7.4539481838284E-05
(PID.TID 0000.0001) %MON vort_p_mean                  =  -2.1669080362837E-05
(PID.TID 0000.0001) %MON vort_p_sd                    =   9.3609020092556E-05
(PID.TID 0000.0001) %MON surfExpan_theta_mean         =   2.8842001143281E-05
(PID.TID 0000.0001) %MON surfExpan_salt_mean          =   3.5624499549689E-05
(PID.TID 0000.0001) // =======================================================
(PID.TID 0000.0001) // End MONITOR dynamic field statistics
(PID.TID 0000.0001) // =======================================================
(PID.TID 0000.0001) // =======================================================
(PID.TID 0000.0001) // Begin MONITOR SEAICE statistics
(PID.TID 0000.0001) // =======================================================
(PID.TID 0000.0001) %MON seaice_tsnumber              =                174779
(PID.TID 0000.0001) %MON seaice_time_sec              =   7.8650550000000E+07
(PID.TID 0000.0001) %MON seaice_uice_max              =   1.4982536871891E+00
(PID.TID 0000.0001) %MON seaice_uice_min              =  -1.2676889516799E+00
(PID.TID 0000.0001) %MON seaice_uice_mean             =   1.8292894894585E-03
(PID.TID 0000.0001) %MON seaice_uice_sd               =   1.5349509828339E-01
(PID.TID 0000.0001) %MON seaice_uice_del2             =   3.4119851879959E-04
(PID.TID 0000.0001) %MON seaice_vice_max              =   8.8760438634945E-01
(PID.TID 0000.0001) %MON seaice_vice_min              =  -1.4723728212219E+00
(PID.TID 0000.0001) %MON seaice_vice_mean             =  -2.2997840741834E-02
(PID.TID 0000.0001) %MON seaice_vice_sd               =   1.6792582502298E-01
(PID.TID 0000.0001) %MON seaice_vice_del2             =   3.2055928714236E-04
(PID.TID 0000.0001) %MON seaice_area_max              =   1.0046866492605E+00
(PID.TID 0000.0001) %MON seaice_area_min              =   0.0000000000000E+00
(PID.TID 0000.0001) %MON seaice_area_mean             =   5.7420328052820E-02
(PID.TID 0000.0001) %MON seaice_area_sd               =   2.2118626190300E-01
(PID.TID 0000.0001) %MON seaice_area_del2             =   2.9511486384597E-04
(PID.TID 0000.0001) %MON seaice_heff_max              =   9.9485793335232E+00
(PID.TID 0000.0001) %MON seaice_heff_min              =   0.0000000000000E+00
(PID.TID 0000.0001) %MON seaice_heff_mean             =   1.4974289495718E-01
(PID.TID 0000.0001) %MON seaice_heff_sd               =   7.2062084439370E-01
(PID.TID 0000.0001) %MON seaice_heff_del2             =   1.3981673705138E-03
(PID.TID 0000.0001) %MON seaice_hsnow_max             =   3.2860457015099E+00
(PID.TID 0000.0001) %MON seaice_hsnow_min             =   0.0000000000000E+00
(PID.TID 0000.0001) %MON seaice_hsnow_mean            =   1.2668573431074E-02
(PID.TID 0000.0001) %MON seaice_hsnow_sd              =   6.8464231642835E-02
(PID.TID 0000.0001) %MON seaice_hsnow_del2            =   3.8595200240604E-04
(PID.TID 0000.0001) // =======================================================
(PID.TID 0000.0001) // End MONITOR SEAICE statistics
(PID.TID 0000.0001) // =======================================================
(PID.TID 0000.0001) // =======================================================
(PID.TID 0000.0001) // Begin MONITOR dynamic field statistics
(PID.TID 0000.0001) // =======================================================
(PID.TID 0000.0001) %MON time_tsnumber                =                174780
(PID.TID 0000.0001) %MON time_secondsf                =   7.8651000000000E+07
(PID.TID 0000.0001) %MON dynstat_eta_max              =   2.1956041028460E+00
(PID.TID 0000.0001) %MON dynstat_eta_min              =  -1.1334208769641E+01
(PID.TID 0000.0001) %MON dynstat_eta_mean             =   7.3730032596803E-02
(PID.TID 0000.0001) %MON dynstat_eta_sd               =   8.5133943646586E-01
(PID.TID 0000.0001) %MON dynstat_eta_del2             =   2.0109950063636E-03
(PID.TID 0000.0001) %MON dynstat_uvel_max             =   2.3277252822486E+00
(PID.TID 0000.0001) %MON dynstat_uvel_min             =  -2.8202436877730E+00
(PID.TID 0000.0001) %MON dynstat_uvel_mean            =   4.1140149885874E-03
(PID.TID 0000.0001) %MON dynstat_uvel_sd              =   2.9559804599493E-02
(PID.TID 0000.0001) %MON dynstat_uvel_del2            =   3.5765317520568E-05
(PID.TID 0000.0001) %MON dynstat_vvel_max             =   2.1640561523677E+00
(PID.TID 0000.0001) %MON dynstat_vvel_min             =  -2.2237290418825E+00
(PID.TID 0000.0001) %MON dynstat_vvel_mean            =   2.4518958230881E-03
(PID.TID 0000.0001) %MON dynstat_vvel_sd              =   3.0378642064510E-02
(PID.TID 0000.0001) %MON dynstat_vvel_del2            =   3.3582131848246E-05
(PID.TID 0000.0001) %MON dynstat_wvel_max             =   7.0447071240278E-03
(PID.TID 0000.0001) %MON dynstat_wvel_min             =  -7.9194146609578E-03
(PID.TID 0000.0001) %MON dynstat_wvel_mean            =   8.8404899154147E-07
(PID.TID 0000.0001) %MON dynstat_wvel_sd              =   1.0645638418806E-04
(PID.TID 0000.0001) %MON dynstat_wvel_del2            =   2.5374067695048E-07
(PID.TID 0000.0001) %MON dynstat_theta_max            =   3.2408888674311E+01
(PID.TID 0000.0001) %MON dynstat_theta_min            =  -2.0370510765674E+00
(PID.TID 0000.0001) %MON dynstat_theta_mean           =   3.5921024485984E+00
(PID.TID 0000.0001) %MON dynstat_theta_sd             =   4.4421286022252E+00
(PID.TID 0000.0001) %MON dynstat_theta_del2           =   1.2397265897927E-04
(PID.TID 0000.0001) %MON dynstat_salt_max             =   4.0655991873090E+01
(PID.TID 0000.0001) %MON dynstat_salt_min             =   1.6062652179009E+01
(PID.TID 0000.0001) %MON dynstat_salt_mean            =   3.4724809838513E+01
(PID.TID 0000.0001) %MON dynstat_salt_sd              =   3.7969142827724E-01
(PID.TID 0000.0001) %MON dynstat_salt_del2            =   6.7201251415153E-05
(PID.TID 0000.0001) %MON dynstat_sst_max              =   3.2408888674311E+01
(PID.TID 0000.0001) %MON dynstat_sst_min              =  -2.0370510765674E+00
(PID.TID 0000.0001) %MON dynstat_sst_mean             =   1.8189486517593E+01
(PID.TID 0000.0001) %MON dynstat_sst_sd               =   1.0182173747299E+01
(PID.TID 0000.0001) %MON dynstat_sst_del2             =   1.1040618408357E-03
(PID.TID 0000.0001) %MON dynstat_sss_max              =   3.9465868004179E+01
(PID.TID 0000.0001) %MON dynstat_sss_min              =   1.6062652179009E+01
(PID.TID 0000.0001) %MON dynstat_sss_mean             =   3.4644916266644E+01
(PID.TID 0000.0001) %MON dynstat_sss_sd               =   1.2965468833439E+00
(PID.TID 0000.0001) %MON dynstat_sss_del2             =   1.4739570537302E-03
(PID.TID 0000.0001) %MON forcing_qnet_max             =   5.9919725096562E+03
(PID.TID 0000.0001) %MON forcing_qnet_min             =  -1.2674802246094E+03
(PID.TID 0000.0001) %MON forcing_qnet_mean            =  -3.5841102254282E+01
(PID.TID 0000.0001) %MON forcing_qnet_sd              =   2.2466282496489E+02
(PID.TID 0000.0001) %MON forcing_qnet_del2            =   5.8790202507927E-01
(PID.TID 0000.0001) %MON forcing_qsw_max              =   0.0000000000000E+00
(PID.TID 0000.0001) %MON forcing_qsw_min              =  -1.1108170696213E+02
(PID.TID 0000.0001) %MON forcing_qsw_mean             =  -2.3576814011651E+01
(PID.TID 0000.0001) %MON forcing_qsw_sd               =   3.2774816209576E+01
(PID.TID 0000.0001) %MON forcing_qsw_del2             =   2.2252546038746E-02
(PID.TID 0000.0001) %MON forcing_empmr_max            =   1.4090169221163E-02
(PID.TID 0000.0001) %MON forcing_empmr_min            =  -4.7466930001974E-02
(PID.TID 0000.0001) %MON forcing_empmr_mean           =   3.7533032581282E-06
(PID.TID 0000.0001) %MON forcing_empmr_sd             =   3.4517291502168E-04
(PID.TID 0000.0001) %MON forcing_empmr_del2           =   3.8870609881969E-06
(PID.TID 0000.0001) %MON forcing_fu_max               =   9.5355921046685E-01
(PID.TID 0000.0001) %MON forcing_fu_min               =  -9.6381546011511E-01
(PID.TID 0000.0001) %MON forcing_fu_mean              =   1.0176408514958E-02
(PID.TID 0000.0001) %MON forcing_fu_sd                =   1.2306363835326E-01
(PID.TID 0000.0001) %MON forcing_fu_del2              =   1.6334338012666E-04
(PID.TID 0000.0001) %MON forcing_fv_max               =   8.9080077409744E-01
(PID.TID 0000.0001) %MON forcing_fv_min               =  -1.8416828181486E+00
(PID.TID 0000.0001) %MON forcing_fv_mean              =  -8.1166042380596E-04
(PID.TID 0000.0001) %MON forcing_fv_sd                =   1.0738260932831E-01
(PID.TID 0000.0001) %MON forcing_fv_del2              =   1.5508927809547E-04
(PID.TID 0000.0001) %MON trAdv_CFL_u_max              =   2.9089851751508E-02
(PID.TID 0000.0001) %MON trAdv_CFL_v_max              =   2.2366106786182E-02
(PID.TID 0000.0001) %MON trAdv_CFL_w_max              =   1.0707763634667E-01
(PID.TID 0000.0001) %MON advcfl_uvel_max              =   2.9478969041009E-02
(PID.TID 0000.0001) %MON advcfl_vvel_max              =   2.2008793072928E-02
(PID.TID 0000.0001) %MON advcfl_wvel_max              =   1.0115973826893E-01
(PID.TID 0000.0001) %MON advcfl_W_hf_max              =   1.0707763634667E-01
(PID.TID 0000.0001) %MON pe_b_mean                    =   2.0070180822094E-03
(PID.TID 0000.0001) %MON ke_max                       =   2.8338276479241E+00
(PID.TID 0000.0001) %MON ke_mean                      =   8.7738844081551E-04
(PID.TID 0000.0001) %MON ke_vol                       =   1.3350064351420E+18
(PID.TID 0000.0001) %MON vort_r_min                   =  -9.8489179807934E-05
(PID.TID 0000.0001) %MON vort_r_max                   =   1.0807745068113E-04
(PID.TID 0000.0001) %MON vort_a_mean                  =  -1.9725075791821E-05
(PID.TID 0000.0001) %MON vort_a_sd                    =   7.4539487362669E-05
(PID.TID 0000.0001) %MON vort_p_mean                  =  -2.1669080644702E-05
(PID.TID 0000.0001) %MON vort_p_sd                    =   9.3609069790748E-05
(PID.TID 0000.0001) %MON surfExpan_theta_mean         =   2.9291740525653E-05
(PID.TID 0000.0001) %MON surfExpan_salt_mean          =   3.6007568145181E-05
(PID.TID 0000.0001) // =======================================================
(PID.TID 0000.0001) // End MONITOR dynamic field statistics
(PID.TID 0000.0001) // =======================================================
(PID.TID 0000.0001) // =======================================================
(PID.TID 0000.0001) // Begin MONITOR SEAICE statistics
(PID.TID 0000.0001) // =======================================================
(PID.TID 0000.0001) %MON seaice_tsnumber              =                174780
(PID.TID 0000.0001) %MON seaice_time_sec              =   7.8651000000000E+07
(PID.TID 0000.0001) %MON seaice_uice_max              =   1.5001856407968E+00
(PID.TID 0000.0001) %MON seaice_uice_min              =  -1.2644333531298E+00
(PID.TID 0000.0001) %MON seaice_uice_mean             =   1.9487222663414E-03
(PID.TID 0000.0001) %MON seaice_uice_sd               =   1.5356539430623E-01
(PID.TID 0000.0001) %MON seaice_uice_del2             =   3.4146162544099E-04
(PID.TID 0000.0001) %MON seaice_vice_max              =   8.8852696571535E-01
(PID.TID 0000.0001) %MON seaice_vice_min              =  -1.4730390332866E+00
(PID.TID 0000.0001) %MON seaice_vice_mean             =  -2.3061114409169E-02
(PID.TID 0000.0001) %MON seaice_vice_sd               =   1.6802633253400E-01
(PID.TID 0000.0001) %MON seaice_vice_del2             =   3.2079910347920E-04
(PID.TID 0000.0001) %MON seaice_area_max              =   1.0046938003268E+00
(PID.TID 0000.0001) %MON seaice_area_min              =   0.0000000000000E+00
(PID.TID 0000.0001) %MON seaice_area_mean             =   5.7421981892530E-02
(PID.TID 0000.0001) %MON seaice_area_sd               =   2.2118084635388E-01
(PID.TID 0000.0001) %MON seaice_area_del2             =   2.9491826498545E-04
(PID.TID 0000.0001) %MON seaice_heff_max              =   9.9485640958226E+00
(PID.TID 0000.0001) %MON seaice_heff_min              =   0.0000000000000E+00
(PID.TID 0000.0001) %MON seaice_heff_mean             =   1.4973911319962E-01
(PID.TID 0000.0001) %MON seaice_heff_sd               =   7.2061066968361E-01
(PID.TID 0000.0001) %MON seaice_heff_del2             =   1.3973711908632E-03
(PID.TID 0000.0001) %MON seaice_hsnow_max             =   3.2860404141968E+00
(PID.TID 0000.0001) %MON seaice_hsnow_min             =   0.0000000000000E+00
(PID.TID 0000.0001) %MON seaice_hsnow_mean            =   1.2667814564361E-02
(PID.TID 0000.0001) %MON seaice_hsnow_sd              =   6.8457269605640E-02
(PID.TID 0000.0001) %MON seaice_hsnow_del2            =   3.8565721895885E-04
(PID.TID 0000.0001) // =======================================================
(PID.TID 0000.0001) // End MONITOR SEAICE statistics
(PID.TID 0000.0001) // =======================================================
(PID.TID 0000.0001) // =======================================================
(PID.TID 0000.0001) // Begin MONITOR dynamic field statistics
(PID.TID 0000.0001) // =======================================================
(PID.TID 0000.0001) %MON time_tsnumber                =                174781
(PID.TID 0000.0001) %MON time_secondsf                =   7.8651450000000E+07
(PID.TID 0000.0001) %MON dynstat_eta_max              =   2.1819950982125E+00
(PID.TID 0000.0001) %MON dynstat_eta_min              =  -1.1299448631900E+01
(PID.TID 0000.0001) %MON dynstat_eta_mean             =   7.4203545301939E-02
(PID.TID 0000.0001) %MON dynstat_eta_sd               =   8.5203743073730E-01
(PID.TID 0000.0001) %MON dynstat_eta_del2             =   2.0107540656658E-03
(PID.TID 0000.0001) %MON dynstat_uvel_max             =   2.3322369427261E+00
(PID.TID 0000.0001) %MON dynstat_uvel_min             =  -2.8178830848923E+00
(PID.TID 0000.0001) %MON dynstat_uvel_mean            =   4.1495030664007E-03
(PID.TID 0000.0001) %MON dynstat_uvel_sd              =   2.9581838775523E-02
(PID.TID 0000.0001) %MON dynstat_uvel_del2            =   3.5805397667373E-05
(PID.TID 0000.0001) %MON dynstat_vvel_max             =   2.1581111857447E+00
(PID.TID 0000.0001) %MON dynstat_vvel_min             =  -2.2266662537962E+00
(PID.TID 0000.0001) %MON dynstat_vvel_mean            =   2.4565712697034E-03
(PID.TID 0000.0001) %MON dynstat_vvel_sd              =   3.0400110796014E-02
(PID.TID 0000.0001) %MON dynstat_vvel_del2            =   3.3626033028631E-05
(PID.TID 0000.0001) %MON dynstat_wvel_max             =   7.0610095939893E-03
(PID.TID 0000.0001) %MON dynstat_wvel_min             =  -7.9194579951366E-03
(PID.TID 0000.0001) %MON dynstat_wvel_mean            =   8.8680820845088E-07
(PID.TID 0000.0001) %MON dynstat_wvel_sd              =   1.0676408460610E-04
(PID.TID 0000.0001) %MON dynstat_wvel_del2            =   2.5445035354170E-07
(PID.TID 0000.0001) %MON dynstat_theta_max            =   3.2408922450576E+01
(PID.TID 0000.0001) %MON dynstat_theta_min            =  -2.0370631772891E+00
(PID.TID 0000.0001) %MON dynstat_theta_mean           =   3.5921000617408E+00
(PID.TID 0000.0001) %MON dynstat_theta_sd             =   4.4421229865791E+00
(PID.TID 0000.0001) %MON dynstat_theta_del2           =   1.2401768834126E-04
(PID.TID 0000.0001) %MON dynstat_salt_max             =   4.0655991866361E+01
(PID.TID 0000.0001) %MON dynstat_salt_min             =   1.6061523145067E+01
(PID.TID 0000.0001) %MON dynstat_salt_mean            =   3.4724809738550E+01
(PID.TID 0000.0001) %MON dynstat_salt_sd              =   3.7969212097199E-01
(PID.TID 0000.0001) %MON dynstat_salt_del2            =   6.7152475424667E-05
(PID.TID 0000.0001) %MON dynstat_sst_max              =   3.2408922450576E+01
(PID.TID 0000.0001) %MON dynstat_sst_min              =  -2.0370631772891E+00
(PID.TID 0000.0001) %MON dynstat_sst_mean             =   1.8189597693935E+01
(PID.TID 0000.0001) %MON dynstat_sst_sd               =   1.0182600232766E+01
(PID.TID 0000.0001) %MON dynstat_sst_del2             =   1.1040735160742E-03
(PID.TID 0000.0001) %MON dynstat_sss_max              =   3.9465682296745E+01
(PID.TID 0000.0001) %MON dynstat_sss_min              =   1.6061523145067E+01
(PID.TID 0000.0001) %MON dynstat_sss_mean             =   3.4644874774389E+01
(PID.TID 0000.0001) %MON dynstat_sss_sd               =   1.2966277397649E+00
(PID.TID 0000.0001) %MON dynstat_sss_del2             =   1.4742777149312E-03
(PID.TID 0000.0001) %MON forcing_qnet_max             =   1.8887086181641E+03
(PID.TID 0000.0001) %MON forcing_qnet_min             =  -3.0248193359375E+03
(PID.TID 0000.0001) %MON forcing_qnet_mean            =  -3.4953097471617E+01
(PID.TID 0000.0001) %MON forcing_qnet_sd              =   2.2110643738829E+02
(PID.TID 0000.0001) %MON forcing_qnet_del2            =   5.2885661493858E-01
(PID.TID 0000.0001) %MON forcing_qsw_max              =   0.0000000000000E+00
(PID.TID 0000.0001) %MON forcing_qsw_min              =  -1.1062349272957E+02
(PID.TID 0000.0001) %MON forcing_qsw_mean             =  -2.3224446320649E+01
(PID.TID 0000.0001) %MON forcing_qsw_sd               =   3.2572809165857E+01
(PID.TID 0000.0001) %MON forcing_qsw_del2             =   2.2759683152956E-02
(PID.TID 0000.0001) %MON forcing_empmr_max            =   1.4084473252296E-02
(PID.TID 0000.0001) %MON forcing_empmr_min            =  -4.1688628494740E-02
(PID.TID 0000.0001) %MON forcing_empmr_mean           =   4.0483285136463E-06
(PID.TID 0000.0001) %MON forcing_empmr_sd             =   3.4102206485977E-04
(PID.TID 0000.0001) %MON forcing_empmr_del2           =   3.8493687538553E-06
(PID.TID 0000.0001) %MON forcing_fu_max               =   9.4876431511946E-01
(PID.TID 0000.0001) %MON forcing_fu_min               =  -9.7229927231333E-01
(PID.TID 0000.0001) %MON forcing_fu_mean              =   1.0236183405152E-02
(PID.TID 0000.0001) %MON forcing_fu_sd                =   1.2310359885218E-01
(PID.TID 0000.0001) %MON forcing_fu_del2              =   1.6346435668598E-04
(PID.TID 0000.0001) %MON forcing_fv_max               =   8.8629898428917E-01
(PID.TID 0000.0001) %MON forcing_fv_min               =  -1.8516022083805E+00
(PID.TID 0000.0001) %MON forcing_fv_mean              =  -8.2038161546243E-04
(PID.TID 0000.0001) %MON forcing_fv_sd                =   1.0739277326577E-01
(PID.TID 0000.0001) %MON forcing_fv_del2              =   1.5500288388335E-04
(PID.TID 0000.0001) %MON trAdv_CFL_u_max              =   2.9065502937914E-02
(PID.TID 0000.0001) %MON trAdv_CFL_v_max              =   2.2311979845463E-02
(PID.TID 0000.0001) %MON trAdv_CFL_w_max              =   1.0699722096370E-01
(PID.TID 0000.0001) %MON advcfl_uvel_max              =   2.9454294528115E-02
(PID.TID 0000.0001) %MON advcfl_vvel_max              =   2.1955530846768E-02
(PID.TID 0000.0001) %MON advcfl_wvel_max              =   1.0109206271040E-01
(PID.TID 0000.0001) %MON advcfl_W_hf_max              =   1.0699722096370E-01
(PID.TID 0000.0001) %MON pe_b_mean                    =   2.0202787473515E-03
(PID.TID 0000.0001) %MON ke_max                       =   2.8296116366879E+00
(PID.TID 0000.0001) %MON ke_mean                      =   8.7879843410215E-04
(PID.TID 0000.0001) %MON ke_vol                       =   1.3350064351420E+18
(PID.TID 0000.0001) %MON vort_r_min                   =  -9.8410431147375E-05
(PID.TID 0000.0001) %MON vort_r_max                   =   1.0800014755182E-04
(PID.TID 0000.0001) %MON vort_a_mean                  =  -1.9725076036156E-05
(PID.TID 0000.0001) %MON vort_a_sd                    =   7.4539492741330E-05
(PID.TID 0000.0001) %MON vort_p_mean                  =  -2.1669080913118E-05
(PID.TID 0000.0001) %MON vort_p_sd                    =   9.3609118550905E-05
(PID.TID 0000.0001) %MON surfExpan_theta_mean         =   2.9674474838497E-05
(PID.TID 0000.0001) %MON surfExpan_salt_mean          =   3.6285451733634E-05
(PID.TID 0000.0001) // =======================================================
(PID.TID 0000.0001) // End MONITOR dynamic field statistics
(PID.TID 0000.0001) // =======================================================
(PID.TID 0000.0001) // =======================================================
(PID.TID 0000.0001) // Begin MONITOR SEAICE statistics
(PID.TID 0000.0001) // =======================================================
(PID.TID 0000.0001) %MON seaice_tsnumber              =                174781
(PID.TID 0000.0001) %MON seaice_time_sec              =   7.8651450000000E+07
(PID.TID 0000.0001) %MON seaice_uice_max              =   1.5019008973109E+00
(PID.TID 0000.0001) %MON seaice_uice_min              =  -1.2611709365937E+00
(PID.TID 0000.0001) %MON seaice_uice_mean             =   2.0647282774192E-03
(PID.TID 0000.0001) %MON seaice_uice_sd               =   1.5363980629383E-01
(PID.TID 0000.0001) %MON seaice_uice_del2             =   3.4171849687013E-04
(PID.TID 0000.0001) %MON seaice_vice_max              =   8.9009178724908E-01
(PID.TID 0000.0001) %MON seaice_vice_min              =  -1.4737087601522E+00
(PID.TID 0000.0001) %MON seaice_vice_mean             =  -2.3124830137104E-02
(PID.TID 0000.0001) %MON seaice_vice_sd               =   1.6812218858490E-01
(PID.TID 0000.0001) %MON seaice_vice_del2             =   3.2101113336952E-04
(PID.TID 0000.0001) %MON seaice_area_max              =   1.0046887717692E+00
(PID.TID 0000.0001) %MON seaice_area_min              =   0.0000000000000E+00
(PID.TID 0000.0001) %MON seaice_area_mean             =   5.7423629675999E-02
(PID.TID 0000.0001) %MON seaice_area_sd               =   2.2117540751889E-01
(PID.TID 0000.0001) %MON seaice_area_del2             =   2.9472203439605E-04
(PID.TID 0000.0001) %MON seaice_heff_max              =   9.9485498072722E+00
(PID.TID 0000.0001) %MON seaice_heff_min              =   0.0000000000000E+00
(PID.TID 0000.0001) %MON seaice_heff_mean             =   1.4973533737125E-01
(PID.TID 0000.0001) %MON seaice_heff_sd               =   7.2060052892672E-01
(PID.TID 0000.0001) %MON seaice_heff_del2             =   1.3965721583304E-03
(PID.TID 0000.0001) %MON seaice_hsnow_max             =   3.2860353682838E+00
(PID.TID 0000.0001) %MON seaice_hsnow_min             =   0.0000000000000E+00
(PID.TID 0000.0001) %MON seaice_hsnow_mean            =   1.2667052603552E-02
(PID.TID 0000.0001) %MON seaice_hsnow_sd              =   6.8450249524941E-02
(PID.TID 0000.0001) %MON seaice_hsnow_del2            =   3.8535998861808E-04
(PID.TID 0000.0001) // =======================================================
(PID.TID 0000.0001) // End MONITOR SEAICE statistics
(PID.TID 0000.0001) // =======================================================
(PID.TID 0000.0001) // =======================================================
(PID.TID 0000.0001) // Begin MONITOR dynamic field statistics
(PID.TID 0000.0001) // =======================================================
(PID.TID 0000.0001) %MON time_tsnumber                =                174782
(PID.TID 0000.0001) %MON time_secondsf                =   7.8651900000000E+07
(PID.TID 0000.0001) %MON dynstat_eta_max              =   2.1573917666183E+00
(PID.TID 0000.0001) %MON dynstat_eta_min              =  -1.1262983638117E+01
(PID.TID 0000.0001) %MON dynstat_eta_mean             =   7.4677518917034E-02
(PID.TID 0000.0001) %MON dynstat_eta_sd               =   8.5277456291468E-01
(PID.TID 0000.0001) %MON dynstat_eta_del2             =   2.0105367812026E-03
(PID.TID 0000.0001) %MON dynstat_uvel_max             =   2.3363143464396E+00
(PID.TID 0000.0001) %MON dynstat_uvel_min             =  -2.8153784171873E+00
(PID.TID 0000.0001) %MON dynstat_uvel_mean            =   4.1793150139652E-03
(PID.TID 0000.0001) %MON dynstat_uvel_sd              =   2.9604289658735E-02
(PID.TID 0000.0001) %MON dynstat_uvel_del2            =   3.5845035123980E-05
(PID.TID 0000.0001) %MON dynstat_vvel_max             =   2.1516978803564E+00
(PID.TID 0000.0001) %MON dynstat_vvel_min             =  -2.2295825195157E+00
(PID.TID 0000.0001) %MON dynstat_vvel_mean            =   2.4618721447677E-03
(PID.TID 0000.0001) %MON dynstat_vvel_sd              =   3.0424441055759E-02
(PID.TID 0000.0001) %MON dynstat_vvel_del2            =   3.3669657162267E-05
(PID.TID 0000.0001) %MON dynstat_wvel_max             =   7.0774777994432E-03
(PID.TID 0000.0001) %MON dynstat_wvel_min             =  -7.9183024271705E-03
(PID.TID 0000.0001) %MON dynstat_wvel_mean            =   8.8748459665307E-07
(PID.TID 0000.0001) %MON dynstat_wvel_sd              =   1.0707468090357E-04
(PID.TID 0000.0001) %MON dynstat_wvel_del2            =   2.5516101993400E-07
(PID.TID 0000.0001) %MON dynstat_theta_max            =   3.2409232385154E+01
(PID.TID 0000.0001) %MON dynstat_theta_min            =  -2.0370954082862E+00
(PID.TID 0000.0001) %MON dynstat_theta_mean           =   3.5920976320845E+00
(PID.TID 0000.0001) %MON dynstat_theta_sd             =   4.4421173897116E+00
(PID.TID 0000.0001) %MON dynstat_theta_del2           =   1.2406068668942E-04
(PID.TID 0000.0001) %MON dynstat_salt_max             =   4.0655991855701E+01
(PID.TID 0000.0001) %MON dynstat_salt_min             =   1.6060435974228E+01
(PID.TID 0000.0001) %MON dynstat_salt_mean            =   3.4724809622913E+01
(PID.TID 0000.0001) %MON dynstat_salt_sd              =   3.7969287112474E-01
(PID.TID 0000.0001) %MON dynstat_salt_del2            =   6.7097395661354E-05
(PID.TID 0000.0001) %MON dynstat_sst_max              =   3.2409232385154E+01
(PID.TID 0000.0001) %MON dynstat_sst_min              =  -2.0370954082862E+00
(PID.TID 0000.0001) %MON dynstat_sst_mean             =   1.8189719124799E+01
(PID.TID 0000.0001) %MON dynstat_sst_sd               =   1.0183033982191E+01
(PID.TID 0000.0001) %MON dynstat_sst_del2             =   1.1038375694880E-03
(PID.TID 0000.0001) %MON dynstat_sss_max              =   3.9465518192863E+01
(PID.TID 0000.0001) %MON dynstat_sss_min              =   1.6060435974228E+01
(PID.TID 0000.0001) %MON dynstat_sss_mean             =   3.4644832816525E+01
(PID.TID 0000.0001) %MON dynstat_sss_sd               =   1.2967112142027E+00
(PID.TID 0000.0001) %MON dynstat_sss_del2             =   1.4741646231399E-03
(PID.TID 0000.0001) %MON forcing_qnet_max             =   1.9610284423828E+03
(PID.TID 0000.0001) %MON forcing_qnet_min             =  -1.2589547705945E+03
(PID.TID 0000.0001) %MON forcing_qnet_mean            =  -3.4781533338760E+01
(PID.TID 0000.0001) %MON forcing_qnet_sd              =   2.1929816121390E+02
(PID.TID 0000.0001) %MON forcing_qnet_del2            =   4.7727881149062E-01
(PID.TID 0000.0001) %MON forcing_qsw_max              =   0.0000000000000E+00
(PID.TID 0000.0001) %MON forcing_qsw_min              =  -1.1103051902095E+02
(PID.TID 0000.0001) %MON forcing_qsw_mean             =  -2.3140991344215E+01
(PID.TID 0000.0001) %MON forcing_qsw_sd               =   3.2504743860283E+01
(PID.TID 0000.0001) %MON forcing_qsw_del2             =   2.2911628818500E-02
(PID.TID 0000.0001) %MON forcing_empmr_max            =   1.4084744267166E-02
(PID.TID 0000.0001) %MON forcing_empmr_min            =  -4.0197689086199E-02
(PID.TID 0000.0001) %MON forcing_empmr_mean           =   3.7945893283885E-06
(PID.TID 0000.0001) %MON forcing_empmr_sd             =   3.3641845180761E-04
(PID.TID 0000.0001) %MON forcing_empmr_del2           =   3.7944192543243E-06
(PID.TID 0000.0001) %MON forcing_fu_max               =   9.4476098110378E-01
(PID.TID 0000.0001) %MON forcing_fu_min               =  -9.7799482750718E-01
(PID.TID 0000.0001) %MON forcing_fu_mean              =   1.0295878092337E-02
(PID.TID 0000.0001) %MON forcing_fu_sd                =   1.2317934030381E-01
(PID.TID 0000.0001) %MON forcing_fu_del2              =   1.6372803343325E-04
(PID.TID 0000.0001) %MON forcing_fv_max               =   8.8864013552666E-01
(PID.TID 0000.0001) %MON forcing_fv_min               =  -1.8616709487991E+00
(PID.TID 0000.0001) %MON forcing_fv_mean              =  -8.2565405572420E-04
(PID.TID 0000.0001) %MON forcing_fv_sd                =   1.0742958068097E-01
(PID.TID 0000.0001) %MON forcing_fv_del2              =   1.5510966005846E-04
(PID.TID 0000.0001) %MON trAdv_CFL_u_max              =   2.9039668144792E-02
(PID.TID 0000.0001) %MON trAdv_CFL_v_max              =   2.2256774726199E-02
(PID.TID 0000.0001) %MON trAdv_CFL_w_max              =   1.0689576603523E-01
(PID.TID 0000.0001) %MON advcfl_uvel_max              =   2.9428114158647E-02
(PID.TID 0000.0001) %MON advcfl_vvel_max              =   2.1901207666696E-02
(PID.TID 0000.0001) %MON advcfl_wvel_max              =   1.0100385848943E-01
(PID.TID 0000.0001) %MON advcfl_W_hf_max              =   1.0689576603523E-01
(PID.TID 0000.0001) %MON pe_b_mean                    =   2.0336427759677E-03
(PID.TID 0000.0001) %MON ke_max                       =   2.8250992097412E+00
(PID.TID 0000.0001) %MON ke_mean                      =   8.8028503319277E-04
(PID.TID 0000.0001) %MON ke_vol                       =   1.3350064351420E+18
(PID.TID 0000.0001) %MON vort_r_min                   =  -9.8329537678299E-05
(PID.TID 0000.0001) %MON vort_r_max                   =   1.0791705834338E-04
(PID.TID 0000.0001) %MON vort_a_mean                  =  -1.9725076266738E-05
(PID.TID 0000.0001) %MON vort_a_sd                    =   7.4539498028149E-05
(PID.TID 0000.0001) %MON vort_p_mean                  =  -2.1669081166424E-05
(PID.TID 0000.0001) %MON vort_p_sd                    =   9.3609166424690E-05
(PID.TID 0000.0001) %MON surfExpan_theta_mean         =   2.9977578169293E-05
(PID.TID 0000.0001) %MON surfExpan_salt_mean          =   3.6453966061093E-05
(PID.TID 0000.0001) // =======================================================
(PID.TID 0000.0001) // End MONITOR dynamic field statistics
(PID.TID 0000.0001) // =======================================================
(PID.TID 0000.0001) // =======================================================
(PID.TID 0000.0001) // Begin MONITOR SEAICE statistics
(PID.TID 0000.0001) // =======================================================
(PID.TID 0000.0001) %MON seaice_tsnumber              =                174782
(PID.TID 0000.0001) %MON seaice_time_sec              =   7.8651900000000E+07
(PID.TID 0000.0001) %MON seaice_uice_max              =   1.5034047415672E+00
(PID.TID 0000.0001) %MON seaice_uice_min              =  -1.2578686138412E+00
(PID.TID 0000.0001) %MON seaice_uice_mean             =   2.1695197789361E-03
(PID.TID 0000.0001) %MON seaice_uice_sd               =   1.5372190428095E-01
(PID.TID 0000.0001) %MON seaice_uice_del2             =   3.4193469236077E-04
(PID.TID 0000.0001) %MON seaice_vice_max              =   8.9067632166316E-01
(PID.TID 0000.0001) %MON seaice_vice_min              =  -1.4743802550831E+00
(PID.TID 0000.0001) %MON seaice_vice_mean             =  -2.3162668140893E-02
(PID.TID 0000.0001) %MON seaice_vice_sd               =   1.6819968142283E-01
(PID.TID 0000.0001) %MON seaice_vice_del2             =   3.2118361384170E-04
(PID.TID 0000.0001) %MON seaice_area_max              =   1.0046782289123E+00
(PID.TID 0000.0001) %MON seaice_area_min              =   0.0000000000000E+00
(PID.TID 0000.0001) %MON seaice_area_mean             =   5.7425257767790E-02
(PID.TID 0000.0001) %MON seaice_area_sd               =   2.2116991437103E-01
(PID.TID 0000.0001) %MON seaice_area_del2             =   2.9452036386361E-04
(PID.TID 0000.0001) %MON seaice_heff_max              =   9.9485336136879E+00
(PID.TID 0000.0001) %MON seaice_heff_min              =   0.0000000000000E+00
(PID.TID 0000.0001) %MON seaice_heff_mean             =   1.4973156982703E-01
(PID.TID 0000.0001) %MON seaice_heff_sd               =   7.2059043571439E-01
(PID.TID 0000.0001) %MON seaice_heff_del2             =   1.3957721032558E-03
(PID.TID 0000.0001) %MON seaice_hsnow_max             =   3.2860303085272E+00
(PID.TID 0000.0001) %MON seaice_hsnow_min             =   0.0000000000000E+00
(PID.TID 0000.0001) %MON seaice_hsnow_mean            =   1.2666294362332E-02
(PID.TID 0000.0001) %MON seaice_hsnow_sd              =   6.8443276165098E-02
(PID.TID 0000.0001) %MON seaice_hsnow_del2            =   3.8506110485278E-04
(PID.TID 0000.0001) // =======================================================
(PID.TID 0000.0001) // End MONITOR SEAICE statistics
(PID.TID 0000.0001) // =======================================================
(PID.TID 0000.0001) // =======================================================
(PID.TID 0000.0001) // Begin MONITOR dynamic field statistics
(PID.TID 0000.0001) // =======================================================
(PID.TID 0000.0001) %MON time_tsnumber                =                174783
(PID.TID 0000.0001) %MON time_secondsf                =   7.8652350000000E+07
(PID.TID 0000.0001) %MON dynstat_eta_max              =   2.1221737087581E+00
(PID.TID 0000.0001) %MON dynstat_eta_min              =  -1.1225480107448E+01
(PID.TID 0000.0001) %MON dynstat_eta_mean             =   7.5150703910695E-02
(PID.TID 0000.0001) %MON dynstat_eta_sd               =   8.5354991934516E-01
(PID.TID 0000.0001) %MON dynstat_eta_del2             =   2.0103452637336E-03
(PID.TID 0000.0001) %MON dynstat_uvel_max             =   2.3399606409088E+00
(PID.TID 0000.0001) %MON dynstat_uvel_min             =  -2.8127120041520E+00
(PID.TID 0000.0001) %MON dynstat_uvel_mean            =   4.2035007781131E-03
(PID.TID 0000.0001) %MON dynstat_uvel_sd              =   2.9627137319414E-02
(PID.TID 0000.0001) %MON dynstat_uvel_del2            =   3.5883902978302E-05
(PID.TID 0000.0001) %MON dynstat_vvel_max             =   2.1448405925891E+00
(PID.TID 0000.0001) %MON dynstat_vvel_min             =  -2.2324727655326E+00
(PID.TID 0000.0001) %MON dynstat_vvel_mean            =   2.4678504651458E-03
(PID.TID 0000.0001) %MON dynstat_vvel_sd              =   3.0451349100629E-02
(PID.TID 0000.0001) %MON dynstat_vvel_del2            =   3.3712853633421E-05
(PID.TID 0000.0001) %MON dynstat_wvel_max             =   7.0941306821412E-03
(PID.TID 0000.0001) %MON dynstat_wvel_min             =  -7.9159584700570E-03
(PID.TID 0000.0001) %MON dynstat_wvel_mean            =   8.8700088768205E-07
(PID.TID 0000.0001) %MON dynstat_wvel_sd              =   1.0738895093572E-04
(PID.TID 0000.0001) %MON dynstat_wvel_del2            =   2.5587374806369E-07
(PID.TID 0000.0001) %MON dynstat_theta_max            =   3.2409805307589E+01
(PID.TID 0000.0001) %MON dynstat_theta_min            =  -2.0371481136423E+00
(PID.TID 0000.0001) %MON dynstat_theta_mean           =   3.5920951487130E+00
(PID.TID 0000.0001) %MON dynstat_theta_sd             =   4.4421117783858E+00
(PID.TID 0000.0001) %MON dynstat_theta_del2           =   1.2410396870731E-04
(PID.TID 0000.0001) %MON dynstat_salt_max             =   4.0655991841226E+01
(PID.TID 0000.0001) %MON dynstat_salt_min             =   1.6059386738764E+01
(PID.TID 0000.0001) %MON dynstat_salt_mean            =   3.4724809493020E+01
(PID.TID 0000.0001) %MON dynstat_salt_sd              =   3.7969366335605E-01
(PID.TID 0000.0001) %MON dynstat_salt_del2            =   6.7045257332749E-05
(PID.TID 0000.0001) %MON dynstat_sst_max              =   3.2409805307589E+01
(PID.TID 0000.0001) %MON dynstat_sst_min              =  -2.0371481136423E+00
(PID.TID 0000.0001) %MON dynstat_sst_mean             =   1.8189816238992E+01
(PID.TID 0000.0001) %MON dynstat_sst_sd               =   1.0183458384329E+01
(PID.TID 0000.0001) %MON dynstat_sst_del2             =   1.1037181112700E-03
(PID.TID 0000.0001) %MON dynstat_sss_max              =   3.9465324906213E+01
(PID.TID 0000.0001) %MON dynstat_sss_min              =   1.6059386738764E+01
(PID.TID 0000.0001) %MON dynstat_sss_mean             =   3.4644791252206E+01
(PID.TID 0000.0001) %MON dynstat_sss_sd               =   1.2967935275451E+00
(PID.TID 0000.0001) %MON dynstat_sss_del2             =   1.4742174340964E-03
(PID.TID 0000.0001) %MON forcing_qnet_max             =   2.0217100830078E+03
(PID.TID 0000.0001) %MON forcing_qnet_min             =  -1.8971154840167E+03
(PID.TID 0000.0001) %MON forcing_qnet_mean            =  -3.3896694319253E+01
(PID.TID 0000.0001) %MON forcing_qnet_sd              =   2.1858316976224E+02
(PID.TID 0000.0001) %MON forcing_qnet_del2            =   4.8959709744368E-01
(PID.TID 0000.0001) %MON forcing_qsw_max              =   0.0000000000000E+00
(PID.TID 0000.0001) %MON forcing_qsw_min              =  -1.1137866313421E+02
(PID.TID 0000.0001) %MON forcing_qsw_mean             =  -2.3041789355450E+01
(PID.TID 0000.0001) %MON forcing_qsw_sd               =   3.2421673597118E+01
(PID.TID 0000.0001) %MON forcing_qsw_del2             =   2.3054100339113E-02
(PID.TID 0000.0001) %MON forcing_empmr_max            =   1.7070610076189E-02
(PID.TID 0000.0001) %MON forcing_empmr_min            =  -3.9289340376854E-02
(PID.TID 0000.0001) %MON forcing_empmr_mean           =   4.3191303957639E-06
(PID.TID 0000.0001) %MON forcing_empmr_sd             =   3.4151321440271E-04
(PID.TID 0000.0001) %MON forcing_empmr_del2           =   3.8378129225194E-06
(PID.TID 0000.0001) %MON forcing_fu_max               =   9.4137941988449E-01
(PID.TID 0000.0001) %MON forcing_fu_min               =  -9.8418912352066E-01
(PID.TID 0000.0001) %MON forcing_fu_mean              =   1.0352888157093E-02
(PID.TID 0000.0001) %MON forcing_fu_sd                =   1.2322824148495E-01
(PID.TID 0000.0001) %MON forcing_fu_del2              =   1.6405299359290E-04
(PID.TID 0000.0001) %MON forcing_fv_max               =   8.9034250378609E-01
(PID.TID 0000.0001) %MON forcing_fv_min               =  -1.8720314527597E+00
(PID.TID 0000.0001) %MON forcing_fv_mean              =  -8.3233371543703E-04
(PID.TID 0000.0001) %MON forcing_fv_sd                =   1.0747159916520E-01
(PID.TID 0000.0001) %MON forcing_fv_del2              =   1.5536021283711E-04
(PID.TID 0000.0001) %MON trAdv_CFL_u_max              =   2.9012165003755E-02
(PID.TID 0000.0001) %MON trAdv_CFL_v_max              =   2.2200446150531E-02
(PID.TID 0000.0001) %MON trAdv_CFL_w_max              =   1.0677297533657E-01
(PID.TID 0000.0001) %MON advcfl_uvel_max              =   2.9400243124787E-02
(PID.TID 0000.0001) %MON advcfl_vvel_max              =   2.1845778978199E-02
(PID.TID 0000.0001) %MON advcfl_wvel_max              =   1.0089477928787E-01
(PID.TID 0000.0001) %MON advcfl_W_hf_max              =   1.0677297533657E-01
(PID.TID 0000.0001) %MON pe_b_mean                    =   2.0470766687088E-03
(PID.TID 0000.0001) %MON ke_max                       =   2.8202425763508E+00
(PID.TID 0000.0001) %MON ke_mean                      =   8.8183940962857E-04
(PID.TID 0000.0001) %MON ke_vol                       =   1.3350064351420E+18
(PID.TID 0000.0001) %MON vort_r_min                   =  -9.8245535163486E-05
(PID.TID 0000.0001) %MON vort_r_max                   =   1.0782717850368E-04
(PID.TID 0000.0001) %MON vort_a_mean                  =  -1.9725076482535E-05
(PID.TID 0000.0001) %MON vort_a_sd                    =   7.4539503264291E-05
(PID.TID 0000.0001) %MON vort_p_mean                  =  -2.1669081403489E-05
(PID.TID 0000.0001) %MON vort_p_sd                    =   9.3609213675517E-05
(PID.TID 0000.0001) %MON surfExpan_theta_mean         =   3.0217319299771E-05
(PID.TID 0000.0001) %MON surfExpan_salt_mean          =   3.6556458857365E-05
(PID.TID 0000.0001) // =======================================================
(PID.TID 0000.0001) // End MONITOR dynamic field statistics
(PID.TID 0000.0001) // =======================================================
(PID.TID 0000.0001) // =======================================================
(PID.TID 0000.0001) // Begin MONITOR SEAICE statistics
(PID.TID 0000.0001) // =======================================================
(PID.TID 0000.0001) %MON seaice_tsnumber              =                174783
(PID.TID 0000.0001) %MON seaice_time_sec              =   7.8652350000000E+07
(PID.TID 0000.0001) %MON seaice_uice_max              =   1.5046807784575E+00
(PID.TID 0000.0001) %MON seaice_uice_min              =  -1.2545303133505E+00
(PID.TID 0000.0001) %MON seaice_uice_mean             =   2.2743248134196E-03
(PID.TID 0000.0001) %MON seaice_uice_sd               =   1.5380575125879E-01
(PID.TID 0000.0001) %MON seaice_uice_del2             =   3.4218119191482E-04
(PID.TID 0000.0001) %MON seaice_vice_max              =   8.9092110759396E-01
(PID.TID 0000.0001) %MON seaice_vice_min              =  -1.4750516143926E+00
(PID.TID 0000.0001) %MON seaice_vice_mean             =  -2.3213276331427E-02
(PID.TID 0000.0001) %MON seaice_vice_sd               =   1.6828271515980E-01
(PID.TID 0000.0001) %MON seaice_vice_del2             =   3.2133711384696E-04
(PID.TID 0000.0001) %MON seaice_area_max              =   1.0046548519279E+00
(PID.TID 0000.0001) %MON seaice_area_min              =   0.0000000000000E+00
(PID.TID 0000.0001) %MON seaice_area_mean             =   5.7426889208145E-02
(PID.TID 0000.0001) %MON seaice_area_sd               =   2.2116440859527E-01
(PID.TID 0000.0001) %MON seaice_area_del2             =   2.9431088878478E-04
(PID.TID 0000.0001) %MON seaice_heff_max              =   9.9485183695687E+00
(PID.TID 0000.0001) %MON seaice_heff_min              =   0.0000000000000E+00
(PID.TID 0000.0001) %MON seaice_heff_mean             =   1.4972779675874E-01
(PID.TID 0000.0001) %MON seaice_heff_sd               =   7.2058032687111E-01
(PID.TID 0000.0001) %MON seaice_heff_del2             =   1.3949711266875E-03
(PID.TID 0000.0001) %MON seaice_hsnow_max             =   3.2860252523152E+00
(PID.TID 0000.0001) %MON seaice_hsnow_min             =   0.0000000000000E+00
(PID.TID 0000.0001) %MON seaice_hsnow_mean            =   1.2665528127319E-02
(PID.TID 0000.0001) %MON seaice_hsnow_sd              =   6.8436208444576E-02
(PID.TID 0000.0001) %MON seaice_hsnow_del2            =   3.8476077551917E-04
(PID.TID 0000.0001) // =======================================================
(PID.TID 0000.0001) // End MONITOR SEAICE statistics
(PID.TID 0000.0001) // =======================================================
(PID.TID 0000.0001) // =======================================================
(PID.TID 0000.0001) // Begin MONITOR dynamic field statistics
(PID.TID 0000.0001) // =======================================================
(PID.TID 0000.0001) %MON time_tsnumber                =                174784
(PID.TID 0000.0001) %MON time_secondsf                =   7.8652800000000E+07
(PID.TID 0000.0001) %MON dynstat_eta_max              =   2.0958984360448E+00
(PID.TID 0000.0001) %MON dynstat_eta_min              =  -1.1187137396698E+01
(PID.TID 0000.0001) %MON dynstat_eta_mean             =   7.5621962425783E-02
(PID.TID 0000.0001) %MON dynstat_eta_sd               =   8.5436328625471E-01
(PID.TID 0000.0001) %MON dynstat_eta_del2             =   2.0101801244211E-03
(PID.TID 0000.0001) %MON dynstat_uvel_max             =   2.3431813444434E+00
(PID.TID 0000.0001) %MON dynstat_uvel_min             =  -2.8098625665466E+00
(PID.TID 0000.0001) %MON dynstat_uvel_mean            =   4.2221499026683E-03
(PID.TID 0000.0001) %MON dynstat_uvel_sd              =   2.9650474296405E-02
(PID.TID 0000.0001) %MON dynstat_uvel_del2            =   3.5922243758544E-05
(PID.TID 0000.0001) %MON dynstat_vvel_max             =   2.1375665771882E+00
(PID.TID 0000.0001) %MON dynstat_vvel_min             =  -2.2353147353631E+00
(PID.TID 0000.0001) %MON dynstat_vvel_mean            =   2.4745526039563E-03
(PID.TID 0000.0001) %MON dynstat_vvel_sd              =   3.0480942180107E-02
(PID.TID 0000.0001) %MON dynstat_vvel_del2            =   3.3755735548539E-05
(PID.TID 0000.0001) %MON dynstat_wvel_max             =   7.1109892321722E-03
(PID.TID 0000.0001) %MON dynstat_wvel_min             =  -7.9124763419006E-03
(PID.TID 0000.0001) %MON dynstat_wvel_mean            =   8.8590483473843E-07
(PID.TID 0000.0001) %MON dynstat_wvel_sd              =   1.0770850188460E-04
(PID.TID 0000.0001) %MON dynstat_wvel_del2            =   2.5659011771211E-07
(PID.TID 0000.0001) %MON dynstat_theta_max            =   3.2410523217526E+01
(PID.TID 0000.0001) %MON dynstat_theta_min            =  -2.0372212533865E+00
(PID.TID 0000.0001) %MON dynstat_theta_mean           =   3.5920926247717E+00
(PID.TID 0000.0001) %MON dynstat_theta_sd             =   4.4421062186637E+00
(PID.TID 0000.0001) %MON dynstat_theta_del2           =   1.2414598449169E-04
(PID.TID 0000.0001) %MON dynstat_salt_max             =   4.0655991823079E+01
(PID.TID 0000.0001) %MON dynstat_salt_min             =   1.6058371282369E+01
(PID.TID 0000.0001) %MON dynstat_salt_mean            =   3.4724809345930E+01
(PID.TID 0000.0001) %MON dynstat_salt_sd              =   3.7969449710868E-01
(PID.TID 0000.0001) %MON dynstat_salt_del2            =   6.6991155858361E-05
(PID.TID 0000.0001) %MON dynstat_sst_max              =   3.2410523217526E+01
(PID.TID 0000.0001) %MON dynstat_sst_min              =  -2.0372212533865E+00
(PID.TID 0000.0001) %MON dynstat_sst_mean             =   1.8189913410152E+01
(PID.TID 0000.0001) %MON dynstat_sst_sd               =   1.0183887101711E+01
(PID.TID 0000.0001) %MON dynstat_sst_del2             =   1.1034938109043E-03
(PID.TID 0000.0001) %MON dynstat_sss_max              =   3.9465167056994E+01
(PID.TID 0000.0001) %MON dynstat_sss_min              =   1.6058371282369E+01
(PID.TID 0000.0001) %MON dynstat_sss_mean             =   3.4644749142097E+01
(PID.TID 0000.0001) %MON dynstat_sss_sd               =   1.2968753853392E+00
(PID.TID 0000.0001) %MON dynstat_sss_del2             =   1.4741333906931E-03
(PID.TID 0000.0001) %MON forcing_qnet_max             =   4.9733432617188E+03
(PID.TID 0000.0001) %MON forcing_qnet_min             =  -1.3727443391443E+03
(PID.TID 0000.0001) %MON forcing_qnet_mean            =  -3.3183247079842E+01
(PID.TID 0000.0001) %MON forcing_qnet_sd              =   2.1907979137961E+02
(PID.TID 0000.0001) %MON forcing_qnet_del2            =   5.3781716342341E-01
(PID.TID 0000.0001) %MON forcing_qsw_max              =   0.0000000000000E+00
(PID.TID 0000.0001) %MON forcing_qsw_min              =  -1.1161276424648E+02
(PID.TID 0000.0001) %MON forcing_qsw_mean             =  -2.2927462314749E+01
(PID.TID 0000.0001) %MON forcing_qsw_sd               =   3.2323625286432E+01
(PID.TID 0000.0001) %MON forcing_qsw_del2             =   2.3186618621705E-02
(PID.TID 0000.0001) %MON forcing_empmr_max            =   9.7673438489437E-02
(PID.TID 0000.0001) %MON forcing_empmr_min            =  -3.8947746157646E-02
(PID.TID 0000.0001) %MON forcing_empmr_mean           =   6.2572639586471E-06
(PID.TID 0000.0001) %MON forcing_empmr_sd             =   5.7029071252611E-04
(PID.TID 0000.0001) %MON forcing_empmr_del2           =   5.7219672129810E-06
(PID.TID 0000.0001) %MON forcing_fu_max               =   9.3839422692299E-01
(PID.TID 0000.0001) %MON forcing_fu_min               =  -9.9102738884452E-01
(PID.TID 0000.0001) %MON forcing_fu_mean              =   1.0407135726554E-02
(PID.TID 0000.0001) %MON forcing_fu_sd                =   1.2330749017449E-01
(PID.TID 0000.0001) %MON forcing_fu_del2              =   1.6433176024473E-04
(PID.TID 0000.0001) %MON forcing_fv_max               =   8.9718016982079E-01
(PID.TID 0000.0001) %MON forcing_fv_min               =  -1.8827416887102E+00
(PID.TID 0000.0001) %MON forcing_fv_mean              =  -8.3944063096017E-04
(PID.TID 0000.0001) %MON forcing_fv_sd                =   1.0753301612341E-01
(PID.TID 0000.0001) %MON forcing_fv_del2              =   1.5544406207472E-04
(PID.TID 0000.0001) %MON trAdv_CFL_u_max              =   2.8982774026701E-02
(PID.TID 0000.0001) %MON trAdv_CFL_v_max              =   2.2142944005273E-02
(PID.TID 0000.0001) %MON trAdv_CFL_w_max              =   1.0663020398778E-01
(PID.TID 0000.0001) %MON advcfl_uvel_max              =   2.9370459002473E-02
(PID.TID 0000.0001) %MON advcfl_vvel_max              =   2.1789195468680E-02
(PID.TID 0000.0001) %MON advcfl_wvel_max              =   1.0076619437201E-01
(PID.TID 0000.0001) %MON advcfl_W_hf_max              =   1.0663020398778E-01
(PID.TID 0000.0001) %MON pe_b_mean                    =   2.0605529805246E-03
(PID.TID 0000.0001) %MON ke_max                       =   2.8149876056593E+00
(PID.TID 0000.0001) %MON ke_mean                      =   8.8346768258662E-04
(PID.TID 0000.0001) %MON ke_vol                       =   1.3350064351420E+18
(PID.TID 0000.0001) %MON vort_r_min                   =  -9.8157352067933E-05
(PID.TID 0000.0001) %MON vort_r_max                   =   1.0772938193363E-04
(PID.TID 0000.0001) %MON vort_a_mean                  =  -1.9725076682485E-05
(PID.TID 0000.0001) %MON vort_a_sd                    =   7.4539508495159E-05
(PID.TID 0000.0001) %MON vort_p_mean                  =  -2.1669081623145E-05
(PID.TID 0000.0001) %MON vort_p_sd                    =   9.3609260517861E-05
(PID.TID 0000.0001) %MON surfExpan_theta_mean         =   3.0415297757853E-05
(PID.TID 0000.0001) %MON surfExpan_salt_mean          =   3.6620288416641E-05
(PID.TID 0000.0001) // =======================================================
(PID.TID 0000.0001) // End MONITOR dynamic field statistics
(PID.TID 0000.0001) // =======================================================
(PID.TID 0000.0001) // =======================================================
(PID.TID 0000.0001) // Begin MONITOR SEAICE statistics
(PID.TID 0000.0001) // =======================================================
(PID.TID 0000.0001) %MON seaice_tsnumber              =                174784
(PID.TID 0000.0001) %MON seaice_time_sec              =   7.8652800000000E+07
(PID.TID 0000.0001) %MON seaice_uice_max              =   1.5057124874995E+00
(PID.TID 0000.0001) %MON seaice_uice_min              =  -1.2511392644536E+00
(PID.TID 0000.0001) %MON seaice_uice_mean             =   2.3749517302409E-03
(PID.TID 0000.0001) %MON seaice_uice_sd               =   1.5388876926385E-01
(PID.TID 0000.0001) %MON seaice_uice_del2             =   3.4241384379892E-04
(PID.TID 0000.0001) %MON seaice_vice_max              =   8.9139255241533E-01
(PID.TID 0000.0001) %MON seaice_vice_min              =  -1.4757207157653E+00
(PID.TID 0000.0001) %MON seaice_vice_mean             =  -2.3255763613873E-02
(PID.TID 0000.0001) %MON seaice_vice_sd               =   1.6835398977580E-01
(PID.TID 0000.0001) %MON seaice_vice_del2             =   3.2146458847993E-04
(PID.TID 0000.0001) %MON seaice_area_max              =   1.0046191235123E+00
(PID.TID 0000.0001) %MON seaice_area_min              =   0.0000000000000E+00
(PID.TID 0000.0001) %MON seaice_area_mean             =   5.7428521635479E-02
(PID.TID 0000.0001) %MON seaice_area_sd               =   2.2115885567470E-01
(PID.TID 0000.0001) %MON seaice_area_del2             =   2.9409407031694E-04
(PID.TID 0000.0001) %MON seaice_heff_max              =   9.9485040814646E+00
(PID.TID 0000.0001) %MON seaice_heff_min              =   0.0000000000000E+00
(PID.TID 0000.0001) %MON seaice_heff_mean             =   1.4972402571295E-01
(PID.TID 0000.0001) %MON seaice_heff_sd               =   7.2057020797485E-01
(PID.TID 0000.0001) %MON seaice_heff_del2             =   1.3941690772654E-03
(PID.TID 0000.0001) %MON seaice_hsnow_max             =   3.2860204552382E+00
(PID.TID 0000.0001) %MON seaice_hsnow_min             =   0.0000000000000E+00
(PID.TID 0000.0001) %MON seaice_hsnow_mean            =   1.2664761293302E-02
(PID.TID 0000.0001) %MON seaice_hsnow_sd              =   6.8429087871684E-02
(PID.TID 0000.0001) %MON seaice_hsnow_del2            =   3.8445920420258E-04
(PID.TID 0000.0001) // =======================================================
(PID.TID 0000.0001) // End MONITOR SEAICE statistics
(PID.TID 0000.0001) // =======================================================
(PID.TID 0000.0001) // =======================================================
(PID.TID 0000.0001) // Begin MONITOR dynamic field statistics
(PID.TID 0000.0001) // =======================================================
(PID.TID 0000.0001) %MON time_tsnumber                =                174785
(PID.TID 0000.0001) %MON time_secondsf                =   7.8653250000000E+07
(PID.TID 0000.0001) %MON dynstat_eta_max              =   2.0796181890135E+00
(PID.TID 0000.0001) %MON dynstat_eta_min              =  -1.1148477546843E+01
(PID.TID 0000.0001) %MON dynstat_eta_mean             =   7.6090759099076E-02
(PID.TID 0000.0001) %MON dynstat_eta_sd               =   8.5521382991630E-01
(PID.TID 0000.0001) %MON dynstat_eta_del2             =   2.0100450975093E-03
(PID.TID 0000.0001) %MON dynstat_uvel_max             =   2.3459854783310E+00
(PID.TID 0000.0001) %MON dynstat_uvel_min             =  -2.8068093418545E+00
(PID.TID 0000.0001) %MON dynstat_uvel_mean            =   4.2353910879022E-03
(PID.TID 0000.0001) %MON dynstat_uvel_sd              =   2.9674345423655E-02
(PID.TID 0000.0001) %MON dynstat_uvel_del2            =   3.5960018623020E-05
(PID.TID 0000.0001) %MON dynstat_vvel_max             =   2.1299026672252E+00
(PID.TID 0000.0001) %MON dynstat_vvel_min             =  -2.2380928021183E+00
(PID.TID 0000.0001) %MON dynstat_vvel_mean            =   2.4819935501771E-03
(PID.TID 0000.0001) %MON dynstat_vvel_sd              =   3.0513017974896E-02
(PID.TID 0000.0001) %MON dynstat_vvel_del2            =   3.3798419797219E-05
(PID.TID 0000.0001) %MON dynstat_wvel_max             =   7.1280665853438E-03
(PID.TID 0000.0001) %MON dynstat_wvel_min             =  -7.9079487569922E-03
(PID.TID 0000.0001) %MON dynstat_wvel_mean            =   8.8358860741366E-07
(PID.TID 0000.0001) %MON dynstat_wvel_sd              =   1.0803426295917E-04
(PID.TID 0000.0001) %MON dynstat_wvel_del2            =   2.5731082806921E-07
(PID.TID 0000.0001) %MON dynstat_theta_max            =   3.2411267524242E+01
(PID.TID 0000.0001) %MON dynstat_theta_min            =  -2.0373142233048E+00
(PID.TID 0000.0001) %MON dynstat_theta_mean           =   3.5920900538639E+00
(PID.TID 0000.0001) %MON dynstat_theta_sd             =   4.4421006850409E+00
(PID.TID 0000.0001) %MON dynstat_theta_del2           =   1.2418871005063E-04
(PID.TID 0000.0001) %MON dynstat_salt_max             =   4.0655991801421E+01
(PID.TID 0000.0001) %MON dynstat_salt_min             =   1.6057384446726E+01
(PID.TID 0000.0001) %MON dynstat_salt_mean            =   3.4724809183710E+01
(PID.TID 0000.0001) %MON dynstat_salt_sd              =   3.7969536815724E-01
(PID.TID 0000.0001) %MON dynstat_salt_del2            =   6.6941584653993E-05
(PID.TID 0000.0001) %MON dynstat_sst_max              =   3.2411267524242E+01
(PID.TID 0000.0001) %MON dynstat_sst_min              =  -2.0373142233048E+00
(PID.TID 0000.0001) %MON dynstat_sst_mean             =   1.8189988702097E+01
(PID.TID 0000.0001) %MON dynstat_sst_sd               =   1.0184308383402E+01
(PID.TID 0000.0001) %MON dynstat_sst_del2             =   1.1034599440722E-03
(PID.TID 0000.0001) %MON dynstat_sss_max              =   3.9464992472562E+01
(PID.TID 0000.0001) %MON dynstat_sss_min              =   1.6057384446726E+01
(PID.TID 0000.0001) %MON dynstat_sss_mean             =   3.4644707437739E+01
(PID.TID 0000.0001) %MON dynstat_sss_sd               =   1.2969549431878E+00
(PID.TID 0000.0001) %MON dynstat_sss_del2             =   1.4743076204579E-03
(PID.TID 0000.0001) %MON forcing_qnet_max             =   7.9777817382812E+03
(PID.TID 0000.0001) %MON forcing_qnet_min             =  -1.5062463523178E+03
(PID.TID 0000.0001) %MON forcing_qnet_mean            =  -3.2088419626984E+01
(PID.TID 0000.0001) %MON forcing_qnet_sd              =   2.1982038228451E+02
(PID.TID 0000.0001) %MON forcing_qnet_del2            =   5.9274989357332E-01
(PID.TID 0000.0001) %MON forcing_qsw_max              =   0.0000000000000E+00
(PID.TID 0000.0001) %MON forcing_qsw_min              =  -1.1173256939332E+02
(PID.TID 0000.0001) %MON forcing_qsw_mean             =  -2.2798240607497E+01
(PID.TID 0000.0001) %MON forcing_qsw_sd               =   3.2210922889099E+01
(PID.TID 0000.0001) %MON forcing_qsw_del2             =   2.3308803230363E-02
(PID.TID 0000.0001) %MON forcing_empmr_max            =   1.4889445900917E-01
(PID.TID 0000.0001) %MON forcing_empmr_min            =  -3.8357183337212E-02
(PID.TID 0000.0001) %MON forcing_empmr_mean           =   7.2901546859945E-06
(PID.TID 0000.0001) %MON forcing_empmr_sd             =   7.8058283060805E-04
(PID.TID 0000.0001) %MON forcing_empmr_del2           =   7.5466052460548E-06
(PID.TID 0000.0001) %MON forcing_fu_max               =   9.3552415798365E-01
(PID.TID 0000.0001) %MON forcing_fu_min               =  -9.9686802942234E-01
(PID.TID 0000.0001) %MON forcing_fu_mean              =   1.0469520676485E-02
(PID.TID 0000.0001) %MON forcing_fu_sd                =   1.2339101139073E-01
(PID.TID 0000.0001) %MON forcing_fu_del2              =   1.6465452227996E-04
(PID.TID 0000.0001) %MON forcing_fv_max               =   8.9929911494255E-01
(PID.TID 0000.0001) %MON forcing_fv_min               =  -1.8933714499532E+00
(PID.TID 0000.0001) %MON forcing_fv_mean              =  -8.5326970932924E-04
(PID.TID 0000.0001) %MON forcing_fv_sd                =   1.0756358696142E-01
(PID.TID 0000.0001) %MON forcing_fv_del2              =   1.5566578056956E-04
(PID.TID 0000.0001) %MON trAdv_CFL_u_max              =   2.8951281055352E-02
(PID.TID 0000.0001) %MON trAdv_CFL_v_max              =   2.2084278431648E-02
(PID.TID 0000.0001) %MON trAdv_CFL_w_max              =   1.0647004281164E-01
(PID.TID 0000.0001) %MON advcfl_uvel_max              =   2.9338544768762E-02
(PID.TID 0000.0001) %MON advcfl_vvel_max              =   2.1731467117351E-02
(PID.TID 0000.0001) %MON advcfl_wvel_max              =   1.0062072962652E-01
(PID.TID 0000.0001) %MON advcfl_W_hf_max              =   1.0647004281164E-01
(PID.TID 0000.0001) %MON pe_b_mean                    =   2.0740579038386E-03
(PID.TID 0000.0001) %MON ke_max                       =   2.8092810440885E+00
(PID.TID 0000.0001) %MON ke_mean                      =   8.8516572028968E-04
(PID.TID 0000.0001) %MON ke_vol                       =   1.3350064351420E+18
(PID.TID 0000.0001) %MON vort_r_min                   =  -9.8064098436216E-05
(PID.TID 0000.0001) %MON vort_r_max                   =   1.0762255148651E-04
(PID.TID 0000.0001) %MON vort_a_mean                  =  -1.9725076865926E-05
(PID.TID 0000.0001) %MON vort_a_sd                    =   7.4539513763191E-05
(PID.TID 0000.0001) %MON vort_p_mean                  =  -2.1669081824665E-05
(PID.TID 0000.0001) %MON vort_p_sd                    =   9.3609307006799E-05
(PID.TID 0000.0001) %MON surfExpan_theta_mean         =   3.0552619590578E-05
(PID.TID 0000.0001) %MON surfExpan_salt_mean          =   3.6611895058876E-05
(PID.TID 0000.0001) // =======================================================
(PID.TID 0000.0001) // End MONITOR dynamic field statistics
(PID.TID 0000.0001) // =======================================================
(PID.TID 0000.0001) // =======================================================
(PID.TID 0000.0001) // Begin MONITOR SEAICE statistics
(PID.TID 0000.0001) // =======================================================
(PID.TID 0000.0001) %MON seaice_tsnumber              =                174785
(PID.TID 0000.0001) %MON seaice_time_sec              =   7.8653250000000E+07
(PID.TID 0000.0001) %MON seaice_uice_max              =   1.5064952902286E+00
(PID.TID 0000.0001) %MON seaice_uice_min              =  -1.2476602906519E+00
(PID.TID 0000.0001) %MON seaice_uice_mean             =   2.4768505559178E-03
(PID.TID 0000.0001) %MON seaice_uice_sd               =   1.5397618747923E-01
(PID.TID 0000.0001) %MON seaice_uice_del2             =   3.4269146249981E-04
(PID.TID 0000.0001) %MON seaice_vice_max              =   8.9175457321931E-01
(PID.TID 0000.0001) %MON seaice_vice_min              =  -1.4763829883893E+00
(PID.TID 0000.0001) %MON seaice_vice_mean             =  -2.3303655534460E-02
(PID.TID 0000.0001) %MON seaice_vice_sd               =   1.6842557805398E-01
(PID.TID 0000.0001) %MON seaice_vice_del2             =   3.2155460781074E-04
(PID.TID 0000.0001) %MON seaice_area_max              =   1.0045723175332E+00
(PID.TID 0000.0001) %MON seaice_area_min              =   0.0000000000000E+00
(PID.TID 0000.0001) %MON seaice_area_mean             =   5.7430145098535E-02
(PID.TID 0000.0001) %MON seaice_area_sd               =   2.2115326583472E-01
(PID.TID 0000.0001) %MON seaice_area_del2             =   2.9387716248241E-04
(PID.TID 0000.0001) %MON seaice_heff_max              =   9.9484897904281E+00
(PID.TID 0000.0001) %MON seaice_heff_min              =   0.0000000000000E+00
(PID.TID 0000.0001) %MON seaice_heff_mean             =   1.4972024567098E-01
(PID.TID 0000.0001) %MON seaice_heff_sd               =   7.2056004187488E-01
(PID.TID 0000.0001) %MON seaice_heff_del2             =   1.3933670738719E-03
(PID.TID 0000.0001) %MON seaice_hsnow_max             =   3.2860156450044E+00
(PID.TID 0000.0001) %MON seaice_hsnow_min             =   0.0000000000000E+00
(PID.TID 0000.0001) %MON seaice_hsnow_mean            =   1.2663992347078E-02
(PID.TID 0000.0001) %MON seaice_hsnow_sd              =   6.8421960001346E-02
(PID.TID 0000.0001) %MON seaice_hsnow_del2            =   3.8415657369500E-04
(PID.TID 0000.0001) // =======================================================
(PID.TID 0000.0001) // End MONITOR SEAICE statistics
(PID.TID 0000.0001) // =======================================================
(PID.TID 0000.0001) // =======================================================
(PID.TID 0000.0001) // Begin MONITOR dynamic field statistics
(PID.TID 0000.0001) // =======================================================
(PID.TID 0000.0001) %MON time_tsnumber                =                174786
(PID.TID 0000.0001) %MON time_secondsf                =   7.8653700000000E+07
(PID.TID 0000.0001) %MON dynstat_eta_max              =   2.0670786297744E+00
(PID.TID 0000.0001) %MON dynstat_eta_min              =  -1.1109829415219E+01
(PID.TID 0000.0001) %MON dynstat_eta_mean             =   7.6557895920016E-02
(PID.TID 0000.0001) %MON dynstat_eta_sd               =   8.5609991745627E-01
(PID.TID 0000.0001) %MON dynstat_eta_del2             =   2.0099399611764E-03
(PID.TID 0000.0001) %MON dynstat_uvel_max             =   2.3483884844434E+00
(PID.TID 0000.0001) %MON dynstat_uvel_min             =  -2.8035392795329E+00
(PID.TID 0000.0001) %MON dynstat_uvel_mean            =   4.2433791444107E-03
(PID.TID 0000.0001) %MON dynstat_uvel_sd              =   2.9698824569561E-02
(PID.TID 0000.0001) %MON dynstat_uvel_del2            =   3.5997417681952E-05
(PID.TID 0000.0001) %MON dynstat_vvel_max             =   2.1218776986850E+00
(PID.TID 0000.0001) %MON dynstat_vvel_min             =  -2.2407933450161E+00
(PID.TID 0000.0001) %MON dynstat_vvel_mean            =   2.4901708581010E-03
(PID.TID 0000.0001) %MON dynstat_vvel_sd              =   3.0547559883213E-02
(PID.TID 0000.0001) %MON dynstat_vvel_del2            =   3.3841046815791E-05
(PID.TID 0000.0001) %MON dynstat_wvel_max             =   7.1453721219697E-03
(PID.TID 0000.0001) %MON dynstat_wvel_min             =  -7.9024765676490E-03
(PID.TID 0000.0001) %MON dynstat_wvel_mean            =   8.7978509818689E-07
(PID.TID 0000.0001) %MON dynstat_wvel_sd              =   1.0836663921891E-04
(PID.TID 0000.0001) %MON dynstat_wvel_del2            =   2.5803653976947E-07
(PID.TID 0000.0001) %MON dynstat_theta_max            =   3.2412033210176E+01
(PID.TID 0000.0001) %MON dynstat_theta_min            =  -2.0374258265768E+00
(PID.TID 0000.0001) %MON dynstat_theta_mean           =   3.5920874446249E+00
(PID.TID 0000.0001) %MON dynstat_theta_sd             =   4.4420952076954E+00
(PID.TID 0000.0001) %MON dynstat_theta_del2           =   1.2422960883387E-04
(PID.TID 0000.0001) %MON dynstat_salt_max             =   4.0655991776436E+01
(PID.TID 0000.0001) %MON dynstat_salt_min             =   1.6056420049975E+01
(PID.TID 0000.0001) %MON dynstat_salt_mean            =   3.4724809005236E+01
(PID.TID 0000.0001) %MON dynstat_salt_sd              =   3.7969630475655E-01
(PID.TID 0000.0001) %MON dynstat_salt_del2            =   6.6887258395716E-05
(PID.TID 0000.0001) %MON dynstat_sst_max              =   3.2412033210176E+01
(PID.TID 0000.0001) %MON dynstat_sst_min              =  -2.0374258265768E+00
(PID.TID 0000.0001) %MON dynstat_sst_mean             =   1.8190056397360E+01
(PID.TID 0000.0001) %MON dynstat_sst_sd               =   1.0184728471881E+01
(PID.TID 0000.0001) %MON dynstat_sst_del2             =   1.1032352722736E-03
(PID.TID 0000.0001) %MON dynstat_sss_max              =   3.9464846442935E+01
(PID.TID 0000.0001) %MON dynstat_sss_min              =   1.6056420049975E+01
(PID.TID 0000.0001) %MON dynstat_sss_mean             =   3.4644665146220E+01
(PID.TID 0000.0001) %MON dynstat_sss_sd               =   1.2970371033253E+00
(PID.TID 0000.0001) %MON dynstat_sss_del2             =   1.4741587446100E-03
(PID.TID 0000.0001) %MON forcing_qnet_max             =   1.9453728027344E+03
(PID.TID 0000.0001) %MON forcing_qnet_min             =  -1.2282077635060E+03
(PID.TID 0000.0001) %MON forcing_qnet_mean            =  -3.1376332261317E+01
(PID.TID 0000.0001) %MON forcing_qnet_sd              =   2.1557350278798E+02
(PID.TID 0000.0001) %MON forcing_qnet_del2            =   4.8765621049617E-01
(PID.TID 0000.0001) %MON forcing_qsw_max              =   0.0000000000000E+00
(PID.TID 0000.0001) %MON forcing_qsw_min              =  -1.1173791740227E+02
(PID.TID 0000.0001) %MON forcing_qsw_mean             =  -2.2653994742660E+01
(PID.TID 0000.0001) %MON forcing_qsw_sd               =   3.2084131203930E+01
(PID.TID 0000.0001) %MON forcing_qsw_del2             =   2.3420310352199E-02
(PID.TID 0000.0001) %MON forcing_empmr_max            =   1.7534680664539E-02
(PID.TID 0000.0001) %MON forcing_empmr_min            =  -3.8642175495625E-02
(PID.TID 0000.0001) %MON forcing_empmr_mean           =   4.2150998316330E-06
(PID.TID 0000.0001) %MON forcing_empmr_sd             =   3.3975702495360E-04
(PID.TID 0000.0001) %MON forcing_empmr_del2           =   3.7934280545080E-06
(PID.TID 0000.0001) %MON forcing_fu_max               =   9.3247562647921E-01
(PID.TID 0000.0001) %MON forcing_fu_min               =  -1.0066437356653E+00
(PID.TID 0000.0001) %MON forcing_fu_mean              =   1.0531954681228E-02
(PID.TID 0000.0001) %MON forcing_fu_sd                =   1.2350880510523E-01
(PID.TID 0000.0001) %MON forcing_fu_del2              =   1.6492831307243E-04
(PID.TID 0000.0001) %MON forcing_fv_max               =   9.0010923147202E-01
(PID.TID 0000.0001) %MON forcing_fv_min               =  -1.9038690093921E+00
(PID.TID 0000.0001) %MON forcing_fv_mean              =  -8.6257621541542E-04
(PID.TID 0000.0001) %MON forcing_fv_sd                =   1.0762616740620E-01
(PID.TID 0000.0001) %MON forcing_fv_del2              =   1.5562940986376E-04
(PID.TID 0000.0001) %MON trAdv_CFL_u_max              =   2.8917551477809E-02
(PID.TID 0000.0001) %MON trAdv_CFL_v_max              =   2.2024336116745E-02
(PID.TID 0000.0001) %MON trAdv_CFL_w_max              =   1.0629436660347E-01
(PID.TID 0000.0001) %MON advcfl_uvel_max              =   2.9304364011134E-02
(PID.TID 0000.0001) %MON advcfl_vvel_max              =   2.1672482421550E-02
(PID.TID 0000.0001) %MON advcfl_wvel_max              =   1.0046025234090E-01
(PID.TID 0000.0001) %MON advcfl_W_hf_max              =   1.0629436660347E-01
(PID.TID 0000.0001) %MON pe_b_mean                    =   2.0876114339595E-03
(PID.TID 0000.0001) %MON ke_max                       =   2.8030845651512E+00
(PID.TID 0000.0001) %MON ke_mean                      =   8.8693585268551E-04
(PID.TID 0000.0001) %MON ke_vol                       =   1.3350064351420E+18
(PID.TID 0000.0001) %MON vort_r_min                   =  -9.7964782836324E-05
(PID.TID 0000.0001) %MON vort_r_max                   =   1.0750584536371E-04
(PID.TID 0000.0001) %MON vort_a_mean                  =  -1.9725077032360E-05
(PID.TID 0000.0001) %MON vort_a_sd                    =   7.4539519109170E-05
(PID.TID 0000.0001) %MON vort_p_mean                  =  -2.1669082007502E-05
(PID.TID 0000.0001) %MON vort_p_sd                    =   9.3609353121348E-05
(PID.TID 0000.0001) %MON surfExpan_theta_mean         =   3.0635619049081E-05
(PID.TID 0000.0001) %MON surfExpan_salt_mean          =   3.6526157327086E-05
(PID.TID 0000.0001) // =======================================================
(PID.TID 0000.0001) // End MONITOR dynamic field statistics
(PID.TID 0000.0001) // =======================================================
(PID.TID 0000.0001) // =======================================================
(PID.TID 0000.0001) // Begin MONITOR SEAICE statistics
(PID.TID 0000.0001) // =======================================================
(PID.TID 0000.0001) %MON seaice_tsnumber              =                174786
(PID.TID 0000.0001) %MON seaice_time_sec              =   7.8653700000000E+07
(PID.TID 0000.0001) %MON seaice_uice_max              =   1.5070279402354E+00
(PID.TID 0000.0001) %MON seaice_uice_min              =  -1.2440627901354E+00
(PID.TID 0000.0001) %MON seaice_uice_mean             =   2.5721610864158E-03
(PID.TID 0000.0001) %MON seaice_uice_sd               =   1.5405660321950E-01
(PID.TID 0000.0001) %MON seaice_uice_del2             =   3.4284756322337E-04
(PID.TID 0000.0001) %MON seaice_vice_max              =   8.9211842061694E-01
(PID.TID 0000.0001) %MON seaice_vice_min              =  -1.4770343395648E+00
(PID.TID 0000.0001) %MON seaice_vice_mean             =  -2.3348182308334E-02
(PID.TID 0000.0001) %MON seaice_vice_sd               =   1.6848830331172E-01
(PID.TID 0000.0001) %MON seaice_vice_del2             =   3.2162115542051E-04
(PID.TID 0000.0001) %MON seaice_area_max              =   1.0045152407479E+00
(PID.TID 0000.0001) %MON seaice_area_min              =   0.0000000000000E+00
(PID.TID 0000.0001) %MON seaice_area_mean             =   5.7431771891207E-02
(PID.TID 0000.0001) %MON seaice_area_sd               =   2.2114769096074E-01
(PID.TID 0000.0001) %MON seaice_area_del2             =   2.9365883150909E-04
(PID.TID 0000.0001) %MON seaice_heff_max              =   9.9484755002028E+00
(PID.TID 0000.0001) %MON seaice_heff_min              =   0.0000000000000E+00
(PID.TID 0000.0001) %MON seaice_heff_mean             =   1.4971646243538E-01
(PID.TID 0000.0001) %MON seaice_heff_sd               =   7.2054984299113E-01
(PID.TID 0000.0001) %MON seaice_heff_del2             =   1.3925662849248E-03
(PID.TID 0000.0001) %MON seaice_hsnow_max             =   3.2860108288587E+00
(PID.TID 0000.0001) %MON seaice_hsnow_min             =   0.0000000000000E+00
(PID.TID 0000.0001) %MON seaice_hsnow_mean            =   1.2663223429249E-02
(PID.TID 0000.0001) %MON seaice_hsnow_sd              =   6.8414832282668E-02
(PID.TID 0000.0001) %MON seaice_hsnow_del2            =   3.8385344730756E-04
(PID.TID 0000.0001) // =======================================================
(PID.TID 0000.0001) // End MONITOR SEAICE statistics
(PID.TID 0000.0001) // =======================================================
(PID.TID 0000.0001) // =======================================================
(PID.TID 0000.0001) // Begin MONITOR dynamic field statistics
(PID.TID 0000.0001) // =======================================================
(PID.TID 0000.0001) %MON time_tsnumber                =                174787
(PID.TID 0000.0001) %MON time_secondsf                =   7.8654150000000E+07
(PID.TID 0000.0001) %MON dynstat_eta_max              =   2.0714549821036E+00
(PID.TID 0000.0001) %MON dynstat_eta_min              =  -1.1071498306097E+01
(PID.TID 0000.0001) %MON dynstat_eta_mean             =   7.7021335050623E-02
(PID.TID 0000.0001) %MON dynstat_eta_sd               =   8.5702160716183E-01
(PID.TID 0000.0001) %MON dynstat_eta_del2             =   2.0098631016390E-03
(PID.TID 0000.0001) %MON dynstat_uvel_max             =   2.3504112975611E+00
(PID.TID 0000.0001) %MON dynstat_uvel_min             =  -2.8000450732631E+00
(PID.TID 0000.0001) %MON dynstat_uvel_mean            =   4.2462946754447E-03
(PID.TID 0000.0001) %MON dynstat_uvel_sd              =   2.9723974641660E-02
(PID.TID 0000.0001) %MON dynstat_uvel_del2            =   3.6034409538443E-05
(PID.TID 0000.0001) %MON dynstat_vvel_max             =   2.1135160763212E+00
(PID.TID 0000.0001) %MON dynstat_vvel_min             =  -2.2433981461570E+00
(PID.TID 0000.0001) %MON dynstat_vvel_mean            =   2.4990938832035E-03
(PID.TID 0000.0001) %MON dynstat_vvel_sd              =   3.0584358296272E-02
(PID.TID 0000.0001) %MON dynstat_vvel_del2            =   3.3883784036901E-05
(PID.TID 0000.0001) %MON dynstat_wvel_max             =   7.1629160322182E-03
(PID.TID 0000.0001) %MON dynstat_wvel_min             =  -7.8961583268322E-03
(PID.TID 0000.0001) %MON dynstat_wvel_mean            =   8.7497718876907E-07
(PID.TID 0000.0001) %MON dynstat_wvel_sd              =   1.0870693752505E-04
(PID.TID 0000.0001) %MON dynstat_wvel_del2            =   2.5876900595884E-07
(PID.TID 0000.0001) %MON dynstat_theta_max            =   3.2412820298150E+01
(PID.TID 0000.0001) %MON dynstat_theta_min            =  -2.0375542408076E+00
(PID.TID 0000.0001) %MON dynstat_theta_mean           =   3.5920847996915E+00
(PID.TID 0000.0001) %MON dynstat_theta_sd             =   4.4420898028305E+00
(PID.TID 0000.0001) %MON dynstat_theta_del2           =   1.2427127156045E-04
(PID.TID 0000.0001) %MON dynstat_salt_max             =   4.0655991748323E+01
(PID.TID 0000.0001) %MON dynstat_salt_min             =   1.6055461613583E+01
(PID.TID 0000.0001) %MON dynstat_salt_mean            =   3.4724808813363E+01
(PID.TID 0000.0001) %MON dynstat_salt_sd              =   3.7969729136495E-01
(PID.TID 0000.0001) %MON dynstat_salt_del2            =   6.6837918875876E-05
(PID.TID 0000.0001) %MON dynstat_sst_max              =   3.2412820298150E+01
(PID.TID 0000.0001) %MON dynstat_sst_min              =  -2.0375542408076E+00
(PID.TID 0000.0001) %MON dynstat_sst_mean             =   1.8190104211096E+01
(PID.TID 0000.0001) %MON dynstat_sst_sd               =   1.0185141338289E+01
(PID.TID 0000.0001) %MON dynstat_sst_del2             =   1.1032159777139E-03
(PID.TID 0000.0001) %MON dynstat_sss_max              =   3.9464705624449E+01
(PID.TID 0000.0001) %MON dynstat_sss_min              =   1.6055461613583E+01
(PID.TID 0000.0001) %MON dynstat_sss_mean             =   3.4644623428630E+01
(PID.TID 0000.0001) %MON dynstat_sss_sd               =   1.2971184510397E+00
(PID.TID 0000.0001) %MON dynstat_sss_del2             =   1.4743008185597E-03
(PID.TID 0000.0001) %MON forcing_qnet_max             =   2.6136520996094E+03
(PID.TID 0000.0001) %MON forcing_qnet_min             =  -1.3182398610250E+03
(PID.TID 0000.0001) %MON forcing_qnet_mean            =  -3.0319888770070E+01
(PID.TID 0000.0001) %MON forcing_qnet_sd              =   2.1418638875629E+02
(PID.TID 0000.0001) %MON forcing_qnet_del2            =   4.8608753695696E-01
(PID.TID 0000.0001) %MON forcing_qsw_max              =   0.0000000000000E+00
(PID.TID 0000.0001) %MON forcing_qsw_min              =  -1.1162878574299E+02
(PID.TID 0000.0001) %MON forcing_qsw_mean             =  -2.2494736933875E+01
(PID.TID 0000.0001) %MON forcing_qsw_sd               =   3.1943747642049E+01
(PID.TID 0000.0001) %MON forcing_qsw_del2             =   2.3520821617332E-02
(PID.TID 0000.0001) %MON forcing_empmr_max            =   1.5557653270662E-02
(PID.TID 0000.0001) %MON forcing_empmr_min            =  -3.8783024996519E-02
(PID.TID 0000.0001) %MON forcing_empmr_mean           =   4.0073346203357E-06
(PID.TID 0000.0001) %MON forcing_empmr_sd             =   3.2993294783134E-04
(PID.TID 0000.0001) %MON forcing_empmr_del2           =   3.7137438103626E-06
(PID.TID 0000.0001) %MON forcing_fu_max               =   9.2899286225947E-01
(PID.TID 0000.0001) %MON forcing_fu_min               =  -1.0220631925136E+00
(PID.TID 0000.0001) %MON forcing_fu_mean              =   1.0601086303142E-02
(PID.TID 0000.0001) %MON forcing_fu_sd                =   1.2360841860584E-01
(PID.TID 0000.0001) %MON forcing_fu_del2              =   1.6520829995537E-04
(PID.TID 0000.0001) %MON forcing_fv_max               =   8.9879184961319E-01
(PID.TID 0000.0001) %MON forcing_fv_min               =  -1.9139525107967E+00
(PID.TID 0000.0001) %MON forcing_fv_mean              =  -8.7016564362654E-04
(PID.TID 0000.0001) %MON forcing_fv_sd                =   1.0770315262660E-01
(PID.TID 0000.0001) %MON forcing_fv_del2              =   1.5585045637540E-04
(PID.TID 0000.0001) %MON trAdv_CFL_u_max              =   2.8881509931890E-02
(PID.TID 0000.0001) %MON trAdv_CFL_v_max              =   2.1963100010250E-02
(PID.TID 0000.0001) %MON trAdv_CFL_w_max              =   1.0610435855156E-01
(PID.TID 0000.0001) %MON advcfl_uvel_max              =   2.9267840359332E-02
(PID.TID 0000.0001) %MON advcfl_vvel_max              =   2.1612224603355E-02
(PID.TID 0000.0001) %MON advcfl_wvel_max              =   1.0028579805077E-01
(PID.TID 0000.0001) %MON advcfl_W_hf_max              =   1.0610435855156E-01
(PID.TID 0000.0001) %MON pe_b_mean                    =   2.1011616534644E-03
(PID.TID 0000.0001) %MON ke_max                       =   2.7963727274792E+00
(PID.TID 0000.0001) %MON ke_mean                      =   8.8877464701239E-04
(PID.TID 0000.0001) %MON ke_vol                       =   1.3350064351420E+18
(PID.TID 0000.0001) %MON vort_r_min                   =  -9.7858891612905E-05
(PID.TID 0000.0001) %MON vort_r_max                   =   1.0737867009081E-04
(PID.TID 0000.0001) %MON vort_a_mean                  =  -1.9725077181667E-05
(PID.TID 0000.0001) %MON vort_a_sd                    =   7.4539524570394E-05
(PID.TID 0000.0001) %MON vort_p_mean                  =  -2.1669082171525E-05
(PID.TID 0000.0001) %MON vort_p_sd                    =   9.3609399100026E-05
(PID.TID 0000.0001) %MON surfExpan_theta_mean         =   3.0667107942879E-05
(PID.TID 0000.0001) %MON surfExpan_salt_mean          =   3.6377167096441E-05
(PID.TID 0000.0001) // =======================================================
(PID.TID 0000.0001) // End MONITOR dynamic field statistics
(PID.TID 0000.0001) // =======================================================
(PID.TID 0000.0001) // =======================================================
(PID.TID 0000.0001) // Begin MONITOR SEAICE statistics
(PID.TID 0000.0001) // =======================================================
(PID.TID 0000.0001) %MON seaice_tsnumber              =                174787
(PID.TID 0000.0001) %MON seaice_time_sec              =   7.8654150000000E+07
(PID.TID 0000.0001) %MON seaice_uice_max              =   1.5073176815318E+00
(PID.TID 0000.0001) %MON seaice_uice_min              =  -1.2403358661047E+00
(PID.TID 0000.0001) %MON seaice_uice_mean             =   2.6663265616116E-03
(PID.TID 0000.0001) %MON seaice_uice_sd               =   1.5413854705345E-01
(PID.TID 0000.0001) %MON seaice_uice_del2             =   3.4302269621666E-04
(PID.TID 0000.0001) %MON seaice_vice_max              =   8.9509960061162E-01
(PID.TID 0000.0001) %MON seaice_vice_min              =  -1.4776722531949E+00
(PID.TID 0000.0001) %MON seaice_vice_mean             =  -2.3394749503878E-02
(PID.TID 0000.0001) %MON seaice_vice_sd               =   1.6854730839075E-01
(PID.TID 0000.0001) %MON seaice_vice_del2             =   3.2167131451792E-04
(PID.TID 0000.0001) %MON seaice_area_max              =   1.0044460981149E+00
(PID.TID 0000.0001) %MON seaice_area_min              =   0.0000000000000E+00
(PID.TID 0000.0001) %MON seaice_area_mean             =   5.7433398189188E-02
(PID.TID 0000.0001) %MON seaice_area_sd               =   2.2114210786032E-01
(PID.TID 0000.0001) %MON seaice_area_del2             =   2.9344156242233E-04
(PID.TID 0000.0001) %MON seaice_heff_max              =   9.9484621634857E+00
(PID.TID 0000.0001) %MON seaice_heff_min              =   0.0000000000000E+00
(PID.TID 0000.0001) %MON seaice_heff_mean             =   1.4971267530732E-01
(PID.TID 0000.0001) %MON seaice_heff_sd               =   7.2053961267373E-01
(PID.TID 0000.0001) %MON seaice_heff_del2             =   1.3917674889542E-03
(PID.TID 0000.0001) %MON seaice_hsnow_max             =   3.2860060210402E+00
(PID.TID 0000.0001) %MON seaice_hsnow_min             =   0.0000000000000E+00
(PID.TID 0000.0001) %MON seaice_hsnow_mean            =   1.2662461370945E-02
(PID.TID 0000.0001) %MON seaice_hsnow_sd              =   6.8407658885462E-02
(PID.TID 0000.0001) %MON seaice_hsnow_del2            =   3.8355032866983E-04
(PID.TID 0000.0001) // =======================================================
(PID.TID 0000.0001) // End MONITOR SEAICE statistics
(PID.TID 0000.0001) // =======================================================
(PID.TID 0000.0001) // =======================================================
(PID.TID 0000.0001) // Begin MONITOR dynamic field statistics
(PID.TID 0000.0001) // =======================================================
(PID.TID 0000.0001) %MON time_tsnumber                =                174788
(PID.TID 0000.0001) %MON time_secondsf                =   7.8654600000000E+07
(PID.TID 0000.0001) %MON dynstat_eta_max              =   2.0715342566963E+00
(PID.TID 0000.0001) %MON dynstat_eta_min              =  -1.1033759155092E+01
(PID.TID 0000.0001) %MON dynstat_eta_mean             =   7.7480461251474E-02
(PID.TID 0000.0001) %MON dynstat_eta_sd               =   8.5797821267493E-01
(PID.TID 0000.0001) %MON dynstat_eta_del2             =   2.0098098437712E-03
(PID.TID 0000.0001) %MON dynstat_uvel_max             =   2.3520718902826E+00
(PID.TID 0000.0001) %MON dynstat_uvel_min             =  -2.7963131731256E+00
(PID.TID 0000.0001) %MON dynstat_uvel_mean            =   4.2443472385149E-03
(PID.TID 0000.0001) %MON dynstat_uvel_sd              =   2.9749899293758E-02
(PID.TID 0000.0001) %MON dynstat_uvel_del2            =   3.6071181362207E-05
(PID.TID 0000.0001) %MON dynstat_vvel_max             =   2.1048510298248E+00
(PID.TID 0000.0001) %MON dynstat_vvel_min             =  -2.2458910151947E+00
(PID.TID 0000.0001) %MON dynstat_vvel_mean            =   2.5087738875000E-03
(PID.TID 0000.0001) %MON dynstat_vvel_sd              =   3.0623333513756E-02
(PID.TID 0000.0001) %MON dynstat_vvel_del2            =   3.3926759812604E-05
(PID.TID 0000.0001) %MON dynstat_wvel_max             =   7.1807184264059E-03
(PID.TID 0000.0001) %MON dynstat_wvel_min             =  -7.8890920988979E-03
(PID.TID 0000.0001) %MON dynstat_wvel_mean            =   8.6940831764228E-07
(PID.TID 0000.0001) %MON dynstat_wvel_sd              =   1.0905558101695E-04
(PID.TID 0000.0001) %MON dynstat_wvel_del2            =   2.5950944403177E-07
(PID.TID 0000.0001) %MON dynstat_theta_max            =   3.2413621151525E+01
(PID.TID 0000.0001) %MON dynstat_theta_min            =  -2.0376977211455E+00
(PID.TID 0000.0001) %MON dynstat_theta_mean           =   3.5920821226762E+00
(PID.TID 0000.0001) %MON dynstat_theta_sd             =   4.4420844789951E+00
(PID.TID 0000.0001) %MON dynstat_theta_del2           =   1.2431118592033E-04
(PID.TID 0000.0001) %MON dynstat_salt_max             =   4.0655991717293E+01
(PID.TID 0000.0001) %MON dynstat_salt_min             =   1.6054493252708E+01
(PID.TID 0000.0001) %MON dynstat_salt_mean            =   3.4724808605201E+01
(PID.TID 0000.0001) %MON dynstat_salt_sd              =   3.7969832412801E-01
(PID.TID 0000.0001) %MON dynstat_salt_del2            =   6.6784196962589E-05
(PID.TID 0000.0001) %MON dynstat_sst_max              =   3.2413621151525E+01
(PID.TID 0000.0001) %MON dynstat_sst_min              =  -2.0376977211455E+00
(PID.TID 0000.0001) %MON dynstat_sst_mean             =   1.8190140941092E+01
(PID.TID 0000.0001) %MON dynstat_sst_sd               =   1.0185551272093E+01
(PID.TID 0000.0001) %MON dynstat_sst_del2             =   1.1029968536754E-03
(PID.TID 0000.0001) %MON dynstat_sss_max              =   3.9464598690993E+01
(PID.TID 0000.0001) %MON dynstat_sss_min              =   1.6054493252708E+01
(PID.TID 0000.0001) %MON dynstat_sss_mean             =   3.4644580743943E+01
(PID.TID 0000.0001) %MON dynstat_sss_sd               =   1.2972000060395E+00
(PID.TID 0000.0001) %MON dynstat_sss_del2             =   1.4741449862119E-03
(PID.TID 0000.0001) %MON forcing_qnet_max             =   1.5624417724609E+03
(PID.TID 0000.0001) %MON forcing_qnet_min             =  -1.2276030866198E+03
(PID.TID 0000.0001) %MON forcing_qnet_mean            =  -2.9205014444617E+01
(PID.TID 0000.0001) %MON forcing_qnet_sd              =   2.1284461486717E+02
(PID.TID 0000.0001) %MON forcing_qnet_del2            =   4.6699751551870E-01
(PID.TID 0000.0001) %MON forcing_qsw_max              =   0.0000000000000E+00
(PID.TID 0000.0001) %MON forcing_qsw_min              =  -1.1140533499157E+02
(PID.TID 0000.0001) %MON forcing_qsw_mean             =  -2.2320333005847E+01
(PID.TID 0000.0001) %MON forcing_qsw_sd               =   3.1790383585992E+01
(PID.TID 0000.0001) %MON forcing_qsw_del2             =   2.3609913469074E-02
(PID.TID 0000.0001) %MON forcing_empmr_max            =   1.6715550795197E-02
(PID.TID 0000.0001) %MON forcing_empmr_min            =  -3.7674140185118E-02
(PID.TID 0000.0001) %MON forcing_empmr_mean           =   3.8224543760376E-06
(PID.TID 0000.0001) %MON forcing_empmr_sd             =   3.2767994629755E-04
(PID.TID 0000.0001) %MON forcing_empmr_del2           =   3.6768123230223E-06
(PID.TID 0000.0001) %MON forcing_fu_max               =   9.2481109575383E-01
(PID.TID 0000.0001) %MON forcing_fu_min               =  -1.0325037691853E+00
(PID.TID 0000.0001) %MON forcing_fu_mean              =   1.0674502633423E-02
(PID.TID 0000.0001) %MON forcing_fu_sd                =   1.2371758861818E-01
(PID.TID 0000.0001) %MON forcing_fu_del2              =   1.6529151654776E-04
(PID.TID 0000.0001) %MON forcing_fv_max               =   8.9668938517570E-01
(PID.TID 0000.0001) %MON forcing_fv_min               =  -1.9232837884802E+00
(PID.TID 0000.0001) %MON forcing_fv_mean              =  -8.8529172361181E-04
(PID.TID 0000.0001) %MON forcing_fv_sd                =   1.0776601037861E-01
(PID.TID 0000.0001) %MON forcing_fv_del2              =   1.5599709885088E-04
(PID.TID 0000.0001) %MON trAdv_CFL_u_max              =   2.8843016654793E-02
(PID.TID 0000.0001) %MON trAdv_CFL_v_max              =   2.1900487813018E-02
(PID.TID 0000.0001) %MON trAdv_CFL_w_max              =   1.0590175371864E-01
(PID.TID 0000.0001) %MON advcfl_uvel_max              =   2.9228832181033E-02
(PID.TID 0000.0001) %MON advcfl_vvel_max              =   2.1550612678407E-02
(PID.TID 0000.0001) %MON advcfl_wvel_max              =   1.0009897592549E-01
(PID.TID 0000.0001) %MON advcfl_W_hf_max              =   1.0590175371864E-01
(PID.TID 0000.0001) %MON pe_b_mean                    =   2.1146940529899E-03
(PID.TID 0000.0001) %MON ke_max                       =   2.7891135425492E+00
(PID.TID 0000.0001) %MON ke_mean                      =   8.9068387308843E-04
(PID.TID 0000.0001) %MON ke_vol                       =   1.3350064351420E+18
(PID.TID 0000.0001) %MON vort_r_min                   =  -9.7745613854290E-05
(PID.TID 0000.0001) %MON vort_r_max                   =   1.0724033460165E-04
(PID.TID 0000.0001) %MON vort_a_mean                  =  -1.9725077313709E-05
(PID.TID 0000.0001) %MON vort_a_sd                    =   7.4539530185867E-05
(PID.TID 0000.0001) %MON vort_p_mean                  =  -2.1669082316579E-05
(PID.TID 0000.0001) %MON vort_p_sd                    =   9.3609445150451E-05
(PID.TID 0000.0001) %MON surfExpan_theta_mean         =   3.0650073574780E-05
(PID.TID 0000.0001) %MON surfExpan_salt_mean          =   3.6176443898106E-05
(PID.TID 0000.0001) // =======================================================
(PID.TID 0000.0001) // End MONITOR dynamic field statistics
(PID.TID 0000.0001) // =======================================================
(PID.TID 0000.0001) // =======================================================
(PID.TID 0000.0001) // Begin MONITOR SEAICE statistics
(PID.TID 0000.0001) // =======================================================
(PID.TID 0000.0001) %MON seaice_tsnumber              =                174788
(PID.TID 0000.0001) %MON seaice_time_sec              =   7.8654600000000E+07
(PID.TID 0000.0001) %MON seaice_uice_max              =   1.5073643211922E+00
(PID.TID 0000.0001) %MON seaice_uice_min              =  -1.2364604104320E+00
(PID.TID 0000.0001) %MON seaice_uice_mean             =   2.7575158821487E-03
(PID.TID 0000.0001) %MON seaice_uice_sd               =   1.5421795724795E-01
(PID.TID 0000.0001) %MON seaice_uice_del2             =   3.4316391246394E-04
(PID.TID 0000.0001) %MON seaice_vice_max              =   8.9889739248976E-01
(PID.TID 0000.0001) %MON seaice_vice_min              =  -1.4782938950104E+00
(PID.TID 0000.0001) %MON seaice_vice_mean             =  -2.3438132990169E-02
(PID.TID 0000.0001) %MON seaice_vice_sd               =   1.6859710715822E-01
(PID.TID 0000.0001) %MON seaice_vice_del2             =   3.2171458902703E-04
(PID.TID 0000.0001) %MON seaice_area_max              =   1.0043663547543E+00
(PID.TID 0000.0001) %MON seaice_area_min              =   0.0000000000000E+00
(PID.TID 0000.0001) %MON seaice_area_mean             =   5.7435009253133E-02
(PID.TID 0000.0001) %MON seaice_area_sd               =   2.2113652179377E-01
(PID.TID 0000.0001) %MON seaice_area_del2             =   2.9323052499025E-04
(PID.TID 0000.0001) %MON seaice_heff_max              =   9.9484469196223E+00
(PID.TID 0000.0001) %MON seaice_heff_min              =   0.0000000000000E+00
(PID.TID 0000.0001) %MON seaice_heff_mean             =   1.4970887846097E-01
(PID.TID 0000.0001) %MON seaice_heff_sd               =   7.2052935487537E-01
(PID.TID 0000.0001) %MON seaice_heff_del2             =   1.3909721728676E-03
(PID.TID 0000.0001) %MON seaice_hsnow_max             =   3.2860011964048E+00
(PID.TID 0000.0001) %MON seaice_hsnow_min             =   0.0000000000000E+00
(PID.TID 0000.0001) %MON seaice_hsnow_mean            =   1.2661685449739E-02
(PID.TID 0000.0001) %MON seaice_hsnow_sd              =   6.8400389364261E-02
(PID.TID 0000.0001) %MON seaice_hsnow_del2            =   3.8324746811254E-04
(PID.TID 0000.0001) // =======================================================
(PID.TID 0000.0001) // End MONITOR SEAICE statistics
(PID.TID 0000.0001) // =======================================================
(PID.TID 0000.0001) // =======================================================
(PID.TID 0000.0001) // Begin MONITOR dynamic field statistics
(PID.TID 0000.0001) // =======================================================
(PID.TID 0000.0001) %MON time_tsnumber                =                174789
(PID.TID 0000.0001) %MON time_secondsf                =   7.8655050000000E+07
(PID.TID 0000.0001) %MON dynstat_eta_max              =   2.1061272677418E+00
(PID.TID 0000.0001) %MON dynstat_eta_min              =  -1.0996845770757E+01
(PID.TID 0000.0001) %MON dynstat_eta_mean             =   7.7934903938365E-02
(PID.TID 0000.0001) %MON dynstat_eta_sd               =   8.5896869277407E-01
(PID.TID 0000.0001) %MON dynstat_eta_del2             =   2.0097770560489E-03
(PID.TID 0000.0001) %MON dynstat_uvel_max             =   2.3533843035035E+00
(PID.TID 0000.0001) %MON dynstat_uvel_min             =  -2.7923387467811E+00
(PID.TID 0000.0001) %MON dynstat_uvel_mean            =   4.2377857699154E-03
(PID.TID 0000.0001) %MON dynstat_uvel_sd              =   2.9776609746655E-02
(PID.TID 0000.0001) %MON dynstat_uvel_del2            =   3.6107590005481E-05
(PID.TID 0000.0001) %MON dynstat_vvel_max             =   2.0959122338166E+00
(PID.TID 0000.0001) %MON dynstat_vvel_min             =  -2.2482552319563E+00
(PID.TID 0000.0001) %MON dynstat_vvel_mean            =   2.5192306044926E-03
(PID.TID 0000.0001) %MON dynstat_vvel_sd              =   3.0663855560363E-02
(PID.TID 0000.0001) %MON dynstat_vvel_del2            =   3.3969910387071E-05
(PID.TID 0000.0001) %MON dynstat_wvel_max             =   7.1987960581250E-03
(PID.TID 0000.0001) %MON dynstat_wvel_min             =  -7.8813297914082E-03
(PID.TID 0000.0001) %MON dynstat_wvel_mean            =   8.6346489831568E-07
(PID.TID 0000.0001) %MON dynstat_wvel_sd              =   1.0941312846738E-04
(PID.TID 0000.0001) %MON dynstat_wvel_del2            =   2.6025850279577E-07
(PID.TID 0000.0001) %MON dynstat_theta_max            =   3.2414463472993E+01
(PID.TID 0000.0001) %MON dynstat_theta_min            =  -2.0378544177401E+00
(PID.TID 0000.0001) %MON dynstat_theta_mean           =   3.5920793816729E+00
(PID.TID 0000.0001) %MON dynstat_theta_sd             =   4.4420791680966E+00
(PID.TID 0000.0001) %MON dynstat_theta_del2           =   1.2435198513525E-04
(PID.TID 0000.0001) %MON dynstat_salt_max             =   4.0655991683566E+01
(PID.TID 0000.0001) %MON dynstat_salt_min             =   1.6053508346433E+01
(PID.TID 0000.0001) %MON dynstat_salt_mean            =   3.4724808382807E+01
(PID.TID 0000.0001) %MON dynstat_salt_sd              =   3.7969940790170E-01
(PID.TID 0000.0001) %MON dynstat_salt_del2            =   6.6735390967612E-05
(PID.TID 0000.0001) %MON dynstat_sst_max              =   3.2414463472993E+01
(PID.TID 0000.0001) %MON dynstat_sst_min              =  -2.0378544177401E+00
(PID.TID 0000.0001) %MON dynstat_sst_mean             =   1.8190112340399E+01
(PID.TID 0000.0001) %MON dynstat_sst_sd               =   1.0185945744538E+01
(PID.TID 0000.0001) %MON dynstat_sst_del2             =   1.1029888821818E-03
(PID.TID 0000.0001) %MON dynstat_sss_max              =   3.9464501501743E+01
(PID.TID 0000.0001) %MON dynstat_sss_min              =   1.6053508346433E+01
(PID.TID 0000.0001) %MON dynstat_sss_mean             =   3.4644536744457E+01
(PID.TID 0000.0001) %MON dynstat_sss_sd               =   1.2972819320625E+00
(PID.TID 0000.0001) %MON dynstat_sss_del2             =   1.4742783976155E-03
(PID.TID 0000.0001) %MON forcing_qnet_max             =   1.5847866210938E+03
(PID.TID 0000.0001) %MON forcing_qnet_min             =  -1.1518903077753E+03
(PID.TID 0000.0001) %MON forcing_qnet_mean            =  -2.6828727190368E+01
(PID.TID 0000.0001) %MON forcing_qnet_sd              =   2.0999573077960E+02
(PID.TID 0000.0001) %MON forcing_qnet_del2            =   4.6341215728659E-01
(PID.TID 0000.0001) %MON forcing_qsw_max              =   0.0000000000000E+00
(PID.TID 0000.0001) %MON forcing_qsw_min              =  -1.1095936729479E+02
(PID.TID 0000.0001) %MON forcing_qsw_mean             =  -2.1824225377812E+01
(PID.TID 0000.0001) %MON forcing_qsw_sd               =   3.1442629781998E+01
(PID.TID 0000.0001) %MON forcing_qsw_del2             =   2.3965828184953E-02
(PID.TID 0000.0001) %MON forcing_empmr_max            =   1.8289962783456E-02
(PID.TID 0000.0001) %MON forcing_empmr_min            =  -3.7330608814955E-02
(PID.TID 0000.0001) %MON forcing_empmr_mean           =   3.8192038218259E-06
(PID.TID 0000.0001) %MON forcing_empmr_sd             =   3.2886419494142E-04
(PID.TID 0000.0001) %MON forcing_empmr_del2           =   3.6768083903932E-06
(PID.TID 0000.0001) %MON forcing_fu_max               =   9.1985074581051E-01
(PID.TID 0000.0001) %MON forcing_fu_min               =  -1.0347291188079E+00
(PID.TID 0000.0001) %MON forcing_fu_mean              =   1.0746845695727E-02
(PID.TID 0000.0001) %MON forcing_fu_sd                =   1.2383182778843E-01
(PID.TID 0000.0001) %MON forcing_fu_del2              =   1.6532933975894E-04
(PID.TID 0000.0001) %MON forcing_fv_max               =   9.0036243200302E-01
(PID.TID 0000.0001) %MON forcing_fv_min               =  -1.9319669849272E+00
(PID.TID 0000.0001) %MON forcing_fv_mean              =  -9.1018561941758E-04
(PID.TID 0000.0001) %MON forcing_fv_sd                =   1.0780020476260E-01
(PID.TID 0000.0001) %MON forcing_fv_del2              =   1.5611308749894E-04
(PID.TID 0000.0001) %MON trAdv_CFL_u_max              =   2.8802021802590E-02
(PID.TID 0000.0001) %MON trAdv_CFL_v_max              =   2.1836505676986E-02
(PID.TID 0000.0001) %MON trAdv_CFL_w_max              =   1.0568695451478E-01
(PID.TID 0000.0001) %MON advcfl_uvel_max              =   2.9187288965576E-02
(PID.TID 0000.0001) %MON advcfl_vvel_max              =   2.1487652700357E-02
(PID.TID 0000.0001) %MON advcfl_wvel_max              =   9.9900053509167E-02
(PID.TID 0000.0001) %MON advcfl_W_hf_max              =   1.0568695451478E-01
(PID.TID 0000.0001) %MON pe_b_mean                    =   2.1281987090924E-03
(PID.TID 0000.0001) %MON ke_max                       =   2.7812928738724E+00
(PID.TID 0000.0001) %MON ke_mean                      =   8.9264663790882E-04
(PID.TID 0000.0001) %MON ke_vol                       =   1.3350064351420E+18
(PID.TID 0000.0001) %MON vort_r_min                   =  -9.7624654274414E-05
(PID.TID 0000.0001) %MON vort_r_max                   =   1.0709048580470E-04
(PID.TID 0000.0001) %MON vort_a_mean                  =  -1.9725077428585E-05
(PID.TID 0000.0001) %MON vort_a_sd                    =   7.4539535996195E-05
(PID.TID 0000.0001) %MON vort_p_mean                  =  -2.1669082442777E-05
(PID.TID 0000.0001) %MON vort_p_sd                    =   9.3609491545145E-05
(PID.TID 0000.0001) %MON surfExpan_theta_mean         =   3.0598345136981E-05
(PID.TID 0000.0001) %MON surfExpan_salt_mean          =   3.5947708705410E-05
(PID.TID 0000.0001) // =======================================================
(PID.TID 0000.0001) // End MONITOR dynamic field statistics
(PID.TID 0000.0001) // =======================================================
(PID.TID 0000.0001) // =======================================================
(PID.TID 0000.0001) // Begin MONITOR SEAICE statistics
(PID.TID 0000.0001) // =======================================================
(PID.TID 0000.0001) %MON seaice_tsnumber              =                174789
(PID.TID 0000.0001) %MON seaice_time_sec              =   7.8655050000000E+07
(PID.TID 0000.0001) %MON seaice_uice_max              =   1.5071730818066E+00
(PID.TID 0000.0001) %MON seaice_uice_min              =  -1.2323874024947E+00
(PID.TID 0000.0001) %MON seaice_uice_mean             =   2.8454487725467E-03
(PID.TID 0000.0001) %MON seaice_uice_sd               =   1.5429206355806E-01
(PID.TID 0000.0001) %MON seaice_uice_del2             =   3.4314868396951E-04
(PID.TID 0000.0001) %MON seaice_vice_max              =   9.0237658997479E-01
(PID.TID 0000.0001) %MON seaice_vice_min              =  -1.4788980998098E+00
(PID.TID 0000.0001) %MON seaice_vice_mean             =  -2.3476008894935E-02
(PID.TID 0000.0001) %MON seaice_vice_sd               =   1.6865122820676E-01
(PID.TID 0000.0001) %MON seaice_vice_del2             =   3.2175180343606E-04
(PID.TID 0000.0001) %MON seaice_area_max              =   1.0042788312642E+00
(PID.TID 0000.0001) %MON seaice_area_min              =   0.0000000000000E+00
(PID.TID 0000.0001) %MON seaice_area_mean             =   5.7436611710577E-02
(PID.TID 0000.0001) %MON seaice_area_sd               =   2.2113093685121E-01
(PID.TID 0000.0001) %MON seaice_area_del2             =   2.9302622485517E-04
(PID.TID 0000.0001) %MON seaice_heff_max              =   9.9484326297278E+00
(PID.TID 0000.0001) %MON seaice_heff_min              =   0.0000000000000E+00
(PID.TID 0000.0001) %MON seaice_heff_mean             =   1.4970507958999E-01
(PID.TID 0000.0001) %MON seaice_heff_sd               =   7.2051908350351E-01
(PID.TID 0000.0001) %MON seaice_heff_del2             =   1.3901805187107E-03
(PID.TID 0000.0001) %MON seaice_hsnow_max             =   3.2859961332934E+00
(PID.TID 0000.0001) %MON seaice_hsnow_min             =   0.0000000000000E+00
(PID.TID 0000.0001) %MON seaice_hsnow_mean            =   1.2660914405792E-02
(PID.TID 0000.0001) %MON seaice_hsnow_sd              =   6.8393165413878E-02
(PID.TID 0000.0001) %MON seaice_hsnow_del2            =   3.8294550779924E-04
(PID.TID 0000.0001) // =======================================================
(PID.TID 0000.0001) // End MONITOR SEAICE statistics
(PID.TID 0000.0001) // =======================================================
(PID.TID 0000.0001) // =======================================================
(PID.TID 0000.0001) // Begin MONITOR dynamic field statistics
(PID.TID 0000.0001) // =======================================================
(PID.TID 0000.0001) %MON time_tsnumber                =                174790
(PID.TID 0000.0001) %MON time_secondsf                =   7.8655500000000E+07
(PID.TID 0000.0001) %MON dynstat_eta_max              =   2.1375119216977E+00
(PID.TID 0000.0001) %MON dynstat_eta_min              =  -1.0960910767757E+01
(PID.TID 0000.0001) %MON dynstat_eta_mean             =   7.8384226745991E-02
(PID.TID 0000.0001) %MON dynstat_eta_sd               =   8.5999227833644E-01
(PID.TID 0000.0001) %MON dynstat_eta_del2             =   2.0097605663679E-03
(PID.TID 0000.0001) %MON dynstat_uvel_max             =   2.3543607891471E+00
(PID.TID 0000.0001) %MON dynstat_uvel_min             =  -2.7881264286694E+00
(PID.TID 0000.0001) %MON dynstat_uvel_mean            =   4.2268737783956E-03
(PID.TID 0000.0001) %MON dynstat_uvel_sd              =   2.9804383092675E-02
(PID.TID 0000.0001) %MON dynstat_uvel_del2            =   3.6143911235239E-05
(PID.TID 0000.0001) %MON dynstat_vvel_max             =   2.0867257537875E+00
(PID.TID 0000.0001) %MON dynstat_vvel_min             =  -2.2504750054201E+00
(PID.TID 0000.0001) %MON dynstat_vvel_mean            =   2.5304828072322E-03
(PID.TID 0000.0001) %MON dynstat_vvel_sd              =   3.0706454689426E-02
(PID.TID 0000.0001) %MON dynstat_vvel_del2            =   3.4013500034072E-05
(PID.TID 0000.0001) %MON dynstat_wvel_max             =   7.2171585207075E-03
(PID.TID 0000.0001) %MON dynstat_wvel_min             =  -7.8729489733366E-03
(PID.TID 0000.0001) %MON dynstat_wvel_mean            =   8.5694498227236E-07
(PID.TID 0000.0001) %MON dynstat_wvel_sd              =   1.0978005688087E-04
(PID.TID 0000.0001) %MON dynstat_wvel_del2            =   2.6101650045666E-07
(PID.TID 0000.0001) %MON dynstat_theta_max            =   3.2415321796848E+01
(PID.TID 0000.0001) %MON dynstat_theta_min            =  -2.0380223930967E+00
(PID.TID 0000.0001) %MON dynstat_theta_mean           =   3.5920766430136E+00
(PID.TID 0000.0001) %MON dynstat_theta_sd             =   4.4420740888718E+00
(PID.TID 0000.0001) %MON dynstat_theta_del2           =   1.2439072658084E-04
(PID.TID 0000.0001) %MON dynstat_salt_max             =   4.0655991647369E+01
(PID.TID 0000.0001) %MON dynstat_salt_min             =   1.6052504013258E+01
(PID.TID 0000.0001) %MON dynstat_salt_mean            =   3.4724808147111E+01
(PID.TID 0000.0001) %MON dynstat_salt_sd              =   3.7970054034535E-01
(PID.TID 0000.0001) %MON dynstat_salt_del2            =   6.6681869587374E-05
(PID.TID 0000.0001) %MON dynstat_sst_max              =   3.2415321796848E+01
(PID.TID 0000.0001) %MON dynstat_sst_min              =  -2.0380223930967E+00
(PID.TID 0000.0001) %MON dynstat_sst_mean             =   1.8190100258693E+01
(PID.TID 0000.0001) %MON dynstat_sst_sd               =   1.0186348584185E+01
(PID.TID 0000.0001) %MON dynstat_sst_del2             =   1.1027586311158E-03
(PID.TID 0000.0001) %MON dynstat_sss_max              =   3.9464421309279E+01
(PID.TID 0000.0001) %MON dynstat_sss_min              =   1.6052504013258E+01
(PID.TID 0000.0001) %MON dynstat_sss_mean             =   3.4644492552297E+01
(PID.TID 0000.0001) %MON dynstat_sss_sd               =   1.2973647563625E+00
(PID.TID 0000.0001) %MON dynstat_sss_del2             =   1.4740980115832E-03
(PID.TID 0000.0001) %MON forcing_qnet_max             =   1.6217777099609E+03
(PID.TID 0000.0001) %MON forcing_qnet_min             =  -1.0934195028455E+03
(PID.TID 0000.0001) %MON forcing_qnet_mean            =  -2.6569090938919E+01
(PID.TID 0000.0001) %MON forcing_qnet_sd              =   2.0890960502309E+02
(PID.TID 0000.0001) %MON forcing_qnet_del2            =   4.6007214932219E-01
(PID.TID 0000.0001) %MON forcing_qsw_max              =   0.0000000000000E+00
(PID.TID 0000.0001) %MON forcing_qsw_min              =  -1.1083663028381E+02
(PID.TID 0000.0001) %MON forcing_qsw_mean             =  -2.1724433583611E+01
(PID.TID 0000.0001) %MON forcing_qsw_sd               =   3.1343000131619E+01
(PID.TID 0000.0001) %MON forcing_qsw_del2             =   2.4083538220548E-02
(PID.TID 0000.0001) %MON forcing_empmr_max            =   2.0244704559445E-02
(PID.TID 0000.0001) %MON forcing_empmr_min            =  -3.6515813320875E-02
(PID.TID 0000.0001) %MON forcing_empmr_mean           =   3.7426990495590E-06
(PID.TID 0000.0001) %MON forcing_empmr_sd             =   3.3071317642307E-04
(PID.TID 0000.0001) %MON forcing_empmr_del2           =   3.6785958798318E-06
(PID.TID 0000.0001) %MON forcing_fu_max               =   9.1387817518836E-01
(PID.TID 0000.0001) %MON forcing_fu_min               =  -1.0457658006772E+00
(PID.TID 0000.0001) %MON forcing_fu_mean              =   1.0811990358588E-02
(PID.TID 0000.0001) %MON forcing_fu_sd                =   1.2392075680251E-01
(PID.TID 0000.0001) %MON forcing_fu_del2              =   1.6540212857175E-04
(PID.TID 0000.0001) %MON forcing_fv_max               =   9.0832495689392E-01
(PID.TID 0000.0001) %MON forcing_fv_min               =  -1.9395198885114E+00
(PID.TID 0000.0001) %MON forcing_fv_mean              =  -9.3301852283766E-04
(PID.TID 0000.0001) %MON forcing_fv_sd                =   1.0782284428407E-01
(PID.TID 0000.0001) %MON forcing_fv_del2              =   1.5616930938596E-04
(PID.TID 0000.0001) %MON trAdv_CFL_u_max              =   2.8758573177944E-02
(PID.TID 0000.0001) %MON trAdv_CFL_v_max              =   2.1771113314113E-02
(PID.TID 0000.0001) %MON trAdv_CFL_w_max              =   1.0546194194339E-01
(PID.TID 0000.0001) %MON advcfl_uvel_max              =   2.9143259155051E-02
(PID.TID 0000.0001) %MON advcfl_vvel_max              =   2.1423305024797E-02
(PID.TID 0000.0001) %MON advcfl_wvel_max              =   9.9691011778700E-02
(PID.TID 0000.0001) %MON advcfl_W_hf_max              =   1.0546194194339E-01
(PID.TID 0000.0001) %MON pe_b_mean                    =   2.1416652745826E-03
(PID.TID 0000.0001) %MON ke_max                       =   2.7729127565090E+00
(PID.TID 0000.0001) %MON ke_mean                      =   8.9468808242309E-04
(PID.TID 0000.0001) %MON ke_vol                       =   1.3350064351420E+18
(PID.TID 0000.0001) %MON vort_r_min                   =  -9.7495895595396E-05
(PID.TID 0000.0001) %MON vort_r_max                   =   1.0692905968888E-04
(PID.TID 0000.0001) %MON vort_a_mean                  =  -1.9725077526589E-05
(PID.TID 0000.0001) %MON vort_a_sd                    =   7.4539542044035E-05
(PID.TID 0000.0001) %MON vort_p_mean                  =  -2.1669082550440E-05
(PID.TID 0000.0001) %MON vort_p_sd                    =   9.3609538522631E-05
(PID.TID 0000.0001) %MON surfExpan_theta_mean         =   3.0514210278463E-05
(PID.TID 0000.0001) %MON surfExpan_salt_mean          =   3.5676125639485E-05
(PID.TID 0000.0001) // =======================================================
(PID.TID 0000.0001) // End MONITOR dynamic field statistics
(PID.TID 0000.0001) // =======================================================
(PID.TID 0000.0001) // =======================================================
(PID.TID 0000.0001) // Begin MONITOR SEAICE statistics
(PID.TID 0000.0001) // =======================================================
(PID.TID 0000.0001) %MON seaice_tsnumber              =                174790
(PID.TID 0000.0001) %MON seaice_time_sec              =   7.8655500000000E+07
(PID.TID 0000.0001) %MON seaice_uice_max              =   1.5067396869395E+00
(PID.TID 0000.0001) %MON seaice_uice_min              =  -1.2281188427182E+00
(PID.TID 0000.0001) %MON seaice_uice_mean             =   2.9263725550504E-03
(PID.TID 0000.0001) %MON seaice_uice_sd               =   1.5436573588893E-01
(PID.TID 0000.0001) %MON seaice_uice_del2             =   3.4327491969085E-04
(PID.TID 0000.0001) %MON seaice_vice_max              =   9.0553314368980E-01
(PID.TID 0000.0001) %MON seaice_vice_min              =  -1.4795249785038E+00
(PID.TID 0000.0001) %MON seaice_vice_mean             =  -2.3484215256329E-02
(PID.TID 0000.0001) %MON seaice_vice_sd               =   1.6866764986716E-01
(PID.TID 0000.0001) %MON seaice_vice_del2             =   3.2175046170702E-04
(PID.TID 0000.0001) %MON seaice_area_max              =   1.0041872388742E+00
(PID.TID 0000.0001) %MON seaice_area_min              =   0.0000000000000E+00
(PID.TID 0000.0001) %MON seaice_area_mean             =   5.7438231990180E-02
(PID.TID 0000.0001) %MON seaice_area_sd               =   2.2112543885639E-01
(PID.TID 0000.0001) %MON seaice_area_del2             =   2.9282845871731E-04
(PID.TID 0000.0001) %MON seaice_heff_max              =   9.9484154799109E+00
(PID.TID 0000.0001) %MON seaice_heff_min              =   0.0000000000000E+00
(PID.TID 0000.0001) %MON seaice_heff_mean             =   1.4970127101259E-01
(PID.TID 0000.0001) %MON seaice_heff_sd               =   7.2050874965309E-01
(PID.TID 0000.0001) %MON seaice_heff_del2             =   1.3893934520204E-03
(PID.TID 0000.0001) %MON seaice_hsnow_max             =   3.2859910566126E+00
(PID.TID 0000.0001) %MON seaice_hsnow_min             =   0.0000000000000E+00
(PID.TID 0000.0001) %MON seaice_hsnow_mean            =   1.2660156071881E-02
(PID.TID 0000.0001) %MON seaice_hsnow_sd              =   6.8385920981453E-02
(PID.TID 0000.0001) %MON seaice_hsnow_del2            =   3.8264398842121E-04
(PID.TID 0000.0001) // =======================================================
(PID.TID 0000.0001) // End MONITOR SEAICE statistics
(PID.TID 0000.0001) // =======================================================
(PID.TID 0000.0001) // =======================================================
(PID.TID 0000.0001) // Begin MONITOR dynamic field statistics
(PID.TID 0000.0001) // =======================================================
(PID.TID 0000.0001) %MON time_tsnumber                =                174791
(PID.TID 0000.0001) %MON time_secondsf                =   7.8655950000000E+07
(PID.TID 0000.0001) %MON dynstat_eta_max              =   2.1604717735383E+00
(PID.TID 0000.0001) %MON dynstat_eta_min              =  -1.0926052207482E+01
(PID.TID 0000.0001) %MON dynstat_eta_mean             =   7.8827516995175E-02
(PID.TID 0000.0001) %MON dynstat_eta_sd               =   8.6104757928558E-01
(PID.TID 0000.0001) %MON dynstat_eta_del2             =   2.0097578118581E-03
(PID.TID 0000.0001) %MON dynstat_uvel_max             =   2.3550161206291E+00
(PID.TID 0000.0001) %MON dynstat_uvel_min             =  -2.7836682936314E+00
(PID.TID 0000.0001) %MON dynstat_uvel_mean            =   4.2118788247978E-03
(PID.TID 0000.0001) %MON dynstat_uvel_sd              =   2.9833273156941E-02
(PID.TID 0000.0001) %MON dynstat_uvel_del2            =   3.6180158416605E-05
(PID.TID 0000.0001) %MON dynstat_vvel_max             =   2.0773157610076E+00
(PID.TID 0000.0001) %MON dynstat_vvel_min             =  -2.2525313521772E+00
(PID.TID 0000.0001) %MON dynstat_vvel_mean            =   2.5425388683607E-03
(PID.TID 0000.0001) %MON dynstat_vvel_sd              =   3.0750681818731E-02
(PID.TID 0000.0001) %MON dynstat_vvel_del2            =   3.4057611210468E-05
(PID.TID 0000.0001) %MON dynstat_wvel_max             =   7.2358025079686E-03
(PID.TID 0000.0001) %MON dynstat_wvel_min             =  -7.8640339141790E-03
(PID.TID 0000.0001) %MON dynstat_wvel_mean            =   8.4916398721815E-07
(PID.TID 0000.0001) %MON dynstat_wvel_sd              =   1.1015656040110E-04
(PID.TID 0000.0001) %MON dynstat_wvel_del2            =   2.6178412067885E-07
(PID.TID 0000.0001) %MON dynstat_theta_max            =   3.2416192546025E+01
(PID.TID 0000.0001) %MON dynstat_theta_min            =  -2.0381984972324E+00
(PID.TID 0000.0001) %MON dynstat_theta_mean           =   3.5920738819734E+00
(PID.TID 0000.0001) %MON dynstat_theta_sd             =   4.4420691203421E+00
(PID.TID 0000.0001) %MON dynstat_theta_del2           =   1.2443078716765E-04
(PID.TID 0000.0001) %MON dynstat_salt_max             =   4.0655991608930E+01
(PID.TID 0000.0001) %MON dynstat_salt_min             =   1.6051475682334E+01
(PID.TID 0000.0001) %MON dynstat_salt_mean            =   3.4724807898689E+01
(PID.TID 0000.0001) %MON dynstat_salt_sd              =   3.7970171523127E-01
(PID.TID 0000.0001) %MON dynstat_salt_del2            =   6.6633175042727E-05
(PID.TID 0000.0001) %MON dynstat_sst_max              =   3.2416192546025E+01
(PID.TID 0000.0001) %MON dynstat_sst_min              =  -2.0381984972324E+00
(PID.TID 0000.0001) %MON dynstat_sst_mean             =   1.8190066337530E+01
(PID.TID 0000.0001) %MON dynstat_sst_sd               =   1.0186741498862E+01
(PID.TID 0000.0001) %MON dynstat_sst_del2             =   1.1027231517310E-03
(PID.TID 0000.0001) %MON dynstat_sss_max              =   3.9464364075165E+01
(PID.TID 0000.0001) %MON dynstat_sss_min              =   1.6051475682334E+01
(PID.TID 0000.0001) %MON dynstat_sss_mean             =   3.4644448225264E+01
(PID.TID 0000.0001) %MON dynstat_sss_sd               =   1.2974469473202E+00
(PID.TID 0000.0001) %MON dynstat_sss_del2             =   1.4742029684437E-03
(PID.TID 0000.0001) %MON forcing_qnet_max             =   1.6228721923828E+03
(PID.TID 0000.0001) %MON forcing_qnet_min             =  -1.0333185827963E+03
(PID.TID 0000.0001) %MON forcing_qnet_mean            =  -2.5225231457080E+01
(PID.TID 0000.0001) %MON forcing_qnet_sd              =   2.0794011641561E+02
(PID.TID 0000.0001) %MON forcing_qnet_del2            =   4.6129472720266E-01
(PID.TID 0000.0001) %MON forcing_qsw_max              =   0.0000000000000E+00
(PID.TID 0000.0001) %MON forcing_qsw_min              =  -1.1079558949890E+02
(PID.TID 0000.0001) %MON forcing_qsw_mean             =  -2.1610968632536E+01
(PID.TID 0000.0001) %MON forcing_qsw_sd               =   3.1230751577593E+01
(PID.TID 0000.0001) %MON forcing_qsw_del2             =   2.4189116589833E-02
(PID.TID 0000.0001) %MON forcing_empmr_max            =   2.3258300498128E-02
(PID.TID 0000.0001) %MON forcing_empmr_min            =  -3.6674998700619E-02
(PID.TID 0000.0001) %MON forcing_empmr_mean           =   3.7236830291663E-06
(PID.TID 0000.0001) %MON forcing_empmr_sd             =   3.3576808557586E-04
(PID.TID 0000.0001) %MON forcing_empmr_del2           =   3.7121536852943E-06
(PID.TID 0000.0001) %MON forcing_fu_max               =   9.0681090947740E-01
(PID.TID 0000.0001) %MON forcing_fu_min               =  -1.0544747901615E+00
(PID.TID 0000.0001) %MON forcing_fu_mean              =   1.0880058780746E-02
(PID.TID 0000.0001) %MON forcing_fu_sd                =   1.2401347335503E-01
(PID.TID 0000.0001) %MON forcing_fu_del2              =   1.6530778018370E-04
(PID.TID 0000.0001) %MON forcing_fv_max               =   9.1371726989746E-01
(PID.TID 0000.0001) %MON forcing_fv_min               =  -1.9461538598437E+00
(PID.TID 0000.0001) %MON forcing_fv_mean              =  -9.5488296345926E-04
(PID.TID 0000.0001) %MON forcing_fv_sd                =   1.0784297092841E-01
(PID.TID 0000.0001) %MON forcing_fv_del2              =   1.5617529635336E-04
(PID.TID 0000.0001) %MON trAdv_CFL_u_max              =   2.8712589035543E-02
(PID.TID 0000.0001) %MON trAdv_CFL_v_max              =   2.1704278359403E-02
(PID.TID 0000.0001) %MON trAdv_CFL_w_max              =   1.0522876861124E-01
(PID.TID 0000.0001) %MON advcfl_uvel_max              =   2.9096659910689E-02
(PID.TID 0000.0001) %MON advcfl_vvel_max              =   2.1357537803783E-02
(PID.TID 0000.0001) %MON advcfl_wvel_max              =   9.9473876849786E-02
(PID.TID 0000.0001) %MON advcfl_W_hf_max              =   1.0522876861124E-01
(PID.TID 0000.0001) %MON pe_b_mean                    =   2.1550697013332E-03
(PID.TID 0000.0001) %MON ke_max                       =   2.7639596469745E+00
(PID.TID 0000.0001) %MON ke_mean                      =   8.9679804690613E-04
(PID.TID 0000.0001) %MON ke_vol                       =   1.3350064351420E+18
(PID.TID 0000.0001) %MON vort_r_min                   =  -9.7358934896621E-05
(PID.TID 0000.0001) %MON vort_r_max                   =   1.0675574249522E-04
(PID.TID 0000.0001) %MON vort_a_mean                  =  -1.9725077608079E-05
(PID.TID 0000.0001) %MON vort_a_sd                    =   7.4539548367710E-05
(PID.TID 0000.0001) %MON vort_p_mean                  =  -2.1669082639961E-05
(PID.TID 0000.0001) %MON vort_p_sd                    =   9.3609586369036E-05
(PID.TID 0000.0001) %MON surfExpan_theta_mean         =   3.0368966028605E-05
(PID.TID 0000.0001) %MON surfExpan_salt_mean          =   3.5326785543507E-05
(PID.TID 0000.0001) // =======================================================
(PID.TID 0000.0001) // End MONITOR dynamic field statistics
(PID.TID 0000.0001) // =======================================================
(PID.TID 0000.0001) // =======================================================
(PID.TID 0000.0001) // Begin MONITOR SEAICE statistics
(PID.TID 0000.0001) // =======================================================
(PID.TID 0000.0001) %MON seaice_tsnumber              =                174791
(PID.TID 0000.0001) %MON seaice_time_sec              =   7.8655950000000E+07
(PID.TID 0000.0001) %MON seaice_uice_max              =   1.5060819696212E+00
(PID.TID 0000.0001) %MON seaice_uice_min              =  -1.2236070606532E+00
(PID.TID 0000.0001) %MON seaice_uice_mean             =   3.0049541028989E-03
(PID.TID 0000.0001) %MON seaice_uice_sd               =   1.5443978994567E-01
(PID.TID 0000.0001) %MON seaice_uice_del2             =   3.4338214092695E-04
(PID.TID 0000.0001) %MON seaice_vice_max              =   9.0838675962725E-01
(PID.TID 0000.0001) %MON seaice_vice_min              =  -1.4806046153362E+00
(PID.TID 0000.0001) %MON seaice_vice_mean             =  -2.3510854552802E-02
(PID.TID 0000.0001) %MON seaice_vice_sd               =   1.6869092424082E-01
(PID.TID 0000.0001) %MON seaice_vice_del2             =   3.2178219884891E-04
(PID.TID 0000.0001) %MON seaice_area_max              =   1.0040905390899E+00
(PID.TID 0000.0001) %MON seaice_area_min              =   0.0000000000000E+00
(PID.TID 0000.0001) %MON seaice_area_mean             =   5.7439851362908E-02
(PID.TID 0000.0001) %MON seaice_area_sd               =   2.2111997731299E-01
(PID.TID 0000.0001) %MON seaice_area_del2             =   2.9263798597662E-04
(PID.TID 0000.0001) %MON seaice_heff_max              =   9.9484002382770E+00
(PID.TID 0000.0001) %MON seaice_heff_min              =   0.0000000000000E+00
(PID.TID 0000.0001) %MON seaice_heff_mean             =   1.4969745692643E-01
(PID.TID 0000.0001) %MON seaice_heff_sd               =   7.2049838135121E-01
(PID.TID 0000.0001) %MON seaice_heff_del2             =   1.3886124568636E-03
(PID.TID 0000.0001) %MON seaice_hsnow_max             =   3.2859857538132E+00
(PID.TID 0000.0001) %MON seaice_hsnow_min             =   0.0000000000000E+00
(PID.TID 0000.0001) %MON seaice_hsnow_mean            =   1.2659375411353E-02
(PID.TID 0000.0001) %MON seaice_hsnow_sd              =   6.8378620063028E-02
(PID.TID 0000.0001) %MON seaice_hsnow_del2            =   3.8234363823227E-04
(PID.TID 0000.0001) // =======================================================
(PID.TID 0000.0001) // End MONITOR SEAICE statistics
(PID.TID 0000.0001) // =======================================================
(PID.TID 0000.0001) // =======================================================
(PID.TID 0000.0001) // Begin MONITOR dynamic field statistics
(PID.TID 0000.0001) // =======================================================
(PID.TID 0000.0001) %MON time_tsnumber                =                174792
(PID.TID 0000.0001) %MON time_secondsf                =   7.8656400000000E+07
(PID.TID 0000.0001) %MON dynstat_eta_max              =   2.1749678763824E+00
(PID.TID 0000.0001) %MON dynstat_eta_min              =  -1.0892331206932E+01
(PID.TID 0000.0001) %MON dynstat_eta_mean             =   7.9264000931464E-02
(PID.TID 0000.0001) %MON dynstat_eta_sd               =   8.6213299875458E-01
(PID.TID 0000.0001) %MON dynstat_eta_del2             =   2.0097633927162E-03
(PID.TID 0000.0001) %MON dynstat_uvel_max             =   2.3553648429089E+00
(PID.TID 0000.0001) %MON dynstat_uvel_min             =  -2.7789735104011E+00
(PID.TID 0000.0001) %MON dynstat_uvel_mean            =   4.1931011615920E-03
(PID.TID 0000.0001) %MON dynstat_uvel_sd              =   2.9863437248673E-02
(PID.TID 0000.0001) %MON dynstat_uvel_del2            =   3.6214713711276E-05
(PID.TID 0000.0001) %MON dynstat_vvel_max             =   2.0677087033867E+00
(PID.TID 0000.0001) %MON dynstat_vvel_min             =  -2.2544073866311E+00
(PID.TID 0000.0001) %MON dynstat_vvel_mean            =   2.5554111492324E-03
(PID.TID 0000.0001) %MON dynstat_vvel_sd              =   3.0796457658217E-02
(PID.TID 0000.0001) %MON dynstat_vvel_del2            =   3.4101141467241E-05
(PID.TID 0000.0001) %MON dynstat_wvel_max             =   7.2547197239634E-03
(PID.TID 0000.0001) %MON dynstat_wvel_min             =  -7.8546859729468E-03
(PID.TID 0000.0001) %MON dynstat_wvel_mean            =   8.4040559220239E-07
(PID.TID 0000.0001) %MON dynstat_wvel_sd              =   1.1054344837539E-04
(PID.TID 0000.0001) %MON dynstat_wvel_del2            =   2.6256132140057E-07
(PID.TID 0000.0001) %MON dynstat_theta_max            =   3.2417094123328E+01
(PID.TID 0000.0001) %MON dynstat_theta_min            =  -2.0383792986487E+00
(PID.TID 0000.0001) %MON dynstat_theta_mean           =   3.5920711145259E+00
(PID.TID 0000.0001) %MON dynstat_theta_sd             =   4.4420643308351E+00
(PID.TID 0000.0001) %MON dynstat_theta_del2           =   1.2446876311068E-04
(PID.TID 0000.0001) %MON dynstat_salt_max             =   4.0655991568477E+01
(PID.TID 0000.0001) %MON dynstat_salt_min             =   1.6050417118233E+01
(PID.TID 0000.0001) %MON dynstat_salt_mean            =   3.4724807639655E+01
(PID.TID 0000.0001) %MON dynstat_salt_sd              =   3.7970294084394E-01
(PID.TID 0000.0001) %MON dynstat_salt_del2            =   6.6580642304508E-05
(PID.TID 0000.0001) %MON dynstat_sst_max              =   3.2417094123328E+01
(PID.TID 0000.0001) %MON dynstat_sst_min              =  -2.0383792986487E+00
(PID.TID 0000.0001) %MON dynstat_sst_mean             =   1.8190033142564E+01
(PID.TID 0000.0001) %MON dynstat_sst_sd               =   1.0187135562759E+01
(PID.TID 0000.0001) %MON dynstat_sst_del2             =   1.1024992416669E-03
(PID.TID 0000.0001) %MON dynstat_sss_max              =   3.9464331984995E+01
(PID.TID 0000.0001) %MON dynstat_sss_min              =   1.6050417118233E+01
(PID.TID 0000.0001) %MON dynstat_sss_mean             =   3.4644403792067E+01
(PID.TID 0000.0001) %MON dynstat_sss_sd               =   1.2975303491879E+00
(PID.TID 0000.0001) %MON dynstat_sss_del2             =   1.4740393798943E-03
(PID.TID 0000.0001) %MON forcing_qnet_max             =   2.0805429687500E+03
(PID.TID 0000.0001) %MON forcing_qnet_min             =  -1.1288345210570E+03
(PID.TID 0000.0001) %MON forcing_qnet_mean            =  -2.4216726149554E+01
(PID.TID 0000.0001) %MON forcing_qnet_sd              =   2.0699379461309E+02
(PID.TID 0000.0001) %MON forcing_qnet_del2            =   4.6754893960549E-01
(PID.TID 0000.0001) %MON forcing_qsw_max              =   0.0000000000000E+00
(PID.TID 0000.0001) %MON forcing_qsw_min              =  -1.1078538716835E+02
(PID.TID 0000.0001) %MON forcing_qsw_mean             =  -2.1484488141986E+01
(PID.TID 0000.0001) %MON forcing_qsw_sd               =   3.1106063845046E+01
(PID.TID 0000.0001) %MON forcing_qsw_del2             =   2.4282067909435E-02
(PID.TID 0000.0001) %MON forcing_empmr_max            =   2.8063150122762E-02
(PID.TID 0000.0001) %MON forcing_empmr_min            =  -3.6491043865681E-02
(PID.TID 0000.0001) %MON forcing_empmr_mean           =   3.8571733153945E-06
(PID.TID 0000.0001) %MON forcing_empmr_sd             =   3.4381244933494E-04
(PID.TID 0000.0001) %MON forcing_empmr_del2           =   3.7707731955684E-06
(PID.TID 0000.0001) %MON forcing_fu_max               =   8.9857304388710E-01
(PID.TID 0000.0001) %MON forcing_fu_min               =  -1.0601636343199E+00
(PID.TID 0000.0001) %MON forcing_fu_mean              =   1.0947790994357E-02
(PID.TID 0000.0001) %MON forcing_fu_sd                =   1.2407979946466E-01
(PID.TID 0000.0001) %MON forcing_fu_del2              =   1.6516806346300E-04
(PID.TID 0000.0001) %MON forcing_fv_max               =   9.1800296306610E-01
(PID.TID 0000.0001) %MON forcing_fv_min               =  -1.9516679937394E+00
(PID.TID 0000.0001) %MON forcing_fv_mean              =  -9.7865215814463E-04
(PID.TID 0000.0001) %MON forcing_fv_sd                =   1.0785481850890E-01
(PID.TID 0000.0001) %MON forcing_fv_del2              =   1.5612957128035E-04
(PID.TID 0000.0001) %MON trAdv_CFL_u_max              =   2.8664163947752E-02
(PID.TID 0000.0001) %MON trAdv_CFL_v_max              =   2.1636027548265E-02
(PID.TID 0000.0001) %MON trAdv_CFL_w_max              =   1.0499047499471E-01
(PID.TID 0000.0001) %MON advcfl_uvel_max              =   2.9047587069892E-02
(PID.TID 0000.0001) %MON advcfl_vvel_max              =   2.1290377345606E-02
(PID.TID 0000.0001) %MON advcfl_wvel_max              =   9.9251702267243E-02
(PID.TID 0000.0001) %MON advcfl_W_hf_max              =   1.0499047499471E-01
(PID.TID 0000.0001) %MON pe_b_mean                    =   2.1683899866518E-03
(PID.TID 0000.0001) %MON ke_max                       =   2.7544482113732E+00
(PID.TID 0000.0001) %MON ke_mean                      =   8.9898045726622E-04
(PID.TID 0000.0001) %MON ke_vol                       =   1.3350064351420E+18
(PID.TID 0000.0001) %MON vort_r_min                   =  -9.7213997206082E-05
(PID.TID 0000.0001) %MON vort_r_max                   =   1.0657072462782E-04
(PID.TID 0000.0001) %MON vort_a_mean                  =  -1.9725077673575E-05
(PID.TID 0000.0001) %MON vort_a_sd                    =   7.4539554994469E-05
(PID.TID 0000.0001) %MON vort_p_mean                  =  -2.1669082711912E-05
(PID.TID 0000.0001) %MON vort_p_sd                    =   9.3609635278586E-05
(PID.TID 0000.0001) %MON surfExpan_theta_mean         =   3.0176675435633E-05
(PID.TID 0000.0001) %MON surfExpan_salt_mean          =   3.4914227912285E-05
(PID.TID 0000.0001) // =======================================================
(PID.TID 0000.0001) // End MONITOR dynamic field statistics
(PID.TID 0000.0001) // =======================================================
(PID.TID 0000.0001) // =======================================================
(PID.TID 0000.0001) // Begin MONITOR SEAICE statistics
(PID.TID 0000.0001) // =======================================================
(PID.TID 0000.0001) %MON seaice_tsnumber              =                174792
(PID.TID 0000.0001) %MON seaice_time_sec              =   7.8656400000000E+07
(PID.TID 0000.0001) %MON seaice_uice_max              =   1.5052051043453E+00
(PID.TID 0000.0001) %MON seaice_uice_min              =  -1.2188078755494E+00
(PID.TID 0000.0001) %MON seaice_uice_mean             =   3.0774836688394E-03
(PID.TID 0000.0001) %MON seaice_uice_sd               =   1.5450866912280E-01
(PID.TID 0000.0001) %MON seaice_uice_del2             =   3.4351842422037E-04
(PID.TID 0000.0001) %MON seaice_vice_max              =   9.1094613055324E-01
(PID.TID 0000.0001) %MON seaice_vice_min              =  -1.4816561358420E+00
(PID.TID 0000.0001) %MON seaice_vice_mean             =  -2.3535550228541E-02
(PID.TID 0000.0001) %MON seaice_vice_sd               =   1.6870731186218E-01
(PID.TID 0000.0001) %MON seaice_vice_del2             =   3.2182720279579E-04
(PID.TID 0000.0001) %MON seaice_area_max              =   1.0039805960240E+00
(PID.TID 0000.0001) %MON seaice_area_min              =   0.0000000000000E+00
(PID.TID 0000.0001) %MON seaice_area_mean             =   5.7441470009111E-02
(PID.TID 0000.0001) %MON seaice_area_sd               =   2.2111451113182E-01
(PID.TID 0000.0001) %MON seaice_area_del2             =   2.9245363084453E-04
(PID.TID 0000.0001) %MON seaice_heff_max              =   9.9483840437644E+00
(PID.TID 0000.0001) %MON seaice_heff_min              =   0.0000000000000E+00
(PID.TID 0000.0001) %MON seaice_heff_mean             =   1.4969364639451E-01
(PID.TID 0000.0001) %MON seaice_heff_sd               =   7.2048800964844E-01
(PID.TID 0000.0001) %MON seaice_heff_del2             =   1.3878389608662E-03
(PID.TID 0000.0001) %MON seaice_hsnow_max             =   3.2859802007984E+00
(PID.TID 0000.0001) %MON seaice_hsnow_min             =   0.0000000000000E+00
(PID.TID 0000.0001) %MON seaice_hsnow_mean            =   1.2658600512090E-02
(PID.TID 0000.0001) %MON seaice_hsnow_sd              =   6.8371332885970E-02
(PID.TID 0000.0001) %MON seaice_hsnow_del2            =   3.8204480756581E-04
(PID.TID 0000.0001) // =======================================================
(PID.TID 0000.0001) // End MONITOR SEAICE statistics
(PID.TID 0000.0001) // =======================================================
(PID.TID 0000.0001) // =======================================================
(PID.TID 0000.0001) // Begin MONITOR dynamic field statistics
(PID.TID 0000.0001) // =======================================================
(PID.TID 0000.0001) %MON time_tsnumber                =                174793
(PID.TID 0000.0001) %MON time_secondsf                =   7.8656850000000E+07
(PID.TID 0000.0001) %MON dynstat_eta_max              =   2.1810119873962E+00
(PID.TID 0000.0001) %MON dynstat_eta_min              =  -1.0859783729332E+01
(PID.TID 0000.0001) %MON dynstat_eta_mean             =   7.9693251475087E-02
(PID.TID 0000.0001) %MON dynstat_eta_sd               =   8.6324673696849E-01
(PID.TID 0000.0001) %MON dynstat_eta_del2             =   2.0097714758953E-03
(PID.TID 0000.0001) %MON dynstat_uvel_max             =   2.3554178104559E+00
(PID.TID 0000.0001) %MON dynstat_uvel_min             =  -2.7740510388907E+00
(PID.TID 0000.0001) %MON dynstat_uvel_mean            =   4.1708651523384E-03
(PID.TID 0000.0001) %MON dynstat_uvel_sd              =   2.9895005213632E-02
(PID.TID 0000.0001) %MON dynstat_uvel_del2            =   3.6249574198750E-05
(PID.TID 0000.0001) %MON dynstat_vvel_max             =   2.0579277169103E+00
(PID.TID 0000.0001) %MON dynstat_vvel_min             =  -2.2560894367836E+00
(PID.TID 0000.0001) %MON dynstat_vvel_mean            =   2.5691160979517E-03
(PID.TID 0000.0001) %MON dynstat_vvel_sd              =   3.0843565002121E-02
(PID.TID 0000.0001) %MON dynstat_vvel_del2            =   3.4145773078596E-05
(PID.TID 0000.0001) %MON dynstat_wvel_max             =   7.2739099452676E-03
(PID.TID 0000.0001) %MON dynstat_wvel_min             =  -7.8449244647147E-03
(PID.TID 0000.0001) %MON dynstat_wvel_mean            =   8.3117796467588E-07
(PID.TID 0000.0001) %MON dynstat_wvel_sd              =   1.1094060627536E-04
(PID.TID 0000.0001) %MON dynstat_wvel_del2            =   2.6334911066349E-07
(PID.TID 0000.0001) %MON dynstat_theta_max            =   3.2418029914183E+01
(PID.TID 0000.0001) %MON dynstat_theta_min            =  -2.0385641677999E+00
(PID.TID 0000.0001) %MON dynstat_theta_mean           =   3.5920683339818E+00
(PID.TID 0000.0001) %MON dynstat_theta_sd             =   4.4420596819559E+00
(PID.TID 0000.0001) %MON dynstat_theta_del2           =   1.2450755768091E-04
(PID.TID 0000.0001) %MON dynstat_salt_max             =   4.0655991526235E+01
(PID.TID 0000.0001) %MON dynstat_salt_min             =   1.6049323262174E+01
(PID.TID 0000.0001) %MON dynstat_salt_mean            =   3.4724807371073E+01
(PID.TID 0000.0001) %MON dynstat_salt_sd              =   3.7970420045703E-01
(PID.TID 0000.0001) %MON dynstat_salt_del2            =   6.6532578120837E-05
(PID.TID 0000.0001) %MON dynstat_sst_max              =   3.2418029914183E+01
(PID.TID 0000.0001) %MON dynstat_sst_min              =  -2.0385641677999E+00
(PID.TID 0000.0001) %MON dynstat_sst_mean             =   1.8189983835308E+01
(PID.TID 0000.0001) %MON dynstat_sst_sd               =   1.0187523631508E+01
(PID.TID 0000.0001) %MON dynstat_sst_del2             =   1.1024577848932E-03
(PID.TID 0000.0001) %MON dynstat_sss_max              =   3.9464319520999E+01
(PID.TID 0000.0001) %MON dynstat_sss_min              =   1.6049323262174E+01
(PID.TID 0000.0001) %MON dynstat_sss_mean             =   3.4644359875778E+01
(PID.TID 0000.0001) %MON dynstat_sss_sd               =   1.2976125626848E+00
(PID.TID 0000.0001) %MON dynstat_sss_del2             =   1.4741479881586E-03
(PID.TID 0000.0001) %MON forcing_qnet_max             =   6.2713569335938E+03
(PID.TID 0000.0001) %MON forcing_qnet_min             =  -1.0831906926808E+03
(PID.TID 0000.0001) %MON forcing_qnet_mean            =  -2.2824439637647E+01
(PID.TID 0000.0001) %MON forcing_qnet_sd              =   2.0665229112836E+02
(PID.TID 0000.0001) %MON forcing_qnet_del2            =   5.2840767689817E-01
(PID.TID 0000.0001) %MON forcing_qsw_max              =   0.0000000000000E+00
(PID.TID 0000.0001) %MON forcing_qsw_min              =  -1.1065627888500E+02
(PID.TID 0000.0001) %MON forcing_qsw_mean             =  -2.1345533741804E+01
(PID.TID 0000.0001) %MON forcing_qsw_sd               =   3.0969210643624E+01
(PID.TID 0000.0001) %MON forcing_qsw_del2             =   2.4362158374008E-02
(PID.TID 0000.0001) %MON forcing_empmr_max            =   3.8311485201120E-02
(PID.TID 0000.0001) %MON forcing_empmr_min            =  -3.6557178944349E-02
(PID.TID 0000.0001) %MON forcing_empmr_mean           =   4.2078084125261E-06
(PID.TID 0000.0001) %MON forcing_empmr_sd             =   3.6603215789129E-04
(PID.TID 0000.0001) %MON forcing_empmr_del2           =   3.9250025016463E-06
(PID.TID 0000.0001) %MON forcing_fu_max               =   8.8911142514080E-01
(PID.TID 0000.0001) %MON forcing_fu_min               =  -1.0652527485649E+00
(PID.TID 0000.0001) %MON forcing_fu_mean              =   1.1007247958497E-02
(PID.TID 0000.0001) %MON forcing_fu_sd                =   1.2412273241404E-01
(PID.TID 0000.0001) %MON forcing_fu_del2              =   1.6487195957362E-04
(PID.TID 0000.0001) %MON forcing_fv_max               =   9.2276361584663E-01
(PID.TID 0000.0001) %MON forcing_fv_min               =  -1.9562162747552E+00
(PID.TID 0000.0001) %MON forcing_fv_mean              =  -9.9524335962321E-04
(PID.TID 0000.0001) %MON forcing_fv_sd                =   1.0788813167534E-01
(PID.TID 0000.0001) %MON forcing_fv_del2              =   1.5595156381329E-04
(PID.TID 0000.0001) %MON trAdv_CFL_u_max              =   2.8613390333007E-02
(PID.TID 0000.0001) %MON trAdv_CFL_v_max              =   2.1566332020276E-02
(PID.TID 0000.0001) %MON trAdv_CFL_w_max              =   1.0474652017790E-01
(PID.TID 0000.0001) %MON advcfl_uvel_max              =   2.8996134287322E-02
(PID.TID 0000.0001) %MON advcfl_vvel_max              =   2.1221795250908E-02
(PID.TID 0000.0001) %MON advcfl_wvel_max              =   9.9023815064502E-02
(PID.TID 0000.0001) %MON advcfl_W_hf_max              =   1.0474652017790E-01
(PID.TID 0000.0001) %MON pe_b_mean                    =   2.1816136307424E-03
(PID.TID 0000.0001) %MON ke_max                       =   2.7443940816286E+00
(PID.TID 0000.0001) %MON ke_mean                      =   9.0123449201090E-04
(PID.TID 0000.0001) %MON ke_vol                       =   1.3350064351420E+18
(PID.TID 0000.0001) %MON vort_r_min                   =  -9.7061157691277E-05
(PID.TID 0000.0001) %MON vort_r_max                   =   1.0637422054494E-04
(PID.TID 0000.0001) %MON vort_a_mean                  =  -1.9725077723875E-05
(PID.TID 0000.0001) %MON vort_a_sd                    =   7.4539561977292E-05
(PID.TID 0000.0001) %MON vort_p_mean                  =  -2.1669082767170E-05
(PID.TID 0000.0001) %MON vort_p_sd                    =   9.3609685399683E-05
(PID.TID 0000.0001) %MON surfExpan_theta_mean         =   2.9948961659959E-05
(PID.TID 0000.0001) %MON surfExpan_salt_mean          =   3.4466745082628E-05
(PID.TID 0000.0001) // =======================================================
(PID.TID 0000.0001) // End MONITOR dynamic field statistics
(PID.TID 0000.0001) // =======================================================
(PID.TID 0000.0001) // =======================================================
(PID.TID 0000.0001) // Begin MONITOR SEAICE statistics
(PID.TID 0000.0001) // =======================================================
(PID.TID 0000.0001) %MON seaice_tsnumber              =                174793
(PID.TID 0000.0001) %MON seaice_time_sec              =   7.8656850000000E+07
(PID.TID 0000.0001) %MON seaice_uice_max              =   1.5041105472087E+00
(PID.TID 0000.0001) %MON seaice_uice_min              =  -1.2137221020976E+00
(PID.TID 0000.0001) %MON seaice_uice_mean             =   3.1526502392659E-03
(PID.TID 0000.0001) %MON seaice_uice_sd               =   1.5457627228802E-01
(PID.TID 0000.0001) %MON seaice_uice_del2             =   3.4364976428885E-04
(PID.TID 0000.0001) %MON seaice_vice_max              =   9.1321867128514E-01
(PID.TID 0000.0001) %MON seaice_vice_min              =  -1.4826806312416E+00
(PID.TID 0000.0001) %MON seaice_vice_mean             =  -2.3562923190748E-02
(PID.TID 0000.0001) %MON seaice_vice_sd               =   1.6872346331179E-01
(PID.TID 0000.0001) %MON seaice_vice_del2             =   3.2191367590539E-04
(PID.TID 0000.0001) %MON seaice_area_max              =   1.0038707497352E+00
(PID.TID 0000.0001) %MON seaice_area_min              =   0.0000000000000E+00
(PID.TID 0000.0001) %MON seaice_area_mean             =   5.7443097360147E-02
(PID.TID 0000.0001) %MON seaice_area_sd               =   2.2110911915191E-01
(PID.TID 0000.0001) %MON seaice_area_del2             =   2.9227437219152E-04
(PID.TID 0000.0001) %MON seaice_heff_max              =   9.9483688038075E+00
(PID.TID 0000.0001) %MON seaice_heff_min              =   0.0000000000000E+00
(PID.TID 0000.0001) %MON seaice_heff_mean             =   1.4968983717287E-01
(PID.TID 0000.0001) %MON seaice_heff_sd               =   7.2047765119029E-01
(PID.TID 0000.0001) %MON seaice_heff_del2             =   1.3870738662821E-03
(PID.TID 0000.0001) %MON seaice_hsnow_max             =   3.2859751250783E+00
(PID.TID 0000.0001) %MON seaice_hsnow_min             =   0.0000000000000E+00
(PID.TID 0000.0001) %MON seaice_hsnow_mean            =   1.2657834804858E-02
(PID.TID 0000.0001) %MON seaice_hsnow_sd              =   6.8364010869710E-02
(PID.TID 0000.0001) %MON seaice_hsnow_del2            =   3.8174746852349E-04
(PID.TID 0000.0001) // =======================================================
(PID.TID 0000.0001) // End MONITOR SEAICE statistics
(PID.TID 0000.0001) // =======================================================
(PID.TID 0000.0001) // =======================================================
(PID.TID 0000.0001) // Begin MONITOR dynamic field statistics
(PID.TID 0000.0001) // =======================================================
(PID.TID 0000.0001) %MON time_tsnumber                =                174794
(PID.TID 0000.0001) %MON time_secondsf                =   7.8657300000000E+07
(PID.TID 0000.0001) %MON dynstat_eta_max              =   2.1786742893421E+00
(PID.TID 0000.0001) %MON dynstat_eta_min              =  -1.0828384372036E+01
(PID.TID 0000.0001) %MON dynstat_eta_mean             =   8.0114524401203E-02
(PID.TID 0000.0001) %MON dynstat_eta_sd               =   8.6438673120857E-01
(PID.TID 0000.0001) %MON dynstat_eta_del2             =   2.0097784033252E-03
(PID.TID 0000.0001) %MON dynstat_uvel_max             =   2.3551842224291E+00
(PID.TID 0000.0001) %MON dynstat_uvel_min             =  -2.7689137496992E+00
(PID.TID 0000.0001) %MON dynstat_uvel_mean            =   4.1455101314665E-03
(PID.TID 0000.0001) %MON dynstat_uvel_sd              =   2.9928190917470E-02
(PID.TID 0000.0001) %MON dynstat_uvel_del2            =   3.6284779492629E-05
(PID.TID 0000.0001) %MON dynstat_vvel_max             =   2.0479976481388E+00
(PID.TID 0000.0001) %MON dynstat_vvel_min             =  -2.2575641504430E+00
(PID.TID 0000.0001) %MON dynstat_vvel_mean            =   2.5836792504001E-03
(PID.TID 0000.0001) %MON dynstat_vvel_sd              =   3.0891840756937E-02
(PID.TID 0000.0001) %MON dynstat_vvel_del2            =   3.4191116920851E-05
(PID.TID 0000.0001) %MON dynstat_wvel_max             =   7.2933816143738E-03
(PID.TID 0000.0001) %MON dynstat_wvel_min             =  -7.8348162152524E-03
(PID.TID 0000.0001) %MON dynstat_wvel_mean            =   8.2134408096110E-07
(PID.TID 0000.0001) %MON dynstat_wvel_sd              =   1.1134816160270E-04
(PID.TID 0000.0001) %MON dynstat_wvel_del2            =   2.6414816725498E-07
(PID.TID 0000.0001) %MON dynstat_theta_max            =   3.2418983543898E+01
(PID.TID 0000.0001) %MON dynstat_theta_min            =  -2.0387524935616E+00
(PID.TID 0000.0001) %MON dynstat_theta_mean           =   3.5920655485869E+00
(PID.TID 0000.0001) %MON dynstat_theta_sd             =   4.4420552137607E+00
(PID.TID 0000.0001) %MON dynstat_theta_del2           =   1.2454455323032E-04
(PID.TID 0000.0001) %MON dynstat_salt_max             =   4.0655991482422E+01
(PID.TID 0000.0001) %MON dynstat_salt_min             =   1.6048189161035E+01
(PID.TID 0000.0001) %MON dynstat_salt_mean            =   3.4724807091930E+01
(PID.TID 0000.0001) %MON dynstat_salt_sd              =   3.7970550147581E-01
(PID.TID 0000.0001) %MON dynstat_salt_del2            =   6.6480143921467E-05
(PID.TID 0000.0001) %MON dynstat_sst_max              =   3.2418983543898E+01
(PID.TID 0000.0001) %MON dynstat_sst_min              =  -2.0387524935616E+00
(PID.TID 0000.0001) %MON dynstat_sst_mean             =   1.8189929619308E+01
(PID.TID 0000.0001) %MON dynstat_sst_sd               =   1.0187911744771E+01
(PID.TID 0000.0001) %MON dynstat_sst_del2             =   1.1022554957776E-03
(PID.TID 0000.0001) %MON dynstat_sss_max              =   3.9464311511923E+01
(PID.TID 0000.0001) %MON dynstat_sss_min              =   1.6048189161035E+01
(PID.TID 0000.0001) %MON dynstat_sss_mean             =   3.4644314909282E+01
(PID.TID 0000.0001) %MON dynstat_sss_sd               =   1.2976958615430E+00
(PID.TID 0000.0001) %MON dynstat_sss_del2             =   1.4739546096041E-03
(PID.TID 0000.0001) %MON forcing_qnet_max             =   2.6613988281250E+04
(PID.TID 0000.0001) %MON forcing_qnet_min             =  -1.1321512046125E+03
(PID.TID 0000.0001) %MON forcing_qnet_mean            =  -2.1486734785045E+01
(PID.TID 0000.0001) %MON forcing_qnet_sd              =   2.1824580895730E+02
(PID.TID 0000.0001) %MON forcing_qnet_del2            =   1.2557913010071E+00
(PID.TID 0000.0001) %MON forcing_qsw_max              =   0.0000000000000E+00
(PID.TID 0000.0001) %MON forcing_qsw_min              =  -1.1040831894949E+02
(PID.TID 0000.0001) %MON forcing_qsw_mean             =  -2.1194443794121E+01
(PID.TID 0000.0001) %MON forcing_qsw_sd               =   3.0820607962496E+01
(PID.TID 0000.0001) %MON forcing_qsw_del2             =   2.4429068324366E-02
(PID.TID 0000.0001) %MON forcing_empmr_max            =   8.4069535136223E-02
(PID.TID 0000.0001) %MON forcing_empmr_min            =  -3.5518497228622E-02
(PID.TID 0000.0001) %MON forcing_empmr_mean           =   5.1121951929788E-06
(PID.TID 0000.0001) %MON forcing_empmr_sd             =   5.1023137240716E-04
(PID.TID 0000.0001) %MON forcing_empmr_del2           =   4.9657499799167E-06
(PID.TID 0000.0001) %MON forcing_fu_max               =   8.7832400540323E-01
(PID.TID 0000.0001) %MON forcing_fu_min               =  -1.0739901508042E+00
(PID.TID 0000.0001) %MON forcing_fu_mean              =   1.1067921071001E-02
(PID.TID 0000.0001) %MON forcing_fu_sd                =   1.2419939998326E-01
(PID.TID 0000.0001) %MON forcing_fu_del2              =   1.6456687536038E-04
(PID.TID 0000.0001) %MON forcing_fv_max               =   9.2722570896149E-01
(PID.TID 0000.0001) %MON forcing_fv_min               =  -1.9594894531288E+00
(PID.TID 0000.0001) %MON forcing_fv_mean              =  -1.0154338755785E-03
(PID.TID 0000.0001) %MON forcing_fv_sd                =   1.0790914138442E-01
(PID.TID 0000.0001) %MON forcing_fv_del2              =   1.5569280716354E-04
(PID.TID 0000.0001) %MON trAdv_CFL_u_max              =   2.8560400947149E-02
(PID.TID 0000.0001) %MON trAdv_CFL_v_max              =   2.1495211489124E-02
(PID.TID 0000.0001) %MON trAdv_CFL_w_max              =   1.0449855976232E-01
(PID.TID 0000.0001) %MON advcfl_uvel_max              =   2.8942436094614E-02
(PID.TID 0000.0001) %MON advcfl_vvel_max              =   2.1151810918440E-02
(PID.TID 0000.0001) %MON advcfl_wvel_max              =   9.8791835496854E-02
(PID.TID 0000.0001) %MON advcfl_W_hf_max              =   1.0449855976232E-01
(PID.TID 0000.0001) %MON pe_b_mean                    =   2.1947187533007E-03
(PID.TID 0000.0001) %MON ke_max                       =   2.7338240192007E+00
(PID.TID 0000.0001) %MON ke_mean                      =   9.0356344852650E-04
(PID.TID 0000.0001) %MON ke_vol                       =   1.3350064351420E+18
(PID.TID 0000.0001) %MON vort_r_min                   =  -9.6900764528417E-05
(PID.TID 0000.0001) %MON vort_r_max                   =   1.0616667878676E-04
(PID.TID 0000.0001) %MON vort_a_mean                  =  -1.9725077759684E-05
(PID.TID 0000.0001) %MON vort_a_sd                    =   7.4539569356792E-05
(PID.TID 0000.0001) %MON vort_p_mean                  =  -2.1669082806507E-05
(PID.TID 0000.0001) %MON vort_p_sd                    =   9.3609737413934E-05
(PID.TID 0000.0001) %MON surfExpan_theta_mean         =   2.9678317949917E-05
(PID.TID 0000.0001) %MON surfExpan_salt_mean          =   3.3970693541132E-05
(PID.TID 0000.0001) // =======================================================
(PID.TID 0000.0001) // End MONITOR dynamic field statistics
(PID.TID 0000.0001) // =======================================================
(PID.TID 0000.0001) // =======================================================
(PID.TID 0000.0001) // Begin MONITOR SEAICE statistics
(PID.TID 0000.0001) // =======================================================
(PID.TID 0000.0001) %MON seaice_tsnumber              =                174794
(PID.TID 0000.0001) %MON seaice_time_sec              =   7.8657300000000E+07
(PID.TID 0000.0001) %MON seaice_uice_max              =   1.5027099180117E+00
(PID.TID 0000.0001) %MON seaice_uice_min              =  -1.2083175286445E+00
(PID.TID 0000.0001) %MON seaice_uice_mean             =   3.2254379614014E-03
(PID.TID 0000.0001) %MON seaice_uice_sd               =   1.5463703090075E-01
(PID.TID 0000.0001) %MON seaice_uice_del2             =   3.4377599486031E-04
(PID.TID 0000.0001) %MON seaice_vice_max              =   9.1521587777115E-01
(PID.TID 0000.0001) %MON seaice_vice_min              =  -1.4836749308634E+00
(PID.TID 0000.0001) %MON seaice_vice_mean             =  -2.3588053127987E-02
(PID.TID 0000.0001) %MON seaice_vice_sd               =   1.6873345257626E-01
(PID.TID 0000.0001) %MON seaice_vice_del2             =   3.2200222478773E-04
(PID.TID 0000.0001) %MON seaice_area_max              =   1.0037632368270E+00
(PID.TID 0000.0001) %MON seaice_area_min              =   0.0000000000000E+00
(PID.TID 0000.0001) %MON seaice_area_mean             =   5.7444739564317E-02
(PID.TID 0000.0001) %MON seaice_area_sd               =   2.2110385203520E-01
(PID.TID 0000.0001) %MON seaice_area_del2             =   2.9210012455164E-04
(PID.TID 0000.0001) %MON seaice_heff_max              =   9.9483554724287E+00
(PID.TID 0000.0001) %MON seaice_heff_min              =   0.0000000000000E+00
(PID.TID 0000.0001) %MON seaice_heff_mean             =   1.4968602530471E-01
(PID.TID 0000.0001) %MON seaice_heff_sd               =   7.2046728287386E-01
(PID.TID 0000.0001) %MON seaice_heff_del2             =   1.3863167799111E-03
(PID.TID 0000.0001) %MON seaice_hsnow_max             =   3.2859705462704E+00
(PID.TID 0000.0001) %MON seaice_hsnow_min             =   0.0000000000000E+00
(PID.TID 0000.0001) %MON seaice_hsnow_mean            =   1.2657072713814E-02
(PID.TID 0000.0001) %MON seaice_hsnow_sd              =   6.8356687074383E-02
(PID.TID 0000.0001) %MON seaice_hsnow_del2            =   3.8145168515121E-04
(PID.TID 0000.0001) // =======================================================
(PID.TID 0000.0001) // End MONITOR SEAICE statistics
(PID.TID 0000.0001) // =======================================================
(PID.TID 0000.0001) // =======================================================
(PID.TID 0000.0001) // Begin MONITOR dynamic field statistics
(PID.TID 0000.0001) // =======================================================
(PID.TID 0000.0001) %MON time_tsnumber                =                174795
(PID.TID 0000.0001) %MON time_secondsf                =   7.8657750000000E+07
(PID.TID 0000.0001) %MON dynstat_eta_max              =   2.1680700286624E+00
(PID.TID 0000.0001) %MON dynstat_eta_min              =  -1.0798076698949E+01
(PID.TID 0000.0001) %MON dynstat_eta_mean             =   8.0528119669687E-02
(PID.TID 0000.0001) %MON dynstat_eta_sd               =   8.6555050114743E-01
(PID.TID 0000.0001) %MON dynstat_eta_del2             =   2.0097841876585E-03
(PID.TID 0000.0001) %MON dynstat_uvel_max             =   2.3546770037983E+00
(PID.TID 0000.0001) %MON dynstat_uvel_min             =  -2.7635703179453E+00
(PID.TID 0000.0001) %MON dynstat_uvel_mean            =   4.1173784094565E-03
(PID.TID 0000.0001) %MON dynstat_uvel_sd              =   2.9963156855442E-02
(PID.TID 0000.0001) %MON dynstat_uvel_del2            =   3.6320254122253E-05
(PID.TID 0000.0001) %MON dynstat_vvel_max             =   2.0379388873342E+00
(PID.TID 0000.0001) %MON dynstat_vvel_min             =  -2.2588176343577E+00
(PID.TID 0000.0001) %MON dynstat_vvel_mean            =   2.5991199693858E-03
(PID.TID 0000.0001) %MON dynstat_vvel_sd              =   3.0941063685156E-02
(PID.TID 0000.0001) %MON dynstat_vvel_del2            =   3.4237195998805E-05
(PID.TID 0000.0001) %MON dynstat_wvel_max             =   7.3131368333068E-03
(PID.TID 0000.0001) %MON dynstat_wvel_min             =  -7.8245060792768E-03
(PID.TID 0000.0001) %MON dynstat_wvel_mean            =   8.1120926481465E-07
(PID.TID 0000.0001) %MON dynstat_wvel_sd              =   1.1176618599521E-04
(PID.TID 0000.0001) %MON dynstat_wvel_del2            =   2.6495865609065E-07
(PID.TID 0000.0001) %MON dynstat_theta_max            =   3.2419945428618E+01
(PID.TID 0000.0001) %MON dynstat_theta_min            =  -2.0389435747061E+00
(PID.TID 0000.0001) %MON dynstat_theta_mean           =   3.5920627609346E+00
(PID.TID 0000.0001) %MON dynstat_theta_sd             =   4.4420508854346E+00
(PID.TID 0000.0001) %MON dynstat_theta_del2           =   1.2458223177390E-04
(PID.TID 0000.0001) %MON dynstat_salt_max             =   4.0655991437248E+01
(PID.TID 0000.0001) %MON dynstat_salt_min             =   1.6047012142509E+01
(PID.TID 0000.0001) %MON dynstat_salt_mean            =   3.4724806804892E+01
(PID.TID 0000.0001) %MON dynstat_salt_sd              =   3.7970683276760E-01
(PID.TID 0000.0001) %MON dynstat_salt_del2            =   6.6432914155976E-05
(PID.TID 0000.0001) %MON dynstat_sst_max              =   3.2419945428618E+01
(PID.TID 0000.0001) %MON dynstat_sst_min              =  -2.0389435747061E+00
(PID.TID 0000.0001) %MON dynstat_sst_mean             =   1.8189862824831E+01
(PID.TID 0000.0001) %MON dynstat_sst_sd               =   1.0188291235096E+01
(PID.TID 0000.0001) %MON dynstat_sst_del2             =   1.1021941143244E-03
(PID.TID 0000.0001) %MON dynstat_sss_max              =   3.9464305993169E+01
(PID.TID 0000.0001) %MON dynstat_sss_min              =   1.6047012142509E+01
(PID.TID 0000.0001) %MON dynstat_sss_mean             =   3.4644270221019E+01
(PID.TID 0000.0001) %MON dynstat_sss_sd               =   1.2977779235047E+00
(PID.TID 0000.0001) %MON dynstat_sss_del2             =   1.4740691349155E-03
(PID.TID 0000.0001) %MON forcing_qnet_max             =   4.4674018554688E+03
(PID.TID 0000.0001) %MON forcing_qnet_min             =  -1.0834473822052E+03
(PID.TID 0000.0001) %MON forcing_qnet_mean            =  -2.0230790820608E+01
(PID.TID 0000.0001) %MON forcing_qnet_sd              =   2.0495108094661E+02
(PID.TID 0000.0001) %MON forcing_qnet_del2            =   5.0158679116140E-01
(PID.TID 0000.0001) %MON forcing_qsw_max              =   0.0000000000000E+00
(PID.TID 0000.0001) %MON forcing_qsw_min              =  -1.1004221862777E+02
(PID.TID 0000.0001) %MON forcing_qsw_mean             =  -2.1031553798177E+01
(PID.TID 0000.0001) %MON forcing_qsw_sd               =   3.0660647174664E+01
(PID.TID 0000.0001) %MON forcing_qsw_del2             =   2.4482566002631E-02
(PID.TID 0000.0001) %MON forcing_empmr_max            =   6.1496887356043E-02
(PID.TID 0000.0001) %MON forcing_empmr_min            =  -3.5943217575550E-02
(PID.TID 0000.0001) %MON forcing_empmr_mean           =   4.5590896746295E-06
(PID.TID 0000.0001) %MON forcing_empmr_sd             =   4.3171412444634E-04
(PID.TID 0000.0001) %MON forcing_empmr_del2           =   4.3796738721303E-06
(PID.TID 0000.0001) %MON forcing_fu_max               =   8.6622324156072E-01
(PID.TID 0000.0001) %MON forcing_fu_min               =  -1.0795918085343E+00
(PID.TID 0000.0001) %MON forcing_fu_mean              =   1.1128055956939E-02
(PID.TID 0000.0001) %MON forcing_fu_sd                =   1.2425456342007E-01
(PID.TID 0000.0001) %MON forcing_fu_del2              =   1.6428995831825E-04
(PID.TID 0000.0001) %MON forcing_fv_max               =   9.3168342113495E-01
(PID.TID 0000.0001) %MON forcing_fv_min               =  -1.9615572214501E+00
(PID.TID 0000.0001) %MON forcing_fv_mean              =  -1.0420908176144E-03
(PID.TID 0000.0001) %MON forcing_fv_sd                =   1.0794322025316E-01
(PID.TID 0000.0001) %MON forcing_fv_del2              =   1.5555217846835E-04
(PID.TID 0000.0001) %MON trAdv_CFL_u_max              =   2.8505285271067E-02
(PID.TID 0000.0001) %MON trAdv_CFL_v_max              =   2.1422721113743E-02
(PID.TID 0000.0001) %MON trAdv_CFL_w_max              =   1.0425139320795E-01
(PID.TID 0000.0001) %MON advcfl_uvel_max              =   2.8886583169588E-02
(PID.TID 0000.0001) %MON advcfl_vvel_max              =   2.1080478625931E-02
(PID.TID 0000.0001) %MON advcfl_wvel_max              =   9.8560658522645E-02
(PID.TID 0000.0001) %MON advcfl_W_hf_max              =   1.0425139320795E-01
(PID.TID 0000.0001) %MON pe_b_mean                    =   2.2077092151632E-03
(PID.TID 0000.0001) %MON ke_max                       =   2.7227618657355E+00
(PID.TID 0000.0001) %MON ke_mean                      =   9.0596740999922E-04
(PID.TID 0000.0001) %MON ke_vol                       =   1.3350064351420E+18
(PID.TID 0000.0001) %MON vort_r_min                   =  -9.6733166773449E-05
(PID.TID 0000.0001) %MON vort_r_max                   =   1.0594852344711E-04
(PID.TID 0000.0001) %MON vort_a_mean                  =  -1.9725077781846E-05
(PID.TID 0000.0001) %MON vort_a_sd                    =   7.4539577174858E-05
(PID.TID 0000.0001) %MON vort_p_mean                  =  -2.1669082830854E-05
(PID.TID 0000.0001) %MON vort_p_sd                    =   9.3609791673670E-05
(PID.TID 0000.0001) %MON surfExpan_theta_mean         =   2.9371145116522E-05
(PID.TID 0000.0001) %MON surfExpan_salt_mean          =   3.3438590310432E-05
(PID.TID 0000.0001) // =======================================================
(PID.TID 0000.0001) // End MONITOR dynamic field statistics
(PID.TID 0000.0001) // =======================================================
(PID.TID 0000.0001) // =======================================================
(PID.TID 0000.0001) // Begin MONITOR SEAICE statistics
(PID.TID 0000.0001) // =======================================================
(PID.TID 0000.0001) %MON seaice_tsnumber              =                174795
(PID.TID 0000.0001) %MON seaice_time_sec              =   7.8657750000000E+07
(PID.TID 0000.0001) %MON seaice_uice_max              =   1.5009767426809E+00
(PID.TID 0000.0001) %MON seaice_uice_min              =  -1.2025938364369E+00
(PID.TID 0000.0001) %MON seaice_uice_mean             =   3.2968170636916E-03
(PID.TID 0000.0001) %MON seaice_uice_sd               =   1.5469595057450E-01
(PID.TID 0000.0001) %MON seaice_uice_del2             =   3.4396817367183E-04
(PID.TID 0000.0001) %MON seaice_vice_max              =   9.1695300114682E-01
(PID.TID 0000.0001) %MON seaice_vice_min              =  -1.4846390194816E+00
(PID.TID 0000.0001) %MON seaice_vice_mean             =  -2.3614139670978E-02
(PID.TID 0000.0001) %MON seaice_vice_sd               =   1.6874450409503E-01
(PID.TID 0000.0001) %MON seaice_vice_del2             =   3.2211851787164E-04
(PID.TID 0000.0001) %MON seaice_area_max              =   1.0036555132381E+00
(PID.TID 0000.0001) %MON seaice_area_min              =   0.0000000000000E+00
(PID.TID 0000.0001) %MON seaice_area_mean             =   5.7446374160325E-02
(PID.TID 0000.0001) %MON seaice_area_sd               =   2.2109859796859E-01
(PID.TID 0000.0001) %MON seaice_area_del2             =   2.9193423378512E-04
(PID.TID 0000.0001) %MON seaice_heff_max              =   9.9483411883682E+00
(PID.TID 0000.0001) %MON seaice_heff_min              =   0.0000000000000E+00
(PID.TID 0000.0001) %MON seaice_heff_mean             =   1.4968221278162E-01
(PID.TID 0000.0001) %MON seaice_heff_sd               =   7.2045689903867E-01
(PID.TID 0000.0001) %MON seaice_heff_del2             =   1.3855680955628E-03
(PID.TID 0000.0001) %MON seaice_hsnow_max             =   3.2859654779868E+00
(PID.TID 0000.0001) %MON seaice_hsnow_min             =   0.0000000000000E+00
(PID.TID 0000.0001) %MON seaice_hsnow_mean            =   1.2656307373970E-02
(PID.TID 0000.0001) %MON seaice_hsnow_sd              =   6.8349323704187E-02
(PID.TID 0000.0001) %MON seaice_hsnow_del2            =   3.8115759919951E-04
(PID.TID 0000.0001) // =======================================================
(PID.TID 0000.0001) // End MONITOR SEAICE statistics
(PID.TID 0000.0001) // =======================================================
(PID.TID 0000.0001) // =======================================================
(PID.TID 0000.0001) // Begin MONITOR dynamic field statistics
(PID.TID 0000.0001) // =======================================================
(PID.TID 0000.0001) %MON time_tsnumber                =                174796
(PID.TID 0000.0001) %MON time_secondsf                =   7.8658200000000E+07
(PID.TID 0000.0001) %MON dynstat_eta_max              =   2.1493513211865E+00
(PID.TID 0000.0001) %MON dynstat_eta_min              =  -1.0768802692292E+01
(PID.TID 0000.0001) %MON dynstat_eta_mean             =   8.0933841726223E-02
(PID.TID 0000.0001) %MON dynstat_eta_sd               =   8.6673532108823E-01
(PID.TID 0000.0001) %MON dynstat_eta_del2             =   2.0097873065820E-03
(PID.TID 0000.0001) %MON dynstat_uvel_max             =   2.3539077925799E+00
(PID.TID 0000.0001) %MON dynstat_uvel_min             =  -2.7580310276061E+00
(PID.TID 0000.0001) %MON dynstat_uvel_mean            =   4.0868351365218E-03
(PID.TID 0000.0001) %MON dynstat_uvel_sd              =   3.0000111451349E-02
(PID.TID 0000.0001) %MON dynstat_uvel_del2            =   3.6354863224825E-05
(PID.TID 0000.0001) %MON dynstat_vvel_max             =   2.0277669170917E+00
(PID.TID 0000.0001) %MON dynstat_vvel_min             =  -2.2598351336589E+00
(PID.TID 0000.0001) %MON dynstat_vvel_mean            =   2.6154590925651E-03
(PID.TID 0000.0001) %MON dynstat_vvel_sd              =   3.0991053621669E-02
(PID.TID 0000.0001) %MON dynstat_vvel_del2            =   3.4282135665610E-05
(PID.TID 0000.0001) %MON dynstat_wvel_max             =   7.3331751497865E-03
(PID.TID 0000.0001) %MON dynstat_wvel_min             =  -7.8140877556059E-03
(PID.TID 0000.0001) %MON dynstat_wvel_mean            =   8.0039897415050E-07
(PID.TID 0000.0001) %MON dynstat_wvel_sd              =   1.1219473343449E-04
(PID.TID 0000.0001) %MON dynstat_wvel_del2            =   2.6577792632553E-07
(PID.TID 0000.0001) %MON dynstat_theta_max            =   3.2420920597850E+01
(PID.TID 0000.0001) %MON dynstat_theta_min            =  -2.0391367310396E+00
(PID.TID 0000.0001) %MON dynstat_theta_mean           =   3.5920599732009E+00
(PID.TID 0000.0001) %MON dynstat_theta_sd             =   4.4420467243341E+00
(PID.TID 0000.0001) %MON dynstat_theta_del2           =   1.2461827433843E-04
(PID.TID 0000.0001) %MON dynstat_salt_max             =   4.0655991390911E+01
(PID.TID 0000.0001) %MON dynstat_salt_min             =   1.6045789540619E+01
(PID.TID 0000.0001) %MON dynstat_salt_mean            =   3.4724806511710E+01
(PID.TID 0000.0001) %MON dynstat_salt_sd              =   3.7970820598884E-01
(PID.TID 0000.0001) %MON dynstat_salt_del2            =   6.6381824569672E-05
(PID.TID 0000.0001) %MON dynstat_sst_max              =   3.2420920597850E+01
(PID.TID 0000.0001) %MON dynstat_sst_min              =  -2.0391367310396E+00
(PID.TID 0000.0001) %MON dynstat_sst_mean             =   1.8189788741716E+01
(PID.TID 0000.0001) %MON dynstat_sst_sd               =   1.0188667869455E+01
(PID.TID 0000.0001) %MON dynstat_sst_del2             =   1.1019479343951E-03
(PID.TID 0000.0001) %MON dynstat_sss_max              =   3.9464302652721E+01
(PID.TID 0000.0001) %MON dynstat_sss_min              =   1.6045789540619E+01
(PID.TID 0000.0001) %MON dynstat_sss_mean             =   3.4644225114728E+01
(PID.TID 0000.0001) %MON dynstat_sss_sd               =   1.2978620338953E+00
(PID.TID 0000.0001) %MON dynstat_sss_del2             =   1.4739361038977E-03
(PID.TID 0000.0001) %MON forcing_qnet_max             =   1.7546315917969E+03
(PID.TID 0000.0001) %MON forcing_qnet_min             =  -1.3999723590911E+03
(PID.TID 0000.0001) %MON forcing_qnet_mean            =  -1.8926503145756E+01
(PID.TID 0000.0001) %MON forcing_qnet_sd              =   2.0295413033702E+02
(PID.TID 0000.0001) %MON forcing_qnet_del2            =   4.7239994465522E-01
(PID.TID 0000.0001) %MON forcing_qsw_max              =   0.0000000000000E+00
(PID.TID 0000.0001) %MON forcing_qsw_min              =  -1.0993395903346E+02
(PID.TID 0000.0001) %MON forcing_qsw_mean             =  -2.0856849790986E+01
(PID.TID 0000.0001) %MON forcing_qsw_sd               =   3.0489934836385E+01
(PID.TID 0000.0001) %MON forcing_qsw_del2             =   2.4522621028543E-02
(PID.TID 0000.0001) %MON forcing_empmr_max            =   1.7948690801859E-02
(PID.TID 0000.0001) %MON forcing_empmr_min            =  -3.5787053406239E-02
(PID.TID 0000.0001) %MON forcing_empmr_mean           =   3.3706786474016E-06
(PID.TID 0000.0001) %MON forcing_empmr_sd             =   3.2057564786279E-04
(PID.TID 0000.0001) %MON forcing_empmr_del2           =   3.6349744967410E-06
(PID.TID 0000.0001) %MON forcing_fu_max               =   8.5274410416423E-01
(PID.TID 0000.0001) %MON forcing_fu_min               =  -1.0874570241843E+00
(PID.TID 0000.0001) %MON forcing_fu_mean              =   1.1183963558244E-02
(PID.TID 0000.0001) %MON forcing_fu_sd                =   1.2428606214318E-01
(PID.TID 0000.0001) %MON forcing_fu_del2              =   1.6407277544749E-04
(PID.TID 0000.0001) %MON forcing_fv_max               =   9.3396702408791E-01
(PID.TID 0000.0001) %MON forcing_fv_min               =  -1.9623504165336E+00
(PID.TID 0000.0001) %MON forcing_fv_mean              =  -1.0661134730812E-03
(PID.TID 0000.0001) %MON forcing_fv_sd                =   1.0796151056110E-01
(PID.TID 0000.0001) %MON forcing_fv_del2              =   1.5529679054011E-04
(PID.TID 0000.0001) %MON trAdv_CFL_u_max              =   2.8448149380480E-02
(PID.TID 0000.0001) %MON trAdv_CFL_v_max              =   2.1348949599306E-02
(PID.TID 0000.0001) %MON trAdv_CFL_w_max              =   1.0400801162878E-01
(PID.TID 0000.0001) %MON advcfl_uvel_max              =   2.8828683006873E-02
(PID.TID 0000.0001) %MON advcfl_vvel_max              =   2.1007885661431E-02
(PID.TID 0000.0001) %MON advcfl_wvel_max              =   9.8333352535863E-02
(PID.TID 0000.0001) %MON advcfl_W_hf_max              =   1.0400801162878E-01
(PID.TID 0000.0001) %MON pe_b_mean                    =   2.2205749416704E-03
(PID.TID 0000.0001) %MON ke_max                       =   2.7112351221592E+00
(PID.TID 0000.0001) %MON ke_mean                      =   9.0844909171001E-04
(PID.TID 0000.0001) %MON ke_vol                       =   1.3350064351420E+18
(PID.TID 0000.0001) %MON vort_r_min                   =  -9.6558827211541E-05
(PID.TID 0000.0001) %MON vort_r_max                   =   1.0572025314471E-04
(PID.TID 0000.0001) %MON vort_a_mean                  =  -1.9725077791333E-05
(PID.TID 0000.0001) %MON vort_a_sd                    =   7.4539585462106E-05
(PID.TID 0000.0001) %MON vort_p_mean                  =  -2.1669082841275E-05
(PID.TID 0000.0001) %MON vort_p_sd                    =   9.3609848354285E-05
(PID.TID 0000.0001) %MON surfExpan_theta_mean         =   2.9025487939386E-05
(PID.TID 0000.0001) %MON surfExpan_salt_mean          =   3.2860571824058E-05
(PID.TID 0000.0001) // =======================================================
(PID.TID 0000.0001) // End MONITOR dynamic field statistics
(PID.TID 0000.0001) // =======================================================
(PID.TID 0000.0001) // =======================================================
(PID.TID 0000.0001) // Begin MONITOR SEAICE statistics
(PID.TID 0000.0001) // =======================================================
(PID.TID 0000.0001) %MON seaice_tsnumber              =                174796
(PID.TID 0000.0001) %MON seaice_time_sec              =   7.8658200000000E+07
(PID.TID 0000.0001) %MON seaice_uice_max              =   1.4989031805006E+00
(PID.TID 0000.0001) %MON seaice_uice_min              =  -1.1965503947490E+00
(PID.TID 0000.0001) %MON seaice_uice_mean             =   3.3676493671255E-03
(PID.TID 0000.0001) %MON seaice_uice_sd               =   1.5474709777537E-01
(PID.TID 0000.0001) %MON seaice_uice_del2             =   3.4410650643755E-04
(PID.TID 0000.0001) %MON seaice_vice_max              =   9.1844538090496E-01
(PID.TID 0000.0001) %MON seaice_vice_min              =  -1.4855724780277E+00
(PID.TID 0000.0001) %MON seaice_vice_mean             =  -2.3640623063843E-02
(PID.TID 0000.0001) %MON seaice_vice_sd               =   1.6874830951265E-01
(PID.TID 0000.0001) %MON seaice_vice_del2             =   3.2228890570464E-04
(PID.TID 0000.0001) %MON seaice_area_max              =   1.0035500250822E+00
(PID.TID 0000.0001) %MON seaice_area_min              =   0.0000000000000E+00
(PID.TID 0000.0001) %MON seaice_area_mean             =   5.7448007045838E-02
(PID.TID 0000.0001) %MON seaice_area_sd               =   2.2109339704976E-01
(PID.TID 0000.0001) %MON seaice_area_del2             =   2.9177894695949E-04
(PID.TID 0000.0001) %MON seaice_heff_max              =   9.9483259514696E+00
(PID.TID 0000.0001) %MON seaice_heff_min              =   0.0000000000000E+00
(PID.TID 0000.0001) %MON seaice_heff_mean             =   1.4967839993132E-01
(PID.TID 0000.0001) %MON seaice_heff_sd               =   7.2044652838385E-01
(PID.TID 0000.0001) %MON seaice_heff_del2             =   1.3848297554886E-03
(PID.TID 0000.0001) %MON seaice_hsnow_max             =   3.2859606447731E+00
(PID.TID 0000.0001) %MON seaice_hsnow_min             =   0.0000000000000E+00
(PID.TID 0000.0001) %MON seaice_hsnow_mean            =   1.2655535622427E-02
(PID.TID 0000.0001) %MON seaice_hsnow_sd              =   6.8341946406488E-02
(PID.TID 0000.0001) %MON seaice_hsnow_del2            =   3.8086544174477E-04
(PID.TID 0000.0001) // =======================================================
(PID.TID 0000.0001) // End MONITOR SEAICE statistics
(PID.TID 0000.0001) // =======================================================
(PID.TID 0000.0001) // =======================================================
(PID.TID 0000.0001) // Begin MONITOR dynamic field statistics
(PID.TID 0000.0001) // =======================================================
(PID.TID 0000.0001) %MON time_tsnumber                =                174797
(PID.TID 0000.0001) %MON time_secondsf                =   7.8658650000000E+07
(PID.TID 0000.0001) %MON dynstat_eta_max              =   2.1360600634932E+00
(PID.TID 0000.0001) %MON dynstat_eta_min              =  -1.0742334115432E+01
(PID.TID 0000.0001) %MON dynstat_eta_mean             =   8.1331036391174E-02
(PID.TID 0000.0001) %MON dynstat_eta_sd               =   8.6793956359344E-01
(PID.TID 0000.0001) %MON dynstat_eta_del2             =   2.0097857441561E-03
(PID.TID 0000.0001) %MON dynstat_uvel_max             =   2.3528828569985E+00
(PID.TID 0000.0001) %MON dynstat_uvel_min             =  -2.7523236290028E+00
(PID.TID 0000.0001) %MON dynstat_uvel_mean            =   4.0542531351369E-03
(PID.TID 0000.0001) %MON dynstat_uvel_sd              =   3.0039147461978E-02
(PID.TID 0000.0001) %MON dynstat_uvel_del2            =   3.6389915597765E-05
(PID.TID 0000.0001) %MON dynstat_vvel_max             =   2.0174962032168E+00
(PID.TID 0000.0001) %MON dynstat_vvel_min             =  -2.2606055238367E+00
(PID.TID 0000.0001) %MON dynstat_vvel_mean            =   2.6327295876022E-03
(PID.TID 0000.0001) %MON dynstat_vvel_sd              =   3.1041191368420E-02
(PID.TID 0000.0001) %MON dynstat_vvel_del2            =   3.4327967551908E-05
(PID.TID 0000.0001) %MON dynstat_wvel_max             =   7.3534976422076E-03
(PID.TID 0000.0001) %MON dynstat_wvel_min             =  -7.8035093389767E-03
(PID.TID 0000.0001) %MON dynstat_wvel_mean            =   7.8947821871623E-07
(PID.TID 0000.0001) %MON dynstat_wvel_sd              =   1.1263450770998E-04
(PID.TID 0000.0001) %MON dynstat_wvel_del2            =   2.6660898254105E-07
(PID.TID 0000.0001) %MON dynstat_theta_max            =   3.2421940758087E+01
(PID.TID 0000.0001) %MON dynstat_theta_min            =  -2.0393312341992E+00
(PID.TID 0000.0001) %MON dynstat_theta_mean           =   3.5920571473107E+00
(PID.TID 0000.0001) %MON dynstat_theta_sd             =   4.4420426055088E+00
(PID.TID 0000.0001) %MON dynstat_theta_del2           =   1.2465527428010E-04
(PID.TID 0000.0001) %MON dynstat_salt_max             =   4.0655991343598E+01
(PID.TID 0000.0001) %MON dynstat_salt_min             =   1.6044519977577E+01
(PID.TID 0000.0001) %MON dynstat_salt_mean            =   3.4724806214076E+01
(PID.TID 0000.0001) %MON dynstat_salt_sd              =   3.7970960883819E-01
(PID.TID 0000.0001) %MON dynstat_salt_del2            =   6.6335304220932E-05
(PID.TID 0000.0001) %MON dynstat_sst_max              =   3.2421940758087E+01
(PID.TID 0000.0001) %MON dynstat_sst_min              =  -2.0393312341992E+00
(PID.TID 0000.0001) %MON dynstat_sst_mean             =   1.8189664292834E+01
(PID.TID 0000.0001) %MON dynstat_sst_sd               =   1.0189026878613E+01
(PID.TID 0000.0001) %MON dynstat_sst_del2             =   1.1018713502904E-03
(PID.TID 0000.0001) %MON dynstat_sss_max              =   3.9464301202017E+01
(PID.TID 0000.0001) %MON dynstat_sss_min              =   1.6044519977577E+01
(PID.TID 0000.0001) %MON dynstat_sss_mean             =   3.4644179582278E+01
(PID.TID 0000.0001) %MON dynstat_sss_sd               =   1.2979469686041E+00
(PID.TID 0000.0001) %MON dynstat_sss_del2             =   1.4740575012807E-03
(PID.TID 0000.0001) %MON forcing_qnet_max             =   1.7982788085938E+03
(PID.TID 0000.0001) %MON forcing_qnet_min             =  -1.3253377793823E+03
(PID.TID 0000.0001) %MON forcing_qnet_mean            =  -1.6182587917182E+01
(PID.TID 0000.0001) %MON forcing_qnet_sd              =   2.0056035055228E+02
(PID.TID 0000.0001) %MON forcing_qnet_del2            =   4.5825886463420E-01
(PID.TID 0000.0001) %MON forcing_qsw_max              =   0.0000000000000E+00
(PID.TID 0000.0001) %MON forcing_qsw_min              =  -1.0937192266923E+02
(PID.TID 0000.0001) %MON forcing_qsw_mean             =  -2.0403555253614E+01
(PID.TID 0000.0001) %MON forcing_qsw_sd               =   3.0089304744182E+01
(PID.TID 0000.0001) %MON forcing_qsw_del2             =   2.4934086905161E-02
(PID.TID 0000.0001) %MON forcing_empmr_max            =   1.8469268456101E-02
(PID.TID 0000.0001) %MON forcing_empmr_min            =  -3.6820609122515E-02
(PID.TID 0000.0001) %MON forcing_empmr_mean           =   3.3464607038169E-06
(PID.TID 0000.0001) %MON forcing_empmr_sd             =   3.2022664843731E-04
(PID.TID 0000.0001) %MON forcing_empmr_del2           =   3.6359367296683E-06
(PID.TID 0000.0001) %MON forcing_fu_max               =   8.3786357365249E-01
(PID.TID 0000.0001) %MON forcing_fu_min               =  -1.0957262536103E+00
(PID.TID 0000.0001) %MON forcing_fu_mean              =   1.1234775358138E-02
(PID.TID 0000.0001) %MON forcing_fu_sd                =   1.2432566672522E-01
(PID.TID 0000.0001) %MON forcing_fu_del2              =   1.6384451334360E-04
(PID.TID 0000.0001) %MON forcing_fv_max               =   9.3684667348862E-01
(PID.TID 0000.0001) %MON forcing_fv_min               =  -1.9617516343239E+00
(PID.TID 0000.0001) %MON forcing_fv_mean              =  -1.0904535625604E-03
(PID.TID 0000.0001) %MON forcing_fv_sd                =   1.0799403152120E-01
(PID.TID 0000.0001) %MON forcing_fv_del2              =   1.5501900756823E-04
(PID.TID 0000.0001) %MON trAdv_CFL_u_max              =   2.8389279510484E-02
(PID.TID 0000.0001) %MON trAdv_CFL_v_max              =   2.1273900141286E-02
(PID.TID 0000.0001) %MON trAdv_CFL_w_max              =   1.0376594114196E-01
(PID.TID 0000.0001) %MON advcfl_uvel_max              =   2.8769025670360E-02
(PID.TID 0000.0001) %MON advcfl_vvel_max              =   2.0934035169364E-02
(PID.TID 0000.0001) %MON advcfl_wvel_max              =   9.8107343137287E-02
(PID.TID 0000.0001) %MON advcfl_W_hf_max              =   1.0376594114196E-01
(PID.TID 0000.0001) %MON pe_b_mean                    =   2.2332957305363E-03
(PID.TID 0000.0001) %MON ke_max                       =   2.6993004451244E+00
(PID.TID 0000.0001) %MON ke_mean                      =   9.1099476131982E-04
(PID.TID 0000.0001) %MON ke_vol                       =   1.3350064351420E+18
(PID.TID 0000.0001) %MON vort_r_min                   =  -9.6378499002013E-05
(PID.TID 0000.0001) %MON vort_r_max                   =   1.0548290671075E-04
(PID.TID 0000.0001) %MON vort_a_mean                  =  -1.9725077789150E-05
(PID.TID 0000.0001) %MON vort_a_sd                    =   7.4539594271713E-05
(PID.TID 0000.0001) %MON vort_p_mean                  =  -2.1669082838877E-05
(PID.TID 0000.0001) %MON vort_p_sd                    =   9.3609907729051E-05
(PID.TID 0000.0001) %MON surfExpan_theta_mean         =   2.8667298039762E-05
(PID.TID 0000.0001) %MON surfExpan_salt_mean          =   3.2262481901577E-05
(PID.TID 0000.0001) // =======================================================
(PID.TID 0000.0001) // End MONITOR dynamic field statistics
(PID.TID 0000.0001) // =======================================================
(PID.TID 0000.0001) // =======================================================
(PID.TID 0000.0001) // Begin MONITOR SEAICE statistics
(PID.TID 0000.0001) // =======================================================
(PID.TID 0000.0001) %MON seaice_tsnumber              =                174797
(PID.TID 0000.0001) %MON seaice_time_sec              =   7.8658650000000E+07
(PID.TID 0000.0001) %MON seaice_uice_max              =   1.4964932337684E+00
(PID.TID 0000.0001) %MON seaice_uice_min              =  -1.1901731624740E+00
(PID.TID 0000.0001) %MON seaice_uice_mean             =   3.4357353967866E-03
(PID.TID 0000.0001) %MON seaice_uice_sd               =   1.5479490266682E-01
(PID.TID 0000.0001) %MON seaice_uice_del2             =   3.4425170289612E-04
(PID.TID 0000.0001) %MON seaice_vice_max              =   9.1970644826899E-01
(PID.TID 0000.0001) %MON seaice_vice_min              =  -1.4864752647453E+00
(PID.TID 0000.0001) %MON seaice_vice_mean             =  -2.3668692214934E-02
(PID.TID 0000.0001) %MON seaice_vice_sd               =   1.6876086543343E-01
(PID.TID 0000.0001) %MON seaice_vice_del2             =   3.2245238718044E-04
(PID.TID 0000.0001) %MON seaice_area_max              =   1.0034483686624E+00
(PID.TID 0000.0001) %MON seaice_area_min              =   0.0000000000000E+00
(PID.TID 0000.0001) %MON seaice_area_mean             =   5.7449629555646E-02
(PID.TID 0000.0001) %MON seaice_area_sd               =   2.2108824544169E-01
(PID.TID 0000.0001) %MON seaice_area_del2             =   2.9163477701288E-04
(PID.TID 0000.0001) %MON seaice_heff_max              =   9.9483097616176E+00
(PID.TID 0000.0001) %MON seaice_heff_min              =   0.0000000000000E+00
(PID.TID 0000.0001) %MON seaice_heff_mean             =   1.4967457355905E-01
(PID.TID 0000.0001) %MON seaice_heff_sd               =   7.2043611030922E-01
(PID.TID 0000.0001) %MON seaice_heff_del2             =   1.3841009055889E-03
(PID.TID 0000.0001) %MON seaice_hsnow_max             =   3.2859558097731E+00
(PID.TID 0000.0001) %MON seaice_hsnow_min             =   0.0000000000000E+00
(PID.TID 0000.0001) %MON seaice_hsnow_mean            =   1.2654766832747E-02
(PID.TID 0000.0001) %MON seaice_hsnow_sd              =   6.8334550220830E-02
(PID.TID 0000.0001) %MON seaice_hsnow_del2            =   3.8057470441224E-04
(PID.TID 0000.0001) // =======================================================
(PID.TID 0000.0001) // End MONITOR SEAICE statistics
(PID.TID 0000.0001) // =======================================================
(PID.TID 0000.0001) // =======================================================
(PID.TID 0000.0001) // Begin MONITOR dynamic field statistics
(PID.TID 0000.0001) // =======================================================
(PID.TID 0000.0001) %MON time_tsnumber                =                174798
(PID.TID 0000.0001) %MON time_secondsf                =   7.8659100000000E+07
(PID.TID 0000.0001) %MON dynstat_eta_max              =   2.2375438035064E+00
(PID.TID 0000.0001) %MON dynstat_eta_min              =  -1.0781877118642E+01
(PID.TID 0000.0001) %MON dynstat_eta_mean             =   8.1719535254022E-02
(PID.TID 0000.0001) %MON dynstat_eta_sd               =   8.6916154412652E-01
(PID.TID 0000.0001) %MON dynstat_eta_del2             =   2.0097778946380E-03
(PID.TID 0000.0001) %MON dynstat_uvel_max             =   2.3516035916683E+00
(PID.TID 0000.0001) %MON dynstat_uvel_min             =  -2.7464665385883E+00
(PID.TID 0000.0001) %MON dynstat_uvel_mean            =   4.0200046079429E-03
(PID.TID 0000.0001) %MON dynstat_uvel_sd              =   3.0080685534709E-02
(PID.TID 0000.0001) %MON dynstat_uvel_del2            =   3.6425469927397E-05
(PID.TID 0000.0001) %MON dynstat_vvel_max             =   2.0071418436996E+00
(PID.TID 0000.0001) %MON dynstat_vvel_min             =  -2.2611213629324E+00
(PID.TID 0000.0001) %MON dynstat_vvel_mean            =   2.6509624697212E-03
(PID.TID 0000.0001) %MON dynstat_vvel_sd              =   3.1092003999730E-02
(PID.TID 0000.0001) %MON dynstat_vvel_del2            =   3.4374481566842E-05
(PID.TID 0000.0001) %MON dynstat_wvel_max             =   7.3741009668103E-03
(PID.TID 0000.0001) %MON dynstat_wvel_min             =  -7.7926568080776E-03
(PID.TID 0000.0001) %MON dynstat_wvel_mean            =   7.7843971930798E-07
(PID.TID 0000.0001) %MON dynstat_wvel_sd              =   1.1308482149073E-04
(PID.TID 0000.0001) %MON dynstat_wvel_del2            =   2.6745097105922E-07
(PID.TID 0000.0001) %MON dynstat_theta_max            =   3.2422971478449E+01
(PID.TID 0000.0001) %MON dynstat_theta_min            =  -2.0395264281468E+00
(PID.TID 0000.0001) %MON dynstat_theta_mean           =   3.5920543406180E+00
(PID.TID 0000.0001) %MON dynstat_theta_sd             =   4.4420387105248E+00
(PID.TID 0000.0001) %MON dynstat_theta_del2           =   1.2469083114566E-04
(PID.TID 0000.0001) %MON dynstat_salt_max             =   4.0655991295483E+01
(PID.TID 0000.0001) %MON dynstat_salt_min             =   1.6043203547336E+01
(PID.TID 0000.0001) %MON dynstat_salt_mean            =   3.4724805911447E+01
(PID.TID 0000.0001) %MON dynstat_salt_sd              =   3.7971103478021E-01
(PID.TID 0000.0001) %MON dynstat_salt_del2            =   6.6284734238372E-05
(PID.TID 0000.0001) %MON dynstat_sst_max              =   3.2422971478449E+01
(PID.TID 0000.0001) %MON dynstat_sst_min              =  -2.0395264281468E+00
(PID.TID 0000.0001) %MON dynstat_sst_mean             =   1.8189553758617E+01
(PID.TID 0000.0001) %MON dynstat_sst_sd               =   1.0189390818744E+01
(PID.TID 0000.0001) %MON dynstat_sst_del2             =   1.1016237088893E-03
(PID.TID 0000.0001) %MON dynstat_sss_max              =   3.9464301670435E+01
(PID.TID 0000.0001) %MON dynstat_sss_min              =   1.6043203547336E+01
(PID.TID 0000.0001) %MON dynstat_sss_mean             =   3.4644133677378E+01
(PID.TID 0000.0001) %MON dynstat_sss_sd               =   1.2980330408157E+00
(PID.TID 0000.0001) %MON dynstat_sss_del2             =   1.4739013925692E-03
(PID.TID 0000.0001) %MON forcing_qnet_max             =   2.8270422363281E+03
(PID.TID 0000.0001) %MON forcing_qnet_min             =  -1.2527934048756E+03
(PID.TID 0000.0001) %MON forcing_qnet_mean            =  -1.5376793444813E+01
(PID.TID 0000.0001) %MON forcing_qnet_sd              =   2.0021379635262E+02
(PID.TID 0000.0001) %MON forcing_qnet_del2            =   4.6457213689821E-01
(PID.TID 0000.0001) %MON forcing_qsw_max              =   0.0000000000000E+00
(PID.TID 0000.0001) %MON forcing_qsw_min              =  -1.0941064727299E+02
(PID.TID 0000.0001) %MON forcing_qsw_mean             =  -2.0317831667843E+01
(PID.TID 0000.0001) %MON forcing_qsw_sd               =   2.9985144875297E+01
(PID.TID 0000.0001) %MON forcing_qsw_del2             =   2.5002823756493E-02
(PID.TID 0000.0001) %MON forcing_empmr_max            =   2.0293843001127E-02
(PID.TID 0000.0001) %MON forcing_empmr_min            =  -3.6410462111235E-02
(PID.TID 0000.0001) %MON forcing_empmr_mean           =   3.3495901558882E-06
(PID.TID 0000.0001) %MON forcing_empmr_sd             =   3.2099313650417E-04
(PID.TID 0000.0001) %MON forcing_empmr_del2           =   3.6545559490954E-06
(PID.TID 0000.0001) %MON forcing_fu_max               =   8.2157620583600E-01
(PID.TID 0000.0001) %MON forcing_fu_min               =  -1.0971392253175E+00
(PID.TID 0000.0001) %MON forcing_fu_mean              =   1.1284672236816E-02
(PID.TID 0000.0001) %MON forcing_fu_sd                =   1.2440630982373E-01
(PID.TID 0000.0001) %MON forcing_fu_del2              =   1.6375052872540E-04
(PID.TID 0000.0001) %MON forcing_fv_max               =   9.4033992290497E-01
(PID.TID 0000.0001) %MON forcing_fv_min               =  -1.9595088130888E+00
(PID.TID 0000.0001) %MON forcing_fv_mean              =  -1.1151851664310E-03
(PID.TID 0000.0001) %MON forcing_fv_sd                =   1.0804373361232E-01
(PID.TID 0000.0001) %MON forcing_fv_del2              =   1.5474400840842E-04
(PID.TID 0000.0001) %MON trAdv_CFL_u_max              =   2.8328865620509E-02
(PID.TID 0000.0001) %MON trAdv_CFL_v_max              =   2.1197651267315E-02
(PID.TID 0000.0001) %MON trAdv_CFL_w_max              =   1.0352060891044E-01
(PID.TID 0000.0001) %MON advcfl_uvel_max              =   2.8707803660450E-02
(PID.TID 0000.0001) %MON advcfl_vvel_max              =   2.0859004422828E-02
(PID.TID 0000.0001) %MON advcfl_wvel_max              =   9.7877892266674E-02
(PID.TID 0000.0001) %MON advcfl_W_hf_max              =   1.0352060891044E-01
(PID.TID 0000.0001) %MON pe_b_mean                    =   2.2458641358047E-03
(PID.TID 0000.0001) %MON ke_max                       =   2.6870031420101E+00
(PID.TID 0000.0001) %MON ke_mean                      =   9.1363444345660E-04
(PID.TID 0000.0001) %MON ke_vol                       =   1.3350064351420E+18
(PID.TID 0000.0001) %MON vort_r_min                   =  -9.6192945250347E-05
(PID.TID 0000.0001) %MON vort_r_max                   =   1.0523735174105E-04
(PID.TID 0000.0001) %MON vort_a_mean                  =  -1.9725077776344E-05
(PID.TID 0000.0001) %MON vort_a_sd                    =   7.4539603646526E-05
(PID.TID 0000.0001) %MON vort_p_mean                  =  -2.1669082824810E-05
(PID.TID 0000.0001) %MON vort_p_sd                    =   9.3609970108267E-05
(PID.TID 0000.0001) %MON surfExpan_theta_mean         =   2.8312365830511E-05
(PID.TID 0000.0001) %MON surfExpan_salt_mean          =   3.1645386721790E-05
(PID.TID 0000.0001) // =======================================================
(PID.TID 0000.0001) // End MONITOR dynamic field statistics
(PID.TID 0000.0001) // =======================================================
(PID.TID 0000.0001) // =======================================================
(PID.TID 0000.0001) // Begin MONITOR SEAICE statistics
(PID.TID 0000.0001) // =======================================================
(PID.TID 0000.0001) %MON seaice_tsnumber              =                174798
(PID.TID 0000.0001) %MON seaice_time_sec              =   7.8659100000000E+07
(PID.TID 0000.0001) %MON seaice_uice_max              =   1.4937380917870E+00
(PID.TID 0000.0001) %MON seaice_uice_min              =  -1.1834622711822E+00
(PID.TID 0000.0001) %MON seaice_uice_mean             =   3.4952700481850E-03
(PID.TID 0000.0001) %MON seaice_uice_sd               =   1.5483318948247E-01
(PID.TID 0000.0001) %MON seaice_uice_del2             =   3.4449079467607E-04
(PID.TID 0000.0001) %MON seaice_vice_max              =   9.2075252437163E-01
(PID.TID 0000.0001) %MON seaice_vice_min              =  -1.4873496163921E+00
(PID.TID 0000.0001) %MON seaice_vice_mean             =  -2.3666702833713E-02
(PID.TID 0000.0001) %MON seaice_vice_sd               =   1.6873192528368E-01
(PID.TID 0000.0001) %MON seaice_vice_del2             =   3.2265135558886E-04
(PID.TID 0000.0001) %MON seaice_area_max              =   1.0034394169875E+00
(PID.TID 0000.0001) %MON seaice_area_min              =   0.0000000000000E+00
(PID.TID 0000.0001) %MON seaice_area_mean             =   5.7451227997912E-02
(PID.TID 0000.0001) %MON seaice_area_sd               =   2.2108315162187E-01
(PID.TID 0000.0001) %MON seaice_area_del2             =   2.9149997905056E-04
(PID.TID 0000.0001) %MON seaice_heff_max              =   9.9482945262490E+00
(PID.TID 0000.0001) %MON seaice_heff_min              =   0.0000000000000E+00
(PID.TID 0000.0001) %MON seaice_heff_mean             =   1.4967073121432E-01
(PID.TID 0000.0001) %MON seaice_heff_sd               =   7.2042563353476E-01
(PID.TID 0000.0001) %MON seaice_heff_del2             =   1.3833808717677E-03
(PID.TID 0000.0001) %MON seaice_hsnow_max             =   3.2859504985008E+00
(PID.TID 0000.0001) %MON seaice_hsnow_min             =   0.0000000000000E+00
(PID.TID 0000.0001) %MON seaice_hsnow_mean            =   1.2653999537547E-02
(PID.TID 0000.0001) %MON seaice_hsnow_sd              =   6.8327095037175E-02
(PID.TID 0000.0001) %MON seaice_hsnow_del2            =   3.8028556845781E-04
(PID.TID 0000.0001) // =======================================================
(PID.TID 0000.0001) // End MONITOR SEAICE statistics
(PID.TID 0000.0001) // =======================================================
(PID.TID 0000.0001) // =======================================================
(PID.TID 0000.0001) // Begin MONITOR dynamic field statistics
(PID.TID 0000.0001) // =======================================================
(PID.TID 0000.0001) %MON time_tsnumber                =                174799
(PID.TID 0000.0001) %MON time_secondsf                =   7.8659550000000E+07
(PID.TID 0000.0001) %MON dynstat_eta_max              =   2.3329639712220E+00
(PID.TID 0000.0001) %MON dynstat_eta_min              =  -1.0820071643681E+01
(PID.TID 0000.0001) %MON dynstat_eta_mean             =   8.2098943815342E-02
(PID.TID 0000.0001) %MON dynstat_eta_sd               =   8.7039932538490E-01
(PID.TID 0000.0001) %MON dynstat_eta_del2             =   2.0097617042141E-03
(PID.TID 0000.0001) %MON dynstat_uvel_max             =   2.3500636148581E+00
(PID.TID 0000.0001) %MON dynstat_uvel_min             =  -2.7404723059730E+00
(PID.TID 0000.0001) %MON dynstat_uvel_mean            =   3.9844759592412E-03
(PID.TID 0000.0001) %MON dynstat_uvel_sd              =   3.0124764244789E-02
(PID.TID 0000.0001) %MON dynstat_uvel_del2            =   3.6461534121988E-05
(PID.TID 0000.0001) %MON dynstat_vvel_max             =   1.9967177020553E+00
(PID.TID 0000.0001) %MON dynstat_vvel_min             =  -2.2613760557196E+00
(PID.TID 0000.0001) %MON dynstat_vvel_mean            =   2.6701932861693E-03
(PID.TID 0000.0001) %MON dynstat_vvel_sd              =   3.1142988887373E-02
(PID.TID 0000.0001) %MON dynstat_vvel_del2            =   3.4421648079958E-05
(PID.TID 0000.0001) %MON dynstat_wvel_max             =   7.3949807431214E-03
(PID.TID 0000.0001) %MON dynstat_wvel_min             =  -7.7813714863207E-03
(PID.TID 0000.0001) %MON dynstat_wvel_mean            =   7.6679166461985E-07
(PID.TID 0000.0001) %MON dynstat_wvel_sd              =   1.1354548629560E-04
(PID.TID 0000.0001) %MON dynstat_wvel_del2            =   2.6830366663660E-07
(PID.TID 0000.0001) %MON dynstat_theta_max            =   3.2424054723599E+01
(PID.TID 0000.0001) %MON dynstat_theta_min            =  -2.0397216812531E+00
(PID.TID 0000.0001) %MON dynstat_theta_mean           =   3.5920515321727E+00
(PID.TID 0000.0001) %MON dynstat_theta_sd             =   4.4420349318603E+00
(PID.TID 0000.0001) %MON dynstat_theta_del2           =   1.2472748573874E-04
(PID.TID 0000.0001) %MON dynstat_salt_max             =   4.0655991246726E+01
(PID.TID 0000.0001) %MON dynstat_salt_min             =   1.6041839507954E+01
(PID.TID 0000.0001) %MON dynstat_salt_mean            =   3.4724805606052E+01
(PID.TID 0000.0001) %MON dynstat_salt_sd              =   3.7971246421881E-01
(PID.TID 0000.0001) %MON dynstat_salt_del2            =   6.6238108383518E-05
(PID.TID 0000.0001) %MON dynstat_sst_max              =   3.2424054723599E+01
(PID.TID 0000.0001) %MON dynstat_sst_min              =  -2.0397216812531E+00
(PID.TID 0000.0001) %MON dynstat_sst_mean             =   1.8189421943878E+01
(PID.TID 0000.0001) %MON dynstat_sst_sd               =   1.0189739273251E+01
(PID.TID 0000.0001) %MON dynstat_sst_del2             =   1.1015379852658E-03
(PID.TID 0000.0001) %MON dynstat_sss_max              =   3.9464303819615E+01
(PID.TID 0000.0001) %MON dynstat_sss_min              =   1.6041839507954E+01
(PID.TID 0000.0001) %MON dynstat_sss_mean             =   3.4644088511685E+01
(PID.TID 0000.0001) %MON dynstat_sss_sd               =   1.2981168938550E+00
(PID.TID 0000.0001) %MON dynstat_sss_del2             =   1.4739706078653E-03
(PID.TID 0000.0001) %MON forcing_qnet_max             =   1.7954512939453E+03
(PID.TID 0000.0001) %MON forcing_qnet_min             =  -1.8290521249057E+03
(PID.TID 0000.0001) %MON forcing_qnet_mean            =  -1.3804795853328E+01
(PID.TID 0000.0001) %MON forcing_qnet_sd              =   1.9865217876338E+02
(PID.TID 0000.0001) %MON forcing_qnet_del2            =   4.6223735173117E-01
(PID.TID 0000.0001) %MON forcing_qsw_max              =   0.0000000000000E+00
(PID.TID 0000.0001) %MON forcing_qsw_min              =  -1.0950745490699E+02
(PID.TID 0000.0001) %MON forcing_qsw_mean             =  -2.0220249207884E+01
(PID.TID 0000.0001) %MON forcing_qsw_sd               =   2.9872525151076E+01
(PID.TID 0000.0001) %MON forcing_qsw_del2             =   2.5056643946701E-02
(PID.TID 0000.0001) %MON forcing_empmr_max            =   2.8118958696723E-02
(PID.TID 0000.0001) %MON forcing_empmr_min            =  -3.5715315490961E-02
(PID.TID 0000.0001) %MON forcing_empmr_mean           =   3.1683528144214E-06
(PID.TID 0000.0001) %MON forcing_empmr_sd             =   3.2166724830805E-04
(PID.TID 0000.0001) %MON forcing_empmr_del2           =   3.7483654552851E-06
(PID.TID 0000.0001) %MON forcing_fu_max               =   8.0391311506516E-01
(PID.TID 0000.0001) %MON forcing_fu_min               =  -1.0997493211069E+00
(PID.TID 0000.0001) %MON forcing_fu_mean              =   1.1330987480637E-02
(PID.TID 0000.0001) %MON forcing_fu_sd                =   1.2445518245666E-01
(PID.TID 0000.0001) %MON forcing_fu_del2              =   1.6354611372323E-04
(PID.TID 0000.0001) %MON forcing_fv_max               =   9.4347670674324E-01
(PID.TID 0000.0001) %MON forcing_fv_min               =  -1.9559831835856E+00
(PID.TID 0000.0001) %MON forcing_fv_mean              =  -1.1354442981893E-03
(PID.TID 0000.0001) %MON forcing_fv_sd                =   1.0807731476663E-01
(PID.TID 0000.0001) %MON forcing_fv_del2              =   1.5452884977204E-04
(PID.TID 0000.0001) %MON trAdv_CFL_u_max              =   2.8267037155509E-02
(PID.TID 0000.0001) %MON trAdv_CFL_v_max              =   2.1120297036013E-02
(PID.TID 0000.0001) %MON trAdv_CFL_w_max              =   1.0326643565086E-01
(PID.TID 0000.0001) %MON advcfl_uvel_max              =   2.8645148153603E-02
(PID.TID 0000.0001) %MON advcfl_vvel_max              =   2.0782885977794E-02
(PID.TID 0000.0001) %MON advcfl_wvel_max              =   9.7639263487711E-02
(PID.TID 0000.0001) %MON advcfl_W_hf_max              =   1.0326643565086E-01
(PID.TID 0000.0001) %MON pe_b_mean                    =   2.2582664675233E-03
(PID.TID 0000.0001) %MON ke_max                       =   2.6743794659007E+00
(PID.TID 0000.0001) %MON ke_mean                      =   9.1635635196571E-04
(PID.TID 0000.0001) %MON ke_vol                       =   1.3350064351420E+18
(PID.TID 0000.0001) %MON vort_r_min                   =  -9.6002757353198E-05
(PID.TID 0000.0001) %MON vort_r_max                   =   1.0498430032830E-04
(PID.TID 0000.0001) %MON vort_a_mean                  =  -1.9725077753910E-05
(PID.TID 0000.0001) %MON vort_a_sd                    =   7.4539613630805E-05
(PID.TID 0000.0001) %MON vort_p_mean                  =  -2.1669082800164E-05
(PID.TID 0000.0001) %MON vort_p_sd                    =   9.3610035823153E-05
(PID.TID 0000.0001) %MON surfExpan_theta_mean         =   2.7936180805995E-05
(PID.TID 0000.0001) %MON surfExpan_salt_mean          =   3.0983653697490E-05
(PID.TID 0000.0001) // =======================================================
(PID.TID 0000.0001) // End MONITOR dynamic field statistics
(PID.TID 0000.0001) // =======================================================
(PID.TID 0000.0001) // =======================================================
(PID.TID 0000.0001) // Begin MONITOR SEAICE statistics
(PID.TID 0000.0001) // =======================================================
(PID.TID 0000.0001) %MON seaice_tsnumber              =                174799
(PID.TID 0000.0001) %MON seaice_time_sec              =   7.8659550000000E+07
(PID.TID 0000.0001) %MON seaice_uice_max              =   1.4906315102865E+00
(PID.TID 0000.0001) %MON seaice_uice_min              =  -1.1764423058497E+00
(PID.TID 0000.0001) %MON seaice_uice_mean             =   3.5517194134139E-03
(PID.TID 0000.0001) %MON seaice_uice_sd               =   1.5487318278719E-01
(PID.TID 0000.0001) %MON seaice_uice_del2             =   3.4462642765841E-04
(PID.TID 0000.0001) %MON seaice_vice_max              =   9.2159664316096E-01
(PID.TID 0000.0001) %MON seaice_vice_min              =  -1.4881971644460E+00
(PID.TID 0000.0001) %MON seaice_vice_mean             =  -2.3679310941920E-02
(PID.TID 0000.0001) %MON seaice_vice_sd               =   1.6871991837367E-01
(PID.TID 0000.0001) %MON seaice_vice_del2             =   3.2290884737310E-04
(PID.TID 0000.0001) %MON seaice_area_max              =   1.0034443809998E+00
(PID.TID 0000.0001) %MON seaice_area_min              =   0.0000000000000E+00
(PID.TID 0000.0001) %MON seaice_area_mean             =   5.7452789197182E-02
(PID.TID 0000.0001) %MON seaice_area_sd               =   2.2107801238552E-01
(PID.TID 0000.0001) %MON seaice_area_del2             =   2.9137083463992E-04
(PID.TID 0000.0001) %MON seaice_heff_max              =   9.9482792924700E+00
(PID.TID 0000.0001) %MON seaice_heff_min              =   0.0000000000000E+00
(PID.TID 0000.0001) %MON seaice_heff_mean             =   1.4966687827197E-01
(PID.TID 0000.0001) %MON seaice_heff_sd               =   7.2041512694952E-01
(PID.TID 0000.0001) %MON seaice_heff_del2             =   1.3826706354336E-03
(PID.TID 0000.0001) %MON seaice_hsnow_max             =   3.2859451888438E+00
(PID.TID 0000.0001) %MON seaice_hsnow_min             =   0.0000000000000E+00
(PID.TID 0000.0001) %MON seaice_hsnow_mean            =   1.2653232788624E-02
(PID.TID 0000.0001) %MON seaice_hsnow_sd              =   6.8319637846065E-02
(PID.TID 0000.0001) %MON seaice_hsnow_del2            =   3.7999841686146E-04
(PID.TID 0000.0001) // =======================================================
(PID.TID 0000.0001) // End MONITOR SEAICE statistics
(PID.TID 0000.0001) // =======================================================
(PID.TID 0000.0001) // =======================================================
(PID.TID 0000.0001) // Begin MONITOR dynamic field statistics
(PID.TID 0000.0001) // =======================================================
(PID.TID 0000.0001) %MON time_tsnumber                =                174800
(PID.TID 0000.0001) %MON time_secondsf                =   7.8660000000000E+07
(PID.TID 0000.0001) %MON dynstat_eta_max              =   2.4217816402196E+00
(PID.TID 0000.0001) %MON dynstat_eta_min              =  -1.0856150602007E+01
(PID.TID 0000.0001) %MON dynstat_eta_mean             =   8.2468823667066E-02
(PID.TID 0000.0001) %MON dynstat_eta_sd               =   8.7165022345591E-01
(PID.TID 0000.0001) %MON dynstat_eta_del2             =   2.0097564526973E-03
(PID.TID 0000.0001) %MON dynstat_uvel_max             =   2.3482466156054E+00
(PID.TID 0000.0001) %MON dynstat_uvel_min             =  -2.7343654111542E+00
(PID.TID 0000.0001) %MON dynstat_uvel_mean            =   3.9480464304524E-03
(PID.TID 0000.0001) %MON dynstat_uvel_sd              =   3.0171705746238E-02
(PID.TID 0000.0001) %MON dynstat_uvel_del2            =   3.6498052964065E-05
(PID.TID 0000.0001) %MON dynstat_vvel_max             =   1.9862317663451E+00
(PID.TID 0000.0001) %MON dynstat_vvel_min             =  -2.2613637711907E+00
(PID.TID 0000.0001) %MON dynstat_vvel_mean            =   2.6904527693236E-03
(PID.TID 0000.0001) %MON dynstat_vvel_sd              =   3.1194233671828E-02
(PID.TID 0000.0001) %MON dynstat_vvel_del2            =   3.4469328132124E-05
(PID.TID 0000.0001) %MON dynstat_wvel_max             =   7.4161277157276E-03
(PID.TID 0000.0001) %MON dynstat_wvel_min             =  -7.7783733111287E-03
(PID.TID 0000.0001) %MON dynstat_wvel_mean            =   7.5460008032978E-07
(PID.TID 0000.0001) %MON dynstat_wvel_sd              =   1.1401650636262E-04
(PID.TID 0000.0001) %MON dynstat_wvel_del2            =   2.6916682045730E-07
(PID.TID 0000.0001) %MON dynstat_theta_max            =   3.2425145522395E+01
(PID.TID 0000.0001) %MON dynstat_theta_min            =  -2.0399112076726E+00
(PID.TID 0000.0001) %MON dynstat_theta_mean           =   3.5920487325021E+00
(PID.TID 0000.0001) %MON dynstat_theta_sd             =   4.4420313037495E+00
(PID.TID 0000.0001) %MON dynstat_theta_del2           =   1.2476287005137E-04
(PID.TID 0000.0001) %MON dynstat_salt_max             =   4.0655991197470E+01
(PID.TID 0000.0001) %MON dynstat_salt_min             =   1.6040427712930E+01
(PID.TID 0000.0001) %MON dynstat_salt_mean            =   3.4724805296673E+01
(PID.TID 0000.0001) %MON dynstat_salt_sd              =   3.7971390130987E-01
(PID.TID 0000.0001) %MON dynstat_salt_del2            =   6.6187464789334E-05
(PID.TID 0000.0001) %MON dynstat_sst_max              =   3.2425145522395E+01
(PID.TID 0000.0001) %MON dynstat_sst_min              =  -2.0399112076726E+00
(PID.TID 0000.0001) %MON dynstat_sst_mean             =   1.8189292050250E+01
(PID.TID 0000.0001) %MON dynstat_sst_sd               =   1.0190087904308E+01
(PID.TID 0000.0001) %MON dynstat_sst_del2             =   1.1012923956665E-03
(PID.TID 0000.0001) %MON dynstat_sss_max              =   3.9464307518326E+01
(PID.TID 0000.0001) %MON dynstat_sss_min              =   1.6040427712930E+01
(PID.TID 0000.0001) %MON dynstat_sss_mean             =   3.4644042606613E+01
(PID.TID 0000.0001) %MON dynstat_sss_sd               =   1.2982005859975E+00
(PID.TID 0000.0001) %MON dynstat_sss_del2             =   1.4737631044348E-03
(PID.TID 0000.0001) %MON forcing_qnet_max             =   2.7823786621094E+03
(PID.TID 0000.0001) %MON forcing_qnet_min             =  -1.9665795713961E+03
(PID.TID 0000.0001) %MON forcing_qnet_mean            =  -1.2462305069803E+01
(PID.TID 0000.0001) %MON forcing_qnet_sd              =   1.9870259490550E+02
(PID.TID 0000.0001) %MON forcing_qnet_del2            =   4.8844350449211E-01
(PID.TID 0000.0001) %MON forcing_qsw_max              =   0.0000000000000E+00
(PID.TID 0000.0001) %MON forcing_qsw_min              =  -1.0968295344957E+02
(PID.TID 0000.0001) %MON forcing_qsw_mean             =  -2.0111280099825E+01
(PID.TID 0000.0001) %MON forcing_qsw_sd               =   2.9751682529102E+01
(PID.TID 0000.0001) %MON forcing_qsw_del2             =   2.5095446218367E-02
(PID.TID 0000.0001) %MON forcing_empmr_max            =   2.0180908963084E-02
(PID.TID 0000.0001) %MON forcing_empmr_min            =  -3.5149902105331E-02
(PID.TID 0000.0001) %MON forcing_empmr_mean           =   3.1251995475133E-06
(PID.TID 0000.0001) %MON forcing_empmr_sd             =   3.1487357845422E-04
(PID.TID 0000.0001) %MON forcing_empmr_del2           =   3.5649251007722E-06
(PID.TID 0000.0001) %MON forcing_fu_max               =   7.8483521180944E-01
(PID.TID 0000.0001) %MON forcing_fu_min               =  -1.1023130164332E+00
(PID.TID 0000.0001) %MON forcing_fu_mean              =   1.1383723561718E-02
(PID.TID 0000.0001) %MON forcing_fu_sd                =   1.2453979834115E-01
(PID.TID 0000.0001) %MON forcing_fu_del2              =   1.6332356366161E-04
(PID.TID 0000.0001) %MON forcing_fv_max               =   9.4191735982895E-01
(PID.TID 0000.0001) %MON forcing_fv_min               =  -1.9507450542912E+00
(PID.TID 0000.0001) %MON forcing_fv_mean              =  -1.1512275812947E-03
(PID.TID 0000.0001) %MON forcing_fv_sd                =   1.0813673125842E-01
(PID.TID 0000.0001) %MON forcing_fv_del2              =   1.5420296113501E-04
(PID.TID 0000.0001) %MON trAdv_CFL_u_max              =   2.8204046618305E-02
(PID.TID 0000.0001) %MON trAdv_CFL_v_max              =   2.1041912925893E-02
(PID.TID 0000.0001) %MON trAdv_CFL_w_max              =   1.0300184209714E-01
(PID.TID 0000.0001) %MON advcfl_uvel_max              =   2.8581315030217E-02
(PID.TID 0000.0001) %MON advcfl_vvel_max              =   2.0705754106953E-02
(PID.TID 0000.0001) %MON advcfl_wvel_max              =   9.7389988122782E-02
(PID.TID 0000.0001) %MON advcfl_W_hf_max              =   1.0300184209714E-01
(PID.TID 0000.0001) %MON pe_b_mean                    =   2.2704850465685E-03
(PID.TID 0000.0001) %MON ke_max                       =   2.6614837621687E+00
(PID.TID 0000.0001) %MON ke_mean                      =   9.1917455603061E-04
(PID.TID 0000.0001) %MON ke_vol                       =   1.3350064351420E+18
(PID.TID 0000.0001) %MON vort_r_min                   =  -9.5808782359682E-05
(PID.TID 0000.0001) %MON vort_r_max                   =   1.0472479523065E-04
(PID.TID 0000.0001) %MON vort_a_mean                  =  -1.9725077722945E-05
(PID.TID 0000.0001) %MON vort_a_sd                    =   7.4539624262947E-05
(PID.TID 0000.0001) %MON vort_p_mean                  =  -2.1669082766148E-05
(PID.TID 0000.0001) %MON vort_p_sd                    =   9.3610105028868E-05
(PID.TID 0000.0001) %MON surfExpan_theta_mean         =   2.7535018090622E-05
(PID.TID 0000.0001) %MON surfExpan_salt_mean          =   3.0285201661108E-05
(PID.TID 0000.0001) // =======================================================
(PID.TID 0000.0001) // End MONITOR dynamic field statistics
(PID.TID 0000.0001) // =======================================================
(PID.TID 0000.0001) // =======================================================
(PID.TID 0000.0001) // Begin MONITOR SEAICE statistics
(PID.TID 0000.0001) // =======================================================
(PID.TID 0000.0001) %MON seaice_tsnumber              =                174800
(PID.TID 0000.0001) %MON seaice_time_sec              =   7.8660000000000E+07
(PID.TID 0000.0001) %MON seaice_uice_max              =   1.4871675120058E+00
(PID.TID 0000.0001) %MON seaice_uice_min              =  -1.1823947944750E+00
(PID.TID 0000.0001) %MON seaice_uice_mean             =   3.6097116702692E-03
(PID.TID 0000.0001) %MON seaice_uice_sd               =   1.5490186498225E-01
(PID.TID 0000.0001) %MON seaice_uice_del2             =   3.4486956768477E-04
(PID.TID 0000.0001) %MON seaice_vice_max              =   9.2224808020656E-01
(PID.TID 0000.0001) %MON seaice_vice_min              =  -1.4890214534146E+00
(PID.TID 0000.0001) %MON seaice_vice_mean             =  -2.3684164253050E-02
(PID.TID 0000.0001) %MON seaice_vice_sd               =   1.6868739236994E-01
(PID.TID 0000.0001) %MON seaice_vice_del2             =   3.2314995786193E-04
(PID.TID 0000.0001) %MON seaice_area_max              =   1.0034488750829E+00
(PID.TID 0000.0001) %MON seaice_area_min              =   0.0000000000000E+00
(PID.TID 0000.0001) %MON seaice_area_mean             =   5.7454332474889E-02
(PID.TID 0000.0001) %MON seaice_area_sd               =   2.2107289741914E-01
(PID.TID 0000.0001) %MON seaice_area_del2             =   2.9124714963833E-04
(PID.TID 0000.0001) %MON seaice_heff_max              =   9.9482650104590E+00
(PID.TID 0000.0001) %MON seaice_heff_min              =   0.0000000000000E+00
(PID.TID 0000.0001) %MON seaice_heff_mean             =   1.4966302055533E-01
(PID.TID 0000.0001) %MON seaice_heff_sd               =   7.2040461431693E-01
(PID.TID 0000.0001) %MON seaice_heff_del2             =   1.3819700409414E-03
(PID.TID 0000.0001) %MON seaice_hsnow_max             =   3.2859401171289E+00
(PID.TID 0000.0001) %MON seaice_hsnow_min             =   0.0000000000000E+00
(PID.TID 0000.0001) %MON seaice_hsnow_mean            =   1.2652455980755E-02
(PID.TID 0000.0001) %MON seaice_hsnow_sd              =   6.8312047818509E-02
(PID.TID 0000.0001) %MON seaice_hsnow_del2            =   3.7971289550148E-04
(PID.TID 0000.0001) // =======================================================
(PID.TID 0000.0001) // End MONITOR SEAICE statistics
(PID.TID 0000.0001) // =======================================================
(PID.TID 0000.0001) // =======================================================
(PID.TID 0000.0001) // Begin MONITOR dynamic field statistics
(PID.TID 0000.0001) // =======================================================
(PID.TID 0000.0001) %MON time_tsnumber                =                174801
(PID.TID 0000.0001) %MON time_secondsf                =   7.8660450000000E+07
(PID.TID 0000.0001) %MON dynstat_eta_max              =   2.5034864124255E+00
(PID.TID 0000.0001) %MON dynstat_eta_min              =  -1.0889384502521E+01
(PID.TID 0000.0001) %MON dynstat_eta_mean             =   8.2829292235681E-02
(PID.TID 0000.0001) %MON dynstat_eta_sd               =   8.7291200088758E-01
(PID.TID 0000.0001) %MON dynstat_eta_del2             =   2.0097575148467E-03
(PID.TID 0000.0001) %MON dynstat_uvel_max             =   2.3461417555341E+00
(PID.TID 0000.0001) %MON dynstat_uvel_min             =  -2.7281704501108E+00
(PID.TID 0000.0001) %MON dynstat_uvel_mean            =   3.9110916055928E-03
(PID.TID 0000.0001) %MON dynstat_uvel_sd              =   3.0221572415802E-02
(PID.TID 0000.0001) %MON dynstat_uvel_del2            =   3.6534955335264E-05
(PID.TID 0000.0001) %MON dynstat_vvel_max             =   1.9756875983632E+00
(PID.TID 0000.0001) %MON dynstat_vvel_min             =  -2.2610824048308E+00
(PID.TID 0000.0001) %MON dynstat_vvel_mean            =   2.7117713755351E-03
(PID.TID 0000.0001) %MON dynstat_vvel_sd              =   3.1245372247598E-02
(PID.TID 0000.0001) %MON dynstat_vvel_del2            =   3.4517452566213E-05
(PID.TID 0000.0001) %MON dynstat_wvel_max             =   7.4375301942685E-03
(PID.TID 0000.0001) %MON dynstat_wvel_min             =  -7.7759668595719E-03
(PID.TID 0000.0001) %MON dynstat_wvel_mean            =   7.4226802773629E-07
(PID.TID 0000.0001) %MON dynstat_wvel_sd              =   1.1449745791358E-04
(PID.TID 0000.0001) %MON dynstat_wvel_del2            =   2.7004031544914E-07
(PID.TID 0000.0001) %MON dynstat_theta_max            =   3.2426252486092E+01
(PID.TID 0000.0001) %MON dynstat_theta_min            =  -2.0400992819664E+00
(PID.TID 0000.0001) %MON dynstat_theta_mean           =   3.5920459334235E+00
(PID.TID 0000.0001) %MON dynstat_theta_sd             =   4.4420277760998E+00
(PID.TID 0000.0001) %MON dynstat_theta_del2           =   1.2479924254100E-04
(PID.TID 0000.0001) %MON dynstat_salt_max             =   4.0655991147847E+01
(PID.TID 0000.0001) %MON dynstat_salt_min             =   1.6038970704649E+01
(PID.TID 0000.0001) %MON dynstat_salt_mean            =   3.4724804984876E+01
(PID.TID 0000.0001) %MON dynstat_salt_sd              =   3.7971533946143E-01
(PID.TID 0000.0001) %MON dynstat_salt_del2            =   6.6140731337549E-05
(PID.TID 0000.0001) %MON dynstat_sst_max              =   3.2426252486092E+01
(PID.TID 0000.0001) %MON dynstat_sst_min              =  -2.0400992819664E+00
(PID.TID 0000.0001) %MON dynstat_sst_mean             =   1.8189140057444E+01
(PID.TID 0000.0001) %MON dynstat_sst_sd               =   1.0190421089497E+01
(PID.TID 0000.0001) %MON dynstat_sst_del2             =   1.1011823948002E-03
(PID.TID 0000.0001) %MON dynstat_sss_max              =   3.9464312467996E+01
(PID.TID 0000.0001) %MON dynstat_sss_min              =   1.6038970704649E+01
(PID.TID 0000.0001) %MON dynstat_sss_mean             =   3.4643996934004E+01
(PID.TID 0000.0001) %MON dynstat_sss_sd               =   1.2982831482414E+00
(PID.TID 0000.0001) %MON dynstat_sss_del2             =   1.4737844977502E-03
(PID.TID 0000.0001) %MON forcing_qnet_max             =   2.4849221191406E+03
(PID.TID 0000.0001) %MON forcing_qnet_min             =  -1.8198143498628E+03
(PID.TID 0000.0001) %MON forcing_qnet_mean            =  -1.0887447006894E+01
(PID.TID 0000.0001) %MON forcing_qnet_sd              =   1.9794688704593E+02
(PID.TID 0000.0001) %MON forcing_qnet_del2            =   4.9378683090979E-01
(PID.TID 0000.0001) %MON forcing_qsw_max              =   0.0000000000000E+00
(PID.TID 0000.0001) %MON forcing_qsw_min              =  -1.0983922957449E+02
(PID.TID 0000.0001) %MON forcing_qsw_mean             =  -1.9991125298148E+01
(PID.TID 0000.0001) %MON forcing_qsw_sd               =   2.9623019344901E+01
(PID.TID 0000.0001) %MON forcing_qsw_del2             =   2.5119214388528E-02
(PID.TID 0000.0001) %MON forcing_empmr_max            =   2.0763088017702E-02
(PID.TID 0000.0001) %MON forcing_empmr_min            =  -3.5063534975052E-02
(PID.TID 0000.0001) %MON forcing_empmr_mean           =   2.6247240384676E-06
(PID.TID 0000.0001) %MON forcing_empmr_sd             =   3.1553799702305E-04
(PID.TID 0000.0001) %MON forcing_empmr_del2           =   3.5651229611145E-06
(PID.TID 0000.0001) %MON forcing_fu_max               =   7.6452182008228E-01
(PID.TID 0000.0001) %MON forcing_fu_min               =  -1.1079162035504E+00
(PID.TID 0000.0001) %MON forcing_fu_mean              =   1.1438163761378E-02
(PID.TID 0000.0001) %MON forcing_fu_sd                =   1.2463384064867E-01
(PID.TID 0000.0001) %MON forcing_fu_del2              =   1.6311615770694E-04
(PID.TID 0000.0001) %MON forcing_fv_max               =   9.4789603352547E-01
(PID.TID 0000.0001) %MON forcing_fv_min               =  -1.9434944499993E+00
(PID.TID 0000.0001) %MON forcing_fv_mean              =  -1.1747518850957E-03
(PID.TID 0000.0001) %MON forcing_fv_sd                =   1.0818210780451E-01
(PID.TID 0000.0001) %MON forcing_fv_del2              =   1.5394021626691E-04
(PID.TID 0000.0001) %MON trAdv_CFL_u_max              =   2.8140147708029E-02
(PID.TID 0000.0001) %MON trAdv_CFL_v_max              =   2.0962609103403E-02
(PID.TID 0000.0001) %MON trAdv_CFL_w_max              =   1.0272736815230E-01
(PID.TID 0000.0001) %MON advcfl_uvel_max              =   2.8516561383006E-02
(PID.TID 0000.0001) %MON advcfl_vvel_max              =   2.0627717216771E-02
(PID.TID 0000.0001) %MON advcfl_wvel_max              =   9.7130693515401E-02
(PID.TID 0000.0001) %MON advcfl_W_hf_max              =   1.0272736815230E-01
(PID.TID 0000.0001) %MON pe_b_mean                    =   2.2825166335745E-03
(PID.TID 0000.0001) %MON ke_max                       =   2.6483694795724E+00
(PID.TID 0000.0001) %MON ke_mean                      =   9.2208191826174E-04
(PID.TID 0000.0001) %MON ke_vol                       =   1.3350064351420E+18
(PID.TID 0000.0001) %MON vort_r_min                   =  -9.5611943856211E-05
(PID.TID 0000.0001) %MON vort_r_max                   =   1.0445986599620E-04
(PID.TID 0000.0001) %MON vort_a_mean                  =  -1.9725077684613E-05
(PID.TID 0000.0001) %MON vort_a_sd                    =   7.4539635579476E-05
(PID.TID 0000.0001) %MON vort_p_mean                  =  -2.1669082724039E-05
(PID.TID 0000.0001) %MON vort_p_sd                    =   9.3610177913060E-05
(PID.TID 0000.0001) %MON surfExpan_theta_mean         =   2.7135128327293E-05
(PID.TID 0000.0001) %MON surfExpan_salt_mean          =   2.9574532693454E-05
(PID.TID 0000.0001) // =======================================================
(PID.TID 0000.0001) // End MONITOR dynamic field statistics
(PID.TID 0000.0001) // =======================================================
(PID.TID 0000.0001) // =======================================================
(PID.TID 0000.0001) // Begin MONITOR SEAICE statistics
(PID.TID 0000.0001) // =======================================================
(PID.TID 0000.0001) %MON seaice_tsnumber              =                174801
(PID.TID 0000.0001) %MON seaice_time_sec              =   7.8660450000000E+07
(PID.TID 0000.0001) %MON seaice_uice_max              =   1.4833432067619E+00
(PID.TID 0000.0001) %MON seaice_uice_min              =  -1.1970973006452E+00
(PID.TID 0000.0001) %MON seaice_uice_mean             =   3.6626995523694E-03
(PID.TID 0000.0001) %MON seaice_uice_sd               =   1.5493212824345E-01
(PID.TID 0000.0001) %MON seaice_uice_del2             =   3.4512216690504E-04
(PID.TID 0000.0001) %MON seaice_vice_max              =   9.2272307181771E-01
(PID.TID 0000.0001) %MON seaice_vice_min              =  -1.4898218430507E+00
(PID.TID 0000.0001) %MON seaice_vice_mean             =  -2.3694940010541E-02
(PID.TID 0000.0001) %MON seaice_vice_sd               =   1.6866733970277E-01
(PID.TID 0000.0001) %MON seaice_vice_del2             =   3.2340690479240E-04
(PID.TID 0000.0001) %MON seaice_area_max              =   1.0034524374505E+00
(PID.TID 0000.0001) %MON seaice_area_min              =   0.0000000000000E+00
(PID.TID 0000.0001) %MON seaice_area_mean             =   5.7455854334964E-02
(PID.TID 0000.0001) %MON seaice_area_sd               =   2.2106779147740E-01
(PID.TID 0000.0001) %MON seaice_area_del2             =   2.9112913781750E-04
(PID.TID 0000.0001) %MON seaice_heff_max              =   9.9482507323024E+00
(PID.TID 0000.0001) %MON seaice_heff_min              =   0.0000000000000E+00
(PID.TID 0000.0001) %MON seaice_heff_mean             =   1.4965914853308E-01
(PID.TID 0000.0001) %MON seaice_heff_sd               =   7.2039405703339E-01
(PID.TID 0000.0001) %MON seaice_heff_del2             =   1.3812804913167E-03
(PID.TID 0000.0001) %MON seaice_hsnow_max             =   3.2859352858743E+00
(PID.TID 0000.0001) %MON seaice_hsnow_min             =   0.0000000000000E+00
(PID.TID 0000.0001) %MON seaice_hsnow_mean            =   1.2651704615324E-02
(PID.TID 0000.0001) %MON seaice_hsnow_sd              =   6.8304613387526E-02
(PID.TID 0000.0001) %MON seaice_hsnow_del2            =   3.7942960262308E-04
(PID.TID 0000.0001) // =======================================================
(PID.TID 0000.0001) // End MONITOR SEAICE statistics
(PID.TID 0000.0001) // =======================================================
(PID.TID 0000.0001) // =======================================================
(PID.TID 0000.0001) // Begin MONITOR dynamic field statistics
(PID.TID 0000.0001) // =======================================================
(PID.TID 0000.0001) %MON time_tsnumber                =                174802
(PID.TID 0000.0001) %MON time_secondsf                =   7.8660900000000E+07
(PID.TID 0000.0001) %MON dynstat_eta_max              =   2.5775959617927E+00
(PID.TID 0000.0001) %MON dynstat_eta_min              =  -1.0919091635284E+01
(PID.TID 0000.0001) %MON dynstat_eta_mean             =   8.3180052347537E-02
(PID.TID 0000.0001) %MON dynstat_eta_sd               =   8.7418308583926E-01
(PID.TID 0000.0001) %MON dynstat_eta_del2             =   2.0097631866548E-03
(PID.TID 0000.0001) %MON dynstat_uvel_max             =   2.3437375892443E+00
(PID.TID 0000.0001) %MON dynstat_uvel_min             =  -2.7219020587125E+00
(PID.TID 0000.0001) %MON dynstat_uvel_mean            =   3.8739856011212E-03
(PID.TID 0000.0001) %MON dynstat_uvel_sd              =   3.0274658332426E-02
(PID.TID 0000.0001) %MON dynstat_uvel_del2            =   3.6572271131278E-05
(PID.TID 0000.0001) %MON dynstat_vvel_max             =   1.9650934306506E+00
(PID.TID 0000.0001) %MON dynstat_vvel_min             =  -2.2605221939062E+00
(PID.TID 0000.0001) %MON dynstat_vvel_mean            =   2.7341736766847E-03
(PID.TID 0000.0001) %MON dynstat_vvel_sd              =   3.1296529403992E-02
(PID.TID 0000.0001) %MON dynstat_vvel_del2            =   3.4565888575031E-05
(PID.TID 0000.0001) %MON dynstat_wvel_max             =   7.4591789110427E-03
(PID.TID 0000.0001) %MON dynstat_wvel_min             =  -7.7730196467325E-03
(PID.TID 0000.0001) %MON dynstat_wvel_mean            =   7.2989000100546E-07
(PID.TID 0000.0001) %MON dynstat_wvel_sd              =   1.1498824336500E-04
(PID.TID 0000.0001) %MON dynstat_wvel_del2            =   2.7092391293539E-07
(PID.TID 0000.0001) %MON dynstat_theta_max            =   3.2427379498762E+01
(PID.TID 0000.0001) %MON dynstat_theta_min            =  -2.0402856371155E+00
(PID.TID 0000.0001) %MON dynstat_theta_mean           =   3.5920431464303E+00
(PID.TID 0000.0001) %MON dynstat_theta_sd             =   4.4420243978637E+00
(PID.TID 0000.0001) %MON dynstat_theta_del2           =   1.2483468607142E-04
(PID.TID 0000.0001) %MON dynstat_salt_max             =   4.0655991097973E+01
(PID.TID 0000.0001) %MON dynstat_salt_min             =   1.6037469160250E+01
(PID.TID 0000.0001) %MON dynstat_salt_mean            =   3.4724804672428E+01
(PID.TID 0000.0001) %MON dynstat_salt_sd              =   3.7971677940663E-01
(PID.TID 0000.0001) %MON dynstat_salt_del2            =   6.6090672518153E-05
(PID.TID 0000.0001) %MON dynstat_sst_max              =   3.2427379498762E+01
(PID.TID 0000.0001) %MON dynstat_sst_min              =  -2.0402856371155E+00
(PID.TID 0000.0001) %MON dynstat_sst_mean             =   1.8188991216794E+01
(PID.TID 0000.0001) %MON dynstat_sst_sd               =   1.0190755330724E+01
(PID.TID 0000.0001) %MON dynstat_sst_del2             =   1.1009288698248E-03
(PID.TID 0000.0001) %MON dynstat_sss_max              =   3.9464318588722E+01
(PID.TID 0000.0001) %MON dynstat_sss_min              =   1.6037469160250E+01
(PID.TID 0000.0001) %MON dynstat_sss_mean             =   3.4643951174977E+01
(PID.TID 0000.0001) %MON dynstat_sss_sd               =   1.2983656236144E+00
(PID.TID 0000.0001) %MON dynstat_sss_del2             =   1.4735619822690E-03
(PID.TID 0000.0001) %MON forcing_qnet_max             =   2.4871159667969E+03
(PID.TID 0000.0001) %MON forcing_qnet_min             =  -1.6699353858384E+03
(PID.TID 0000.0001) %MON forcing_qnet_mean            =  -9.6928796106191E+00
(PID.TID 0000.0001) %MON forcing_qnet_sd              =   1.9674030143578E+02
(PID.TID 0000.0001) %MON forcing_qnet_del2            =   4.6887928134288E-01
(PID.TID 0000.0001) %MON forcing_qsw_max              =   0.0000000000000E+00
(PID.TID 0000.0001) %MON forcing_qsw_min              =  -1.1009857356049E+02
(PID.TID 0000.0001) %MON forcing_qsw_mean             =  -1.9859771209206E+01
(PID.TID 0000.0001) %MON forcing_qsw_sd               =   2.9487047637503E+01
(PID.TID 0000.0001) %MON forcing_qsw_del2             =   2.5127805934368E-02
(PID.TID 0000.0001) %MON forcing_empmr_max            =   2.1336542442441E-02
(PID.TID 0000.0001) %MON forcing_empmr_min            =  -3.4949239343405E-02
(PID.TID 0000.0001) %MON forcing_empmr_mean           =   2.5840297606040E-06
(PID.TID 0000.0001) %MON forcing_empmr_sd             =   3.0782244058041E-04
(PID.TID 0000.0001) %MON forcing_empmr_del2           =   3.5049852318621E-06
(PID.TID 0000.0001) %MON forcing_fu_max               =   7.4155089492799E-01
(PID.TID 0000.0001) %MON forcing_fu_min               =  -1.1115292132233E+00
(PID.TID 0000.0001) %MON forcing_fu_mean              =   1.1487622215389E-02
(PID.TID 0000.0001) %MON forcing_fu_sd                =   1.2470576501303E-01
(PID.TID 0000.0001) %MON forcing_fu_del2              =   1.6294803342897E-04
(PID.TID 0000.0001) %MON forcing_fv_max               =   9.4841402769089E-01
(PID.TID 0000.0001) %MON forcing_fv_min               =  -1.9305962931164E+00
(PID.TID 0000.0001) %MON forcing_fv_mean              =  -1.1968673441145E-03
(PID.TID 0000.0001) %MON forcing_fv_sd                =   1.0822552710356E-01
(PID.TID 0000.0001) %MON forcing_fv_del2              =   1.5363495916492E-04
(PID.TID 0000.0001) %MON trAdv_CFL_u_max              =   2.8075491388688E-02
(PID.TID 0000.0001) %MON trAdv_CFL_v_max              =   2.0882525058087E-02
(PID.TID 0000.0001) %MON trAdv_CFL_w_max              =   1.0244224656630E-01
(PID.TID 0000.0001) %MON advcfl_uvel_max              =   2.8451040195327E-02
(PID.TID 0000.0001) %MON advcfl_vvel_max              =   2.0548912568351E-02
(PID.TID 0000.0001) %MON advcfl_wvel_max              =   9.6860621941400E-02
(PID.TID 0000.0001) %MON advcfl_W_hf_max              =   1.0244224656630E-01
(PID.TID 0000.0001) %MON pe_b_mean                    =   2.2943493509891E-03
(PID.TID 0000.0001) %MON ke_max                       =   2.6350760227234E+00
(PID.TID 0000.0001) %MON ke_mean                      =   9.2509278041093E-04
(PID.TID 0000.0001) %MON ke_vol                       =   1.3350064351420E+18
(PID.TID 0000.0001) %MON vort_r_min                   =  -9.5412977922807E-05
(PID.TID 0000.0001) %MON vort_r_max                   =   1.0419030912408E-04
(PID.TID 0000.0001) %MON vort_a_mean                  =  -1.9725077640086E-05
(PID.TID 0000.0001) %MON vort_a_sd                    =   7.4539647608504E-05
(PID.TID 0000.0001) %MON vort_p_mean                  =  -2.1669082675122E-05
(PID.TID 0000.0001) %MON vort_p_sd                    =   9.3610254594424E-05
(PID.TID 0000.0001) %MON surfExpan_theta_mean         =   2.6745685094850E-05
(PID.TID 0000.0001) %MON surfExpan_salt_mean          =   2.8851063118678E-05
(PID.TID 0000.0001) // =======================================================
(PID.TID 0000.0001) // End MONITOR dynamic field statistics
(PID.TID 0000.0001) // =======================================================
(PID.TID 0000.0001) // =======================================================
(PID.TID 0000.0001) // Begin MONITOR SEAICE statistics
(PID.TID 0000.0001) // =======================================================
(PID.TID 0000.0001) %MON seaice_tsnumber              =                174802
(PID.TID 0000.0001) %MON seaice_time_sec              =   7.8660900000000E+07
(PID.TID 0000.0001) %MON seaice_uice_max              =   1.4791520959238E+00
(PID.TID 0000.0001) %MON seaice_uice_min              =  -1.2105386156334E+00
(PID.TID 0000.0001) %MON seaice_uice_mean             =   3.7178882433699E-03
(PID.TID 0000.0001) %MON seaice_uice_sd               =   1.5495098574826E-01
(PID.TID 0000.0001) %MON seaice_uice_del2             =   3.4536705139974E-04
(PID.TID 0000.0001) %MON seaice_vice_max              =   9.2303271024339E-01
(PID.TID 0000.0001) %MON seaice_vice_min              =  -1.4905987523073E+00
(PID.TID 0000.0001) %MON seaice_vice_mean             =  -2.3697354746989E-02
(PID.TID 0000.0001) %MON seaice_vice_sd               =   1.6862104523261E-01
(PID.TID 0000.0001) %MON seaice_vice_del2             =   3.2365888955825E-04
(PID.TID 0000.0001) %MON seaice_area_max              =   1.0034552557486E+00
(PID.TID 0000.0001) %MON seaice_area_min              =   0.0000000000000E+00
(PID.TID 0000.0001) %MON seaice_area_mean             =   5.7457366975835E-02
(PID.TID 0000.0001) %MON seaice_area_sd               =   2.2106271644745E-01
(PID.TID 0000.0001) %MON seaice_area_del2             =   2.9101627600115E-04
(PID.TID 0000.0001) %MON seaice_heff_max              =   9.9482374043092E+00
(PID.TID 0000.0001) %MON seaice_heff_min              =   0.0000000000000E+00
(PID.TID 0000.0001) %MON seaice_heff_mean             =   1.4965526465732E-01
(PID.TID 0000.0001) %MON seaice_heff_sd               =   7.2038344774912E-01
(PID.TID 0000.0001) %MON seaice_heff_del2             =   1.3806001834591E-03
(PID.TID 0000.0001) %MON seaice_hsnow_max             =   3.2859309382515E+00
(PID.TID 0000.0001) %MON seaice_hsnow_min             =   0.0000000000000E+00
(PID.TID 0000.0001) %MON seaice_hsnow_mean            =   1.2650944438146E-02
(PID.TID 0000.0001) %MON seaice_hsnow_sd              =   6.8297050341784E-02
(PID.TID 0000.0001) %MON seaice_hsnow_del2            =   3.7914770216606E-04
(PID.TID 0000.0001) // =======================================================
(PID.TID 0000.0001) // End MONITOR SEAICE statistics
(PID.TID 0000.0001) // =======================================================
(PID.TID 0000.0001) // =======================================================
(PID.TID 0000.0001) // Begin MONITOR dynamic field statistics
(PID.TID 0000.0001) // =======================================================
(PID.TID 0000.0001) %MON time_tsnumber                =                174803
(PID.TID 0000.0001) %MON time_secondsf                =   7.8661350000000E+07
(PID.TID 0000.0001) %MON dynstat_eta_max              =   2.6436565124610E+00
(PID.TID 0000.0001) %MON dynstat_eta_min              =  -1.0944646419416E+01
(PID.TID 0000.0001) %MON dynstat_eta_mean             =   8.3521081035973E-02
(PID.TID 0000.0001) %MON dynstat_eta_sd               =   8.7546210597858E-01
(PID.TID 0000.0001) %MON dynstat_eta_del2             =   2.0097753172489E-03
(PID.TID 0000.0001) %MON dynstat_uvel_max             =   2.3410250945008E+00
(PID.TID 0000.0001) %MON dynstat_uvel_min             =  -2.7155813698425E+00
(PID.TID 0000.0001) %MON dynstat_uvel_mean            =   3.8371078208440E-03
(PID.TID 0000.0001) %MON dynstat_uvel_sd              =   3.0330967869034E-02
(PID.TID 0000.0001) %MON dynstat_uvel_del2            =   3.6609879746551E-05
(PID.TID 0000.0001) %MON dynstat_vvel_max             =   1.9544515253089E+00
(PID.TID 0000.0001) %MON dynstat_vvel_min             =  -2.2596796141322E+00
(PID.TID 0000.0001) %MON dynstat_vvel_mean            =   2.7576785534761E-03
(PID.TID 0000.0001) %MON dynstat_vvel_sd              =   3.1347355340858E-02
(PID.TID 0000.0001) %MON dynstat_vvel_del2            =   3.4614588197846E-05
(PID.TID 0000.0001) %MON dynstat_wvel_max             =   7.4810621384846E-03
(PID.TID 0000.0001) %MON dynstat_wvel_min             =  -7.7696479392139E-03
(PID.TID 0000.0001) %MON dynstat_wvel_mean            =   7.1746448874271E-07
(PID.TID 0000.0001) %MON dynstat_wvel_sd              =   1.1548912309431E-04
(PID.TID 0000.0001) %MON dynstat_wvel_del2            =   2.7181698785326E-07
(PID.TID 0000.0001) %MON dynstat_theta_max            =   3.2428508185173E+01
(PID.TID 0000.0001) %MON dynstat_theta_min            =  -2.0404700662629E+00
(PID.TID 0000.0001) %MON dynstat_theta_mean           =   3.5920403557328E+00
(PID.TID 0000.0001) %MON dynstat_theta_sd             =   4.4420210815099E+00
(PID.TID 0000.0001) %MON dynstat_theta_del2           =   1.2487110328917E-04
(PID.TID 0000.0001) %MON dynstat_salt_max             =   4.0655991047951E+01
(PID.TID 0000.0001) %MON dynstat_salt_min             =   1.6035924415035E+01
(PID.TID 0000.0001) %MON dynstat_salt_mean            =   3.4724804358309E+01
(PID.TID 0000.0001) %MON dynstat_salt_sd              =   3.7971821428792E-01
(PID.TID 0000.0001) %MON dynstat_salt_del2            =   6.6044570932198E-05
(PID.TID 0000.0001) %MON dynstat_sst_max              =   3.2428508185173E+01
(PID.TID 0000.0001) %MON dynstat_sst_min              =  -2.0404700662629E+00
(PID.TID 0000.0001) %MON dynstat_sst_mean             =   1.8188817896154E+01
(PID.TID 0000.0001) %MON dynstat_sst_sd               =   1.0191072488873E+01
(PID.TID 0000.0001) %MON dynstat_sst_del2             =   1.1008062578741E-03
(PID.TID 0000.0001) %MON dynstat_sss_max              =   3.9464325794868E+01
(PID.TID 0000.0001) %MON dynstat_sss_min              =   1.6035924415035E+01
(PID.TID 0000.0001) %MON dynstat_sss_mean             =   3.4643905397175E+01
(PID.TID 0000.0001) %MON dynstat_sss_sd               =   1.2984466483916E+00
(PID.TID 0000.0001) %MON dynstat_sss_del2             =   1.4735730012570E-03
(PID.TID 0000.0001) %MON forcing_qnet_max             =   2.7683339843750E+03
(PID.TID 0000.0001) %MON forcing_qnet_min             =  -1.5366678623316E+03
(PID.TID 0000.0001) %MON forcing_qnet_mean            =  -8.0241159009949E+00
(PID.TID 0000.0001) %MON forcing_qnet_sd              =   1.9618546321918E+02
(PID.TID 0000.0001) %MON forcing_qnet_del2            =   4.7515338899909E-01
(PID.TID 0000.0001) %MON forcing_qsw_max              =   0.0000000000000E+00
(PID.TID 0000.0001) %MON forcing_qsw_min              =  -1.1023967136367E+02
(PID.TID 0000.0001) %MON forcing_qsw_mean             =  -1.9717288878051E+01
(PID.TID 0000.0001) %MON forcing_qsw_sd               =   2.9344185522864E+01
(PID.TID 0000.0001) %MON forcing_qsw_del2             =   2.5121189927758E-02
(PID.TID 0000.0001) %MON forcing_empmr_max            =   2.1913964301348E-02
(PID.TID 0000.0001) %MON forcing_empmr_min            =  -3.6437895148993E-02
(PID.TID 0000.0001) %MON forcing_empmr_mean           =   2.2139198088517E-06
(PID.TID 0000.0001) %MON forcing_empmr_sd             =   3.0998071445807E-04
(PID.TID 0000.0001) %MON forcing_empmr_del2           =   3.5399313953912E-06
(PID.TID 0000.0001) %MON forcing_fu_max               =   7.1728200016431E-01
(PID.TID 0000.0001) %MON forcing_fu_min               =  -1.1165429312422E+00
(PID.TID 0000.0001) %MON forcing_fu_mean              =   1.1540403664549E-02
(PID.TID 0000.0001) %MON forcing_fu_sd                =   1.2477545380208E-01
(PID.TID 0000.0001) %MON forcing_fu_del2              =   1.6279712364112E-04
(PID.TID 0000.0001) %MON forcing_fv_max               =   9.5003247261047E-01
(PID.TID 0000.0001) %MON forcing_fv_min               =  -1.9163415328058E+00
(PID.TID 0000.0001) %MON forcing_fv_mean              =  -1.2181014832169E-03
(PID.TID 0000.0001) %MON forcing_fv_sd                =   1.0826760157831E-01
(PID.TID 0000.0001) %MON forcing_fv_del2              =   1.5337479435358E-04
(PID.TID 0000.0001) %MON trAdv_CFL_u_max              =   2.8010295638763E-02
(PID.TID 0000.0001) %MON trAdv_CFL_v_max              =   2.0801719643576E-02
(PID.TID 0000.0001) %MON trAdv_CFL_w_max              =   1.0214628885463E-01
(PID.TID 0000.0001) %MON advcfl_uvel_max              =   2.8384972361428E-02
(PID.TID 0000.0001) %MON advcfl_vvel_max              =   2.0469398075099E-02
(PID.TID 0000.0001) %MON advcfl_wvel_max              =   9.6579656579539E-02
(PID.TID 0000.0001) %MON advcfl_W_hf_max              =   1.0214628885463E-01
(PID.TID 0000.0001) %MON pe_b_mean                    =   2.3059788106731E-03
(PID.TID 0000.0001) %MON ke_max                       =   2.6216545481021E+00
(PID.TID 0000.0001) %MON ke_mean                      =   9.2819873118682E-04
(PID.TID 0000.0001) %MON ke_vol                       =   1.3350064351420E+18
(PID.TID 0000.0001) %MON vort_r_min                   =  -9.5212598951527E-05
(PID.TID 0000.0001) %MON vort_r_max                   =   1.0391715846158E-04
(PID.TID 0000.0001) %MON vort_a_mean                  =  -1.9725077590624E-05
(PID.TID 0000.0001) %MON vort_a_sd                    =   7.4539660383916E-05
(PID.TID 0000.0001) %MON vort_p_mean                  =  -2.1669082620786E-05
(PID.TID 0000.0001) %MON vort_p_sd                    =   9.3610335342088E-05
(PID.TID 0000.0001) %MON surfExpan_theta_mean         =   2.6363772071543E-05
(PID.TID 0000.0001) %MON surfExpan_salt_mean          =   2.8109611070186E-05
(PID.TID 0000.0001) // =======================================================
(PID.TID 0000.0001) // End MONITOR dynamic field statistics
(PID.TID 0000.0001) // =======================================================
(PID.TID 0000.0001) // =======================================================
(PID.TID 0000.0001) // Begin MONITOR SEAICE statistics
(PID.TID 0000.0001) // =======================================================
(PID.TID 0000.0001) %MON seaice_tsnumber              =                174803
(PID.TID 0000.0001) %MON seaice_time_sec              =   7.8661350000000E+07
(PID.TID 0000.0001) %MON seaice_uice_max              =   1.4745918912437E+00
(PID.TID 0000.0001) %MON seaice_uice_min              =  -1.2227200489128E+00
(PID.TID 0000.0001) %MON seaice_uice_mean             =   3.7679776997371E-03
(PID.TID 0000.0001) %MON seaice_uice_sd               =   1.5497119299193E-01
(PID.TID 0000.0001) %MON seaice_uice_del2             =   3.4560715155319E-04
(PID.TID 0000.0001) %MON seaice_vice_max              =   9.2319030077176E-01
(PID.TID 0000.0001) %MON seaice_vice_min              =  -1.4913581903710E+00
(PID.TID 0000.0001) %MON seaice_vice_mean             =  -2.3704067408165E-02
(PID.TID 0000.0001) %MON seaice_vice_sd               =   1.6858940333813E-01
(PID.TID 0000.0001) %MON seaice_vice_del2             =   3.2391691411067E-04
(PID.TID 0000.0001) %MON seaice_area_max              =   1.0034574006491E+00
(PID.TID 0000.0001) %MON seaice_area_min              =   0.0000000000000E+00
(PID.TID 0000.0001) %MON seaice_area_mean             =   5.7458873323411E-02
(PID.TID 0000.0001) %MON seaice_area_sd               =   2.2105768742513E-01
(PID.TID 0000.0001) %MON seaice_area_del2             =   2.9090905591752E-04
(PID.TID 0000.0001) %MON seaice_heff_max              =   9.9482240793445E+00
(PID.TID 0000.0001) %MON seaice_heff_min              =   0.0000000000000E+00
(PID.TID 0000.0001) %MON seaice_heff_mean             =   1.4965136942593E-01
(PID.TID 0000.0001) %MON seaice_heff_sd               =   7.2037280242051E-01
(PID.TID 0000.0001) %MON seaice_heff_del2             =   1.3799300245179E-03
(PID.TID 0000.0001) %MON seaice_hsnow_max             =   3.2859265856894E+00
(PID.TID 0000.0001) %MON seaice_hsnow_min             =   0.0000000000000E+00
(PID.TID 0000.0001) %MON seaice_hsnow_mean            =   1.2650181254799E-02
(PID.TID 0000.0001) %MON seaice_hsnow_sd              =   6.8289457306186E-02
(PID.TID 0000.0001) %MON seaice_hsnow_del2            =   3.7886790760754E-04
(PID.TID 0000.0001) // =======================================================
(PID.TID 0000.0001) // End MONITOR SEAICE statistics
(PID.TID 0000.0001) // =======================================================
(PID.TID 0000.0001) // =======================================================
(PID.TID 0000.0001) // Begin MONITOR dynamic field statistics
(PID.TID 0000.0001) // =======================================================
(PID.TID 0000.0001) %MON time_tsnumber                =                174804
(PID.TID 0000.0001) %MON time_secondsf                =   7.8661800000000E+07
(PID.TID 0000.0001) %MON dynstat_eta_max              =   2.7012434042532E+00
(PID.TID 0000.0001) %MON dynstat_eta_min              =  -1.0965487196934E+01
(PID.TID 0000.0001) %MON dynstat_eta_mean             =   8.3852413906775E-02
(PID.TID 0000.0001) %MON dynstat_eta_sd               =   8.7674716291017E-01
(PID.TID 0000.0001) %MON dynstat_eta_del2             =   2.0097969300974E-03
(PID.TID 0000.0001) %MON dynstat_uvel_max             =   2.3379951692707E+00
(PID.TID 0000.0001) %MON dynstat_uvel_min             =  -2.7092297759319E+00
(PID.TID 0000.0001) %MON dynstat_uvel_mean            =   3.8008211893982E-03
(PID.TID 0000.0001) %MON dynstat_uvel_sd              =   3.0390749698792E-02
(PID.TID 0000.0001) %MON dynstat_uvel_del2            =   3.6647882862602E-05
(PID.TID 0000.0001) %MON dynstat_vvel_max             =   1.9437670047486E+00
(PID.TID 0000.0001) %MON dynstat_vvel_min             =  -2.2585586225701E+00
(PID.TID 0000.0001) %MON dynstat_vvel_mean            =   2.7823140936901E-03
(PID.TID 0000.0001) %MON dynstat_vvel_sd              =   3.1398026501500E-02
(PID.TID 0000.0001) %MON dynstat_vvel_del2            =   3.4663490149434E-05
(PID.TID 0000.0001) %MON dynstat_wvel_max             =   7.5031591104490E-03
(PID.TID 0000.0001) %MON dynstat_wvel_min             =  -7.7659440375466E-03
(PID.TID 0000.0001) %MON dynstat_wvel_mean            =   7.0531748081597E-07
(PID.TID 0000.0001) %MON dynstat_wvel_sd              =   1.1599993648984E-04
(PID.TID 0000.0001) %MON dynstat_wvel_del2            =   2.7271945408131E-07
(PID.TID 0000.0001) %MON dynstat_theta_max            =   3.2429647970775E+01
(PID.TID 0000.0001) %MON dynstat_theta_min            =  -2.0406523738573E+00
(PID.TID 0000.0001) %MON dynstat_theta_mean           =   3.5920375751190E+00
(PID.TID 0000.0001) %MON dynstat_theta_sd             =   4.4420178922013E+00
(PID.TID 0000.0001) %MON dynstat_theta_del2           =   1.2490658405283E-04
(PID.TID 0000.0001) %MON dynstat_salt_max             =   4.0655990997874E+01
(PID.TID 0000.0001) %MON dynstat_salt_min             =   1.6034340588238E+01
(PID.TID 0000.0001) %MON dynstat_salt_mean            =   3.4724804045716E+01
(PID.TID 0000.0001) %MON dynstat_salt_sd              =   3.7971964196047E-01
(PID.TID 0000.0001) %MON dynstat_salt_del2            =   6.5995548330635E-05
(PID.TID 0000.0001) %MON dynstat_sst_max              =   3.2429647970775E+01
(PID.TID 0000.0001) %MON dynstat_sst_min              =  -2.0406523738573E+00
(PID.TID 0000.0001) %MON dynstat_sst_mean             =   1.8188647772165E+01
(PID.TID 0000.0001) %MON dynstat_sst_sd               =   1.0191392606331E+01
(PID.TID 0000.0001) %MON dynstat_sst_del2             =   1.1005922385834E-03
(PID.TID 0000.0001) %MON dynstat_sss_max              =   3.9464333936638E+01
(PID.TID 0000.0001) %MON dynstat_sss_min              =   1.6034340588238E+01
(PID.TID 0000.0001) %MON dynstat_sss_mean             =   3.4643860474877E+01
(PID.TID 0000.0001) %MON dynstat_sss_sd               =   1.2985279201014E+00
(PID.TID 0000.0001) %MON dynstat_sss_del2             =   1.4733728428841E-03
(PID.TID 0000.0001) %MON forcing_qnet_max             =   1.7717712402344E+03
(PID.TID 0000.0001) %MON forcing_qnet_min             =  -1.4136054501945E+03
(PID.TID 0000.0001) %MON forcing_qnet_mean            =  -6.8466326558027E+00
(PID.TID 0000.0001) %MON forcing_qnet_sd              =   1.9488572004007E+02
(PID.TID 0000.0001) %MON forcing_qnet_del2            =   4.5155748388219E-01
(PID.TID 0000.0001) %MON forcing_qsw_max              =   0.0000000000000E+00
(PID.TID 0000.0001) %MON forcing_qsw_min              =  -1.1026284318007E+02
(PID.TID 0000.0001) %MON forcing_qsw_mean             =  -1.9563678413397E+01
(PID.TID 0000.0001) %MON forcing_qsw_sd               =   2.9194876799491E+01
(PID.TID 0000.0001) %MON forcing_qsw_del2             =   2.5099529282052E-02
(PID.TID 0000.0001) %MON forcing_empmr_max            =   2.2528134286404E-02
(PID.TID 0000.0001) %MON forcing_empmr_min            =  -3.6098413169384E-02
(PID.TID 0000.0001) %MON forcing_empmr_mean           =   2.0428502850382E-06
(PID.TID 0000.0001) %MON forcing_empmr_sd             =   3.1049570239157E-04
(PID.TID 0000.0001) %MON forcing_empmr_del2           =   3.5502096148984E-06
(PID.TID 0000.0001) %MON forcing_fu_max               =   6.9550260559480E-01
(PID.TID 0000.0001) %MON forcing_fu_min               =  -1.1180931740786E+00
(PID.TID 0000.0001) %MON forcing_fu_mean              =   1.1583997843256E-02
(PID.TID 0000.0001) %MON forcing_fu_sd                =   1.2482959630000E-01
(PID.TID 0000.0001) %MON forcing_fu_del2              =   1.6256930443832E-04
(PID.TID 0000.0001) %MON forcing_fv_max               =   9.5175981521606E-01
(PID.TID 0000.0001) %MON forcing_fv_min               =  -1.9003408971812E+00
(PID.TID 0000.0001) %MON forcing_fv_mean              =  -1.2284621871567E-03
(PID.TID 0000.0001) %MON forcing_fv_sd                =   1.0835505069208E-01
(PID.TID 0000.0001) %MON forcing_fv_del2              =   1.5304186574647E-04
(PID.TID 0000.0001) %MON trAdv_CFL_u_max              =   2.7944781113885E-02
(PID.TID 0000.0001) %MON trAdv_CFL_v_max              =   2.0720294364760E-02
(PID.TID 0000.0001) %MON trAdv_CFL_w_max              =   1.0183893005760E-01
(PID.TID 0000.0001) %MON advcfl_uvel_max              =   2.8318581488518E-02
(PID.TID 0000.0001) %MON advcfl_vvel_max              =   2.0389273620293E-02
(PID.TID 0000.0001) %MON advcfl_wvel_max              =   9.6287297442278E-02
(PID.TID 0000.0001) %MON advcfl_W_hf_max              =   1.0183893005760E-01
(PID.TID 0000.0001) %MON pe_b_mean                    =   2.3173999662340E-03
(PID.TID 0000.0001) %MON ke_max                       =   2.6081567002057E+00
(PID.TID 0000.0001) %MON ke_mean                      =   9.3141433365791E-04
(PID.TID 0000.0001) %MON ke_vol                       =   1.3350064351420E+18
(PID.TID 0000.0001) %MON vort_r_min                   =  -9.5011656270630E-05
(PID.TID 0000.0001) %MON vort_r_max                   =   1.0364147057475E-04
(PID.TID 0000.0001) %MON vort_a_mean                  =  -1.9725077537750E-05
(PID.TID 0000.0001) %MON vort_a_sd                    =   7.4539673934638E-05
(PID.TID 0000.0001) %MON vort_p_mean                  =  -2.1669082562701E-05
(PID.TID 0000.0001) %MON vort_p_sd                    =   9.3610420269404E-05
(PID.TID 0000.0001) %MON surfExpan_theta_mean         =   2.5994299943765E-05
(PID.TID 0000.0001) %MON surfExpan_salt_mean          =   2.7373982663210E-05
(PID.TID 0000.0001) // =======================================================
(PID.TID 0000.0001) // End MONITOR dynamic field statistics
(PID.TID 0000.0001) // =======================================================
(PID.TID 0000.0001) // =======================================================
(PID.TID 0000.0001) // Begin MONITOR SEAICE statistics
(PID.TID 0000.0001) // =======================================================
(PID.TID 0000.0001) %MON seaice_tsnumber              =                174804
(PID.TID 0000.0001) %MON seaice_time_sec              =   7.8661800000000E+07
(PID.TID 0000.0001) %MON seaice_uice_max              =   1.4696468805547E+00
(PID.TID 0000.0001) %MON seaice_uice_min              =  -1.2336463758153E+00
(PID.TID 0000.0001) %MON seaice_uice_mean             =   3.8228541496761E-03
(PID.TID 0000.0001) %MON seaice_uice_sd               =   1.5498117821684E-01
(PID.TID 0000.0001) %MON seaice_uice_del2             =   3.4583511661855E-04
(PID.TID 0000.0001) %MON seaice_vice_max              =   9.2321293860642E-01
(PID.TID 0000.0001) %MON seaice_vice_min              =  -1.4921026629573E+00
(PID.TID 0000.0001) %MON seaice_vice_mean             =  -2.3699755208428E-02
(PID.TID 0000.0001) %MON seaice_vice_sd               =   1.6852575434022E-01
(PID.TID 0000.0001) %MON seaice_vice_del2             =   3.2415817309775E-04
(PID.TID 0000.0001) %MON seaice_area_max              =   1.0034585957290E+00
(PID.TID 0000.0001) %MON seaice_area_min              =   0.0000000000000E+00
(PID.TID 0000.0001) %MON seaice_area_mean             =   5.7460378245487E-02
(PID.TID 0000.0001) %MON seaice_area_sd               =   2.2105270847670E-01
(PID.TID 0000.0001) %MON seaice_area_del2             =   2.9080668946737E-04
(PID.TID 0000.0001) %MON seaice_heff_max              =   9.9482097969480E+00
(PID.TID 0000.0001) %MON seaice_heff_min              =   0.0000000000000E+00
(PID.TID 0000.0001) %MON seaice_heff_mean             =   1.4964747092333E-01
(PID.TID 0000.0001) %MON seaice_heff_sd               =   7.2036212914966E-01
(PID.TID 0000.0001) %MON seaice_heff_del2             =   1.3792697347902E-03
(PID.TID 0000.0001) %MON seaice_hsnow_max             =   3.2859219931198E+00
(PID.TID 0000.0001) %MON seaice_hsnow_min             =   0.0000000000000E+00
(PID.TID 0000.0001) %MON seaice_hsnow_mean            =   1.2649424566228E-02
(PID.TID 0000.0001) %MON seaice_hsnow_sd              =   6.8281835551192E-02
(PID.TID 0000.0001) %MON seaice_hsnow_del2            =   3.7859008063133E-04
(PID.TID 0000.0001) // =======================================================
(PID.TID 0000.0001) // End MONITOR SEAICE statistics
(PID.TID 0000.0001) // =======================================================
(PID.TID 0000.0001) // =======================================================
(PID.TID 0000.0001) // Begin MONITOR dynamic field statistics
(PID.TID 0000.0001) // =======================================================
(PID.TID 0000.0001) %MON time_tsnumber                =                174805
(PID.TID 0000.0001) %MON time_secondsf                =   7.8662250000000E+07
(PID.TID 0000.0001) %MON dynstat_eta_max              =   2.7499615072666E+00
(PID.TID 0000.0001) %MON dynstat_eta_min              =  -1.0981121284275E+01
(PID.TID 0000.0001) %MON dynstat_eta_mean             =   8.4174009123693E-02
(PID.TID 0000.0001) %MON dynstat_eta_sd               =   8.7803680934430E-01
(PID.TID 0000.0001) %MON dynstat_eta_del2             =   2.0098281193374E-03
(PID.TID 0000.0001) %MON dynstat_uvel_max             =   2.3346337306837E+00
(PID.TID 0000.0001) %MON dynstat_uvel_min             =  -2.7028620734848E+00
(PID.TID 0000.0001) %MON dynstat_uvel_mean            =   3.7654871372115E-03
(PID.TID 0000.0001) %MON dynstat_uvel_sd              =   3.0453821000288E-02
(PID.TID 0000.0001) %MON dynstat_uvel_del2            =   3.6686008151774E-05
(PID.TID 0000.0001) %MON dynstat_vvel_max             =   1.9330362675567E+00
(PID.TID 0000.0001) %MON dynstat_vvel_min             =  -2.2571632888970E+00
(PID.TID 0000.0001) %MON dynstat_vvel_mean            =   2.8080868496215E-03
(PID.TID 0000.0001) %MON dynstat_vvel_sd              =   3.1447610082309E-02
(PID.TID 0000.0001) %MON dynstat_vvel_del2            =   3.4712491896355E-05
(PID.TID 0000.0001) %MON dynstat_wvel_max             =   7.5254546346649E-03
(PID.TID 0000.0001) %MON dynstat_wvel_min             =  -7.7620014485720E-03
(PID.TID 0000.0001) %MON dynstat_wvel_mean            =   6.9328018685401E-07
(PID.TID 0000.0001) %MON dynstat_wvel_sd              =   1.1651982971273E-04
(PID.TID 0000.0001) %MON dynstat_wvel_del2            =   2.7363082009120E-07
(PID.TID 0000.0001) %MON dynstat_theta_max            =   3.2430822010165E+01
(PID.TID 0000.0001) %MON dynstat_theta_min            =  -2.0408323247016E+00
(PID.TID 0000.0001) %MON dynstat_theta_mean           =   3.5920347549109E+00
(PID.TID 0000.0001) %MON dynstat_theta_sd             =   4.4420146072769E+00
(PID.TID 0000.0001) %MON dynstat_theta_del2           =   1.2494367230013E-04
(PID.TID 0000.0001) %MON dynstat_salt_max             =   4.0655990947824E+01
(PID.TID 0000.0001) %MON dynstat_salt_min             =   1.6032720117004E+01
(PID.TID 0000.0001) %MON dynstat_salt_mean            =   3.4724803732870E+01
(PID.TID 0000.0001) %MON dynstat_salt_sd              =   3.7972106052850E-01
(PID.TID 0000.0001) %MON dynstat_salt_del2            =   6.5950151931952E-05
(PID.TID 0000.0001) %MON dynstat_sst_max              =   3.2430822010165E+01
(PID.TID 0000.0001) %MON dynstat_sst_min              =  -2.0408323247016E+00
(PID.TID 0000.0001) %MON dynstat_sst_mean             =   1.8188408126582E+01
(PID.TID 0000.0001) %MON dynstat_sst_sd               =   1.0191668796987E+01
(PID.TID 0000.0001) %MON dynstat_sst_del2             =   1.1005536418830E-03
(PID.TID 0000.0001) %MON dynstat_sss_max              =   3.9464342879190E+01
(PID.TID 0000.0001) %MON dynstat_sss_min              =   1.6032720117004E+01
(PID.TID 0000.0001) %MON dynstat_sss_mean             =   3.4643814631668E+01
(PID.TID 0000.0001) %MON dynstat_sss_sd               =   1.2986082434021E+00
(PID.TID 0000.0001) %MON dynstat_sss_del2             =   1.4733722893848E-03
(PID.TID 0000.0001) %MON forcing_qnet_max             =   1.8236813964844E+03
(PID.TID 0000.0001) %MON forcing_qnet_min             =  -1.3018169379586E+03
(PID.TID 0000.0001) %MON forcing_qnet_mean            =  -4.0169517014268E+00
(PID.TID 0000.0001) %MON forcing_qnet_sd              =   1.9343859818338E+02
(PID.TID 0000.0001) %MON forcing_qnet_del2            =   4.4785164755039E-01
(PID.TID 0000.0001) %MON forcing_qsw_max              =   0.0000000000000E+00
(PID.TID 0000.0001) %MON forcing_qsw_min              =  -1.1034201209593E+02
(PID.TID 0000.0001) %MON forcing_qsw_mean             =  -1.9190676324937E+01
(PID.TID 0000.0001) %MON forcing_qsw_sd               =   2.8878873727668E+01
(PID.TID 0000.0001) %MON forcing_qsw_del2             =   2.5380146329759E-02
(PID.TID 0000.0001) %MON forcing_empmr_max            =   2.3142041638494E-02
(PID.TID 0000.0001) %MON forcing_empmr_min            =  -3.5835083574057E-02
(PID.TID 0000.0001) %MON forcing_empmr_mean           =   1.9302167280817E-06
(PID.TID 0000.0001) %MON forcing_empmr_sd             =   3.1205913623262E-04
(PID.TID 0000.0001) %MON forcing_empmr_del2           =   3.5639449501195E-06
(PID.TID 0000.0001) %MON forcing_fu_max               =   6.9190862774849E-01
(PID.TID 0000.0001) %MON forcing_fu_min               =  -1.1208639873766E+00
(PID.TID 0000.0001) %MON forcing_fu_mean              =   1.1627725832774E-02
(PID.TID 0000.0001) %MON forcing_fu_sd                =   1.2485465567669E-01
(PID.TID 0000.0001) %MON forcing_fu_del2              =   1.6228359443397E-04
(PID.TID 0000.0001) %MON forcing_fv_max               =   9.5641618967056E-01
(PID.TID 0000.0001) %MON forcing_fv_min               =  -1.8823857001802E+00
(PID.TID 0000.0001) %MON forcing_fv_mean              =  -1.2437052061327E-03
(PID.TID 0000.0001) %MON forcing_fv_sd                =   1.0841956087657E-01
(PID.TID 0000.0001) %MON forcing_fv_del2              =   1.5254902359105E-04
(PID.TID 0000.0001) %MON trAdv_CFL_u_max              =   2.7879100434946E-02
(PID.TID 0000.0001) %MON trAdv_CFL_v_max              =   2.0638412132665E-02
(PID.TID 0000.0001) %MON trAdv_CFL_w_max              =   1.0151822432506E-01
(PID.TID 0000.0001) %MON advcfl_uvel_max              =   2.8252022239005E-02
(PID.TID 0000.0001) %MON advcfl_vvel_max              =   2.0308699512346E-02
(PID.TID 0000.0001) %MON advcfl_wvel_max              =   9.5981665568145E-02
(PID.TID 0000.0001) %MON advcfl_W_hf_max              =   1.0151822432506E-01
(PID.TID 0000.0001) %MON pe_b_mean                    =   2.3286074931298E-03
(PID.TID 0000.0001) %MON ke_max                       =   2.5946224122955E+00
(PID.TID 0000.0001) %MON ke_mean                      =   9.3470785075704E-04
(PID.TID 0000.0001) %MON ke_vol                       =   1.3350064351420E+18
(PID.TID 0000.0001) %MON vort_r_min                   =  -9.4810983792837E-05
(PID.TID 0000.0001) %MON vort_r_max                   =   1.0336408860921E-04
(PID.TID 0000.0001) %MON vort_a_mean                  =  -1.9725077483090E-05
(PID.TID 0000.0001) %MON vort_a_sd                    =   7.4539688281576E-05
(PID.TID 0000.0001) %MON vort_p_mean                  =  -2.1669082502654E-05
(PID.TID 0000.0001) %MON vort_p_sd                    =   9.3610509489337E-05
(PID.TID 0000.0001) %MON surfExpan_theta_mean         =   2.5637259584651E-05
(PID.TID 0000.0001) %MON surfExpan_salt_mean          =   2.6634070469237E-05
(PID.TID 0000.0001) // =======================================================
(PID.TID 0000.0001) // End MONITOR dynamic field statistics
(PID.TID 0000.0001) // =======================================================
(PID.TID 0000.0001) // =======================================================
(PID.TID 0000.0001) // Begin MONITOR SEAICE statistics
(PID.TID 0000.0001) // =======================================================
(PID.TID 0000.0001) %MON seaice_tsnumber              =                174805
(PID.TID 0000.0001) %MON seaice_time_sec              =   7.8662250000000E+07
(PID.TID 0000.0001) %MON seaice_uice_max              =   1.4643236127770E+00
(PID.TID 0000.0001) %MON seaice_uice_min              =  -1.2433240350712E+00
(PID.TID 0000.0001) %MON seaice_uice_mean             =   3.8724452943065E-03
(PID.TID 0000.0001) %MON seaice_uice_sd               =   1.5499161773107E-01
(PID.TID 0000.0001) %MON seaice_uice_del2             =   3.4604766550663E-04
(PID.TID 0000.0001) %MON seaice_vice_max              =   9.2311544252187E-01
(PID.TID 0000.0001) %MON seaice_vice_min              =  -1.4928342920085E+00
(PID.TID 0000.0001) %MON seaice_vice_mean             =  -2.3698125553336E-02
(PID.TID 0000.0001) %MON seaice_vice_sd               =   1.6847503448475E-01
(PID.TID 0000.0001) %MON seaice_vice_del2             =   3.2437701968974E-04
(PID.TID 0000.0001) %MON seaice_area_max              =   1.0034586144898E+00
(PID.TID 0000.0001) %MON seaice_area_min              =   0.0000000000000E+00
(PID.TID 0000.0001) %MON seaice_area_mean             =   5.7461877492748E-02
(PID.TID 0000.0001) %MON seaice_area_sd               =   2.2104776675755E-01
(PID.TID 0000.0001) %MON seaice_area_del2             =   2.9070947447354E-04
(PID.TID 0000.0001) %MON seaice_heff_max              =   9.9481955177853E+00
(PID.TID 0000.0001) %MON seaice_heff_min              =   0.0000000000000E+00
(PID.TID 0000.0001) %MON seaice_heff_mean             =   1.4964355717161E-01
(PID.TID 0000.0001) %MON seaice_heff_sd               =   7.2035137216871E-01
(PID.TID 0000.0001) %MON seaice_heff_del2             =   1.3786193056481E-03
(PID.TID 0000.0001) %MON seaice_hsnow_max             =   3.2859169223782E+00
(PID.TID 0000.0001) %MON seaice_hsnow_min             =   0.0000000000000E+00
(PID.TID 0000.0001) %MON seaice_hsnow_mean            =   1.2648667663257E-02
(PID.TID 0000.0001) %MON seaice_hsnow_sd              =   6.8274182663367E-02
(PID.TID 0000.0001) %MON seaice_hsnow_del2            =   3.7831426293648E-04
(PID.TID 0000.0001) // =======================================================
(PID.TID 0000.0001) // End MONITOR SEAICE statistics
(PID.TID 0000.0001) // =======================================================
(PID.TID 0000.0001) // =======================================================
(PID.TID 0000.0001) // Begin MONITOR dynamic field statistics
(PID.TID 0000.0001) // =======================================================
(PID.TID 0000.0001) %MON time_tsnumber                =                174806
(PID.TID 0000.0001) %MON time_secondsf                =   7.8662700000000E+07
(PID.TID 0000.0001) %MON dynstat_eta_max              =   2.7894457424751E+00
(PID.TID 0000.0001) %MON dynstat_eta_min              =  -1.0991128307474E+01
(PID.TID 0000.0001) %MON dynstat_eta_mean             =   8.4485731824628E-02
(PID.TID 0000.0001) %MON dynstat_eta_sd               =   8.7932994413515E-01
(PID.TID 0000.0001) %MON dynstat_eta_del2             =   2.0098692626623E-03
(PID.TID 0000.0001) %MON dynstat_uvel_max             =   2.3309300162923E+00
(PID.TID 0000.0001) %MON dynstat_uvel_min             =  -2.6964958580650E+00
(PID.TID 0000.0001) %MON dynstat_uvel_mean            =   3.7314503769338E-03
(PID.TID 0000.0001) %MON dynstat_uvel_sd              =   3.0520619564812E-02
(PID.TID 0000.0001) %MON dynstat_uvel_del2            =   3.6724557209652E-05
(PID.TID 0000.0001) %MON dynstat_vvel_max             =   1.9222611049189E+00
(PID.TID 0000.0001) %MON dynstat_vvel_min             =  -2.2554978773012E+00
(PID.TID 0000.0001) %MON dynstat_vvel_mean            =   2.8349980766006E-03
(PID.TID 0000.0001) %MON dynstat_vvel_sd              =   3.1497504104251E-02
(PID.TID 0000.0001) %MON dynstat_vvel_del2            =   3.4761644818668E-05
(PID.TID 0000.0001) %MON dynstat_wvel_max             =   7.5479329266426E-03
(PID.TID 0000.0001) %MON dynstat_wvel_min             =  -7.7579074499673E-03
(PID.TID 0000.0001) %MON dynstat_wvel_mean            =   6.8118573025554E-07
(PID.TID 0000.0001) %MON dynstat_wvel_sd              =   1.1704868907919E-04
(PID.TID 0000.0001) %MON dynstat_wvel_del2            =   2.7455078674407E-07
(PID.TID 0000.0001) %MON dynstat_theta_max            =   3.2432020719250E+01
(PID.TID 0000.0001) %MON dynstat_theta_min            =  -2.0410097306347E+00
(PID.TID 0000.0001) %MON dynstat_theta_mean           =   3.5920319655109E+00
(PID.TID 0000.0001) %MON dynstat_theta_sd             =   4.4420115150521E+00
(PID.TID 0000.0001) %MON dynstat_theta_del2           =   1.2497925607856E-04
(PID.TID 0000.0001) %MON dynstat_salt_max             =   4.0655990897874E+01
(PID.TID 0000.0001) %MON dynstat_salt_min             =   1.6031066618167E+01
(PID.TID 0000.0001) %MON dynstat_salt_mean            =   3.4724803420642E+01
(PID.TID 0000.0001) %MON dynstat_salt_sd              =   3.7972246442782E-01
(PID.TID 0000.0001) %MON dynstat_salt_del2            =   6.5902042291918E-05
(PID.TID 0000.0001) %MON dynstat_sst_max              =   3.2432020719250E+01
(PID.TID 0000.0001) %MON dynstat_sst_min              =  -2.0410097306347E+00
(PID.TID 0000.0001) %MON dynstat_sst_mean             =   1.8188208957372E+01
(PID.TID 0000.0001) %MON dynstat_sst_sd               =   1.0191969526581E+01
(PID.TID 0000.0001) %MON dynstat_sst_del2             =   1.1003722228817E-03
(PID.TID 0000.0001) %MON dynstat_sss_max              =   3.9464352533702E+01
(PID.TID 0000.0001) %MON dynstat_sss_min              =   1.6031066618167E+01
(PID.TID 0000.0001) %MON dynstat_sss_mean             =   3.4643769538291E+01
(PID.TID 0000.0001) %MON dynstat_sss_sd               =   1.2986891919243E+00
(PID.TID 0000.0001) %MON dynstat_sss_del2             =   1.4731902531861E-03
(PID.TID 0000.0001) %MON forcing_qnet_max             =   1.8750186767578E+03
(PID.TID 0000.0001) %MON forcing_qnet_min             =  -1.1991737110526E+03
(PID.TID 0000.0001) %MON forcing_qnet_mean            =  -3.6397615471439E+00
(PID.TID 0000.0001) %MON forcing_qnet_sd              =   1.9304120745157E+02
(PID.TID 0000.0001) %MON forcing_qnet_del2            =   4.4965307169780E-01
(PID.TID 0000.0001) %MON forcing_qsw_max              =   0.0000000000000E+00
(PID.TID 0000.0001) %MON forcing_qsw_min              =  -1.1019309800621E+02
(PID.TID 0000.0001) %MON forcing_qsw_mean             =  -1.9123636671629E+01
(PID.TID 0000.0001) %MON forcing_qsw_sd               =   2.8824193660123E+01
(PID.TID 0000.0001) %MON forcing_qsw_del2             =   2.5374796928085E-02
(PID.TID 0000.0001) %MON forcing_empmr_max            =   2.3732669651508E-02
(PID.TID 0000.0001) %MON forcing_empmr_min            =  -3.6827817559242E-02
(PID.TID 0000.0001) %MON forcing_empmr_mean           =   1.9184441263981E-06
(PID.TID 0000.0001) %MON forcing_empmr_sd             =   3.1431502512679E-04
(PID.TID 0000.0001) %MON forcing_empmr_del2           =   3.5928054250919E-06
(PID.TID 0000.0001) %MON forcing_fu_max               =   6.9218716025352E-01
(PID.TID 0000.0001) %MON forcing_fu_min               =  -1.1233898026101E+00
(PID.TID 0000.0001) %MON forcing_fu_mean              =   1.1669959386801E-02
(PID.TID 0000.0001) %MON forcing_fu_sd                =   1.2490276607358E-01
(PID.TID 0000.0001) %MON forcing_fu_del2              =   1.6209903778813E-04
(PID.TID 0000.0001) %MON forcing_fv_max               =   9.5727962255478E-01
(PID.TID 0000.0001) %MON forcing_fv_min               =  -1.8627041668407E+00
(PID.TID 0000.0001) %MON forcing_fv_mean              =  -1.2597907434764E-03
(PID.TID 0000.0001) %MON forcing_fv_sd                =   1.0847984286354E-01
(PID.TID 0000.0001) %MON forcing_fv_del2              =   1.5221172211994E-04
(PID.TID 0000.0001) %MON trAdv_CFL_u_max              =   2.7813435094188E-02
(PID.TID 0000.0001) %MON trAdv_CFL_v_max              =   2.0556149288947E-02
(PID.TID 0000.0001) %MON trAdv_CFL_w_max              =   1.0117990650999E-01
(PID.TID 0000.0001) %MON advcfl_uvel_max              =   2.8185478532842E-02
(PID.TID 0000.0001) %MON advcfl_vvel_max              =   2.0227750873306E-02
(PID.TID 0000.0001) %MON advcfl_wvel_max              =   9.5658449903483E-02
(PID.TID 0000.0001) %MON advcfl_W_hf_max              =   1.0117990650999E-01
(PID.TID 0000.0001) %MON pe_b_mean                    =   2.3395931172386E-03
(PID.TID 0000.0001) %MON ke_max                       =   2.5810928758572E+00
(PID.TID 0000.0001) %MON ke_mean                      =   9.3813631328548E-04
(PID.TID 0000.0001) %MON ke_vol                       =   1.3350064351420E+18
(PID.TID 0000.0001) %MON vort_r_min                   =  -9.4611209016859E-05
(PID.TID 0000.0001) %MON vort_r_max                   =   1.0308586598506E-04
(PID.TID 0000.0001) %MON vort_a_mean                  =  -1.9725077428218E-05
(PID.TID 0000.0001) %MON vort_a_sd                    =   7.4539703446411E-05
(PID.TID 0000.0001) %MON vort_p_mean                  =  -2.1669082442374E-05
(PID.TID 0000.0001) %MON vort_p_sd                    =   9.3610603013199E-05
(PID.TID 0000.0001) %MON surfExpan_theta_mean         =   2.5295915063452E-05
(PID.TID 0000.0001) %MON surfExpan_salt_mean          =   2.5885516140492E-05
(PID.TID 0000.0001) // =======================================================
(PID.TID 0000.0001) // End MONITOR dynamic field statistics
(PID.TID 0000.0001) // =======================================================
(PID.TID 0000.0001) // =======================================================
(PID.TID 0000.0001) // Begin MONITOR SEAICE statistics
(PID.TID 0000.0001) // =======================================================
(PID.TID 0000.0001) %MON seaice_tsnumber              =                174806
(PID.TID 0000.0001) %MON seaice_time_sec              =   7.8662700000000E+07
(PID.TID 0000.0001) %MON seaice_uice_max              =   1.4586271368759E+00
(PID.TID 0000.0001) %MON seaice_uice_min              =  -1.2517652167439E+00
(PID.TID 0000.0001) %MON seaice_uice_mean             =   3.9228481034181E-03
(PID.TID 0000.0001) %MON seaice_uice_sd               =   1.5498557072375E-01
(PID.TID 0000.0001) %MON seaice_uice_del2             =   3.4616503654791E-04
(PID.TID 0000.0001) %MON seaice_vice_max              =   9.2291338291236E-01
(PID.TID 0000.0001) %MON seaice_vice_min              =  -1.4935590244481E+00
(PID.TID 0000.0001) %MON seaice_vice_mean             =  -2.3648462559672E-02
(PID.TID 0000.0001) %MON seaice_vice_sd               =   1.6833899568225E-01
(PID.TID 0000.0001) %MON seaice_vice_del2             =   3.2452791722440E-04
(PID.TID 0000.0001) %MON seaice_area_max              =   1.0034570001984E+00
(PID.TID 0000.0001) %MON seaice_area_min              =   0.0000000000000E+00
(PID.TID 0000.0001) %MON seaice_area_mean             =   5.7463373894195E-02
(PID.TID 0000.0001) %MON seaice_area_sd               =   2.2104290166825E-01
(PID.TID 0000.0001) %MON seaice_area_del2             =   2.9061742425941E-04
(PID.TID 0000.0001) %MON seaice_heff_max              =   9.9481812355822E+00
(PID.TID 0000.0001) %MON seaice_heff_min              =   0.0000000000000E+00
(PID.TID 0000.0001) %MON seaice_heff_mean             =   1.4963963153724E-01
(PID.TID 0000.0001) %MON seaice_heff_sd               =   7.2034054479209E-01
(PID.TID 0000.0001) %MON seaice_heff_del2             =   1.3779765450254E-03
(PID.TID 0000.0001) %MON seaice_hsnow_max             =   3.2859123280389E+00
(PID.TID 0000.0001) %MON seaice_hsnow_min             =   0.0000000000000E+00
(PID.TID 0000.0001) %MON seaice_hsnow_mean            =   1.2647922261743E-02
(PID.TID 0000.0001) %MON seaice_hsnow_sd              =   6.8266547829053E-02
(PID.TID 0000.0001) %MON seaice_hsnow_del2            =   3.7803965277776E-04
(PID.TID 0000.0001) // =======================================================
(PID.TID 0000.0001) // End MONITOR SEAICE statistics
(PID.TID 0000.0001) // =======================================================
(PID.TID 0000.0001) // =======================================================
(PID.TID 0000.0001) // Begin MONITOR dynamic field statistics
(PID.TID 0000.0001) // =======================================================
(PID.TID 0000.0001) %MON time_tsnumber                =                174807
(PID.TID 0000.0001) %MON time_secondsf                =   7.8663150000000E+07
(PID.TID 0000.0001) %MON dynstat_eta_max              =   2.8193621226475E+00
(PID.TID 0000.0001) %MON dynstat_eta_min              =  -1.0995165829237E+01
(PID.TID 0000.0001) %MON dynstat_eta_mean             =   8.4787549695141E-02
(PID.TID 0000.0001) %MON dynstat_eta_sd               =   8.8062541733178E-01
(PID.TID 0000.0001) %MON dynstat_eta_del2             =   2.0099211054776E-03
(PID.TID 0000.0001) %MON dynstat_uvel_max             =   2.3268753515412E+00
(PID.TID 0000.0001) %MON dynstat_uvel_min             =  -2.6901431222966E+00
(PID.TID 0000.0001) %MON dynstat_uvel_mean            =   3.6990462318461E-03
(PID.TID 0000.0001) %MON dynstat_uvel_sd              =   3.0590950350610E-02
(PID.TID 0000.0001) %MON dynstat_uvel_del2            =   3.6763350030223E-05
(PID.TID 0000.0001) %MON dynstat_vvel_max             =   1.9114386290200E+00
(PID.TID 0000.0001) %MON dynstat_vvel_min             =  -2.2535651747006E+00
(PID.TID 0000.0001) %MON dynstat_vvel_mean            =   2.8630432739245E-03
(PID.TID 0000.0001) %MON dynstat_vvel_sd              =   3.1546627981174E-02
(PID.TID 0000.0001) %MON dynstat_vvel_del2            =   3.4811130903604E-05
(PID.TID 0000.0001) %MON dynstat_wvel_max             =   7.5705672688943E-03
(PID.TID 0000.0001) %MON dynstat_wvel_min             =  -7.7537245364025E-03
(PID.TID 0000.0001) %MON dynstat_wvel_mean            =   6.6900359184360E-07
(PID.TID 0000.0001) %MON dynstat_wvel_sd              =   1.1758595518569E-04
(PID.TID 0000.0001) %MON dynstat_wvel_del2            =   2.7547893897146E-07
(PID.TID 0000.0001) %MON dynstat_theta_max            =   3.2433231941225E+01
(PID.TID 0000.0001) %MON dynstat_theta_min            =  -2.0411845052600E+00
(PID.TID 0000.0001) %MON dynstat_theta_mean           =   3.5920291634881E+00
(PID.TID 0000.0001) %MON dynstat_theta_sd             =   4.4420083949435E+00
(PID.TID 0000.0001) %MON dynstat_theta_del2           =   1.2501740158012E-04
(PID.TID 0000.0001) %MON dynstat_salt_max             =   4.0655990848088E+01
(PID.TID 0000.0001) %MON dynstat_salt_min             =   1.6029410398691E+01
(PID.TID 0000.0001) %MON dynstat_salt_mean            =   3.4724803107735E+01
(PID.TID 0000.0001) %MON dynstat_salt_sd              =   3.7972384450874E-01
(PID.TID 0000.0001) %MON dynstat_salt_del2            =   6.5857023107803E-05
(PID.TID 0000.0001) %MON dynstat_sst_max              =   3.2433231941225E+01
(PID.TID 0000.0001) %MON dynstat_sst_min              =  -2.0411845052600E+00
(PID.TID 0000.0001) %MON dynstat_sst_mean             =   1.8187965111839E+01
(PID.TID 0000.0001) %MON dynstat_sst_sd               =   1.0192238014512E+01
(PID.TID 0000.0001) %MON dynstat_sst_del2             =   1.1004460380753E-03
(PID.TID 0000.0001) %MON dynstat_sss_max              =   3.9464362980949E+01
(PID.TID 0000.0001) %MON dynstat_sss_min              =   1.6029410398691E+01
(PID.TID 0000.0001) %MON dynstat_sss_mean             =   3.4643723804173E+01
(PID.TID 0000.0001) %MON dynstat_sss_sd               =   1.2987685704583E+00
(PID.TID 0000.0001) %MON dynstat_sss_del2             =   1.4731870617034E-03
(PID.TID 0000.0001) %MON forcing_qnet_max             =   1.9284958496094E+03
(PID.TID 0000.0001) %MON forcing_qnet_min             =  -1.5902718505859E+03
(PID.TID 0000.0001) %MON forcing_qnet_mean            =  -1.8324174230387E+00
(PID.TID 0000.0001) %MON forcing_qnet_sd              =   1.9241592292946E+02
(PID.TID 0000.0001) %MON forcing_qnet_del2            =   4.4885188775218E-01
(PID.TID 0000.0001) %MON forcing_qsw_max              =   0.0000000000000E+00
(PID.TID 0000.0001) %MON forcing_qsw_min              =  -1.0992607482389E+02
(PID.TID 0000.0001) %MON forcing_qsw_mean             =  -1.9044021164376E+01
(PID.TID 0000.0001) %MON forcing_qsw_sd               =   2.8765434996105E+01
(PID.TID 0000.0001) %MON forcing_qsw_del2             =   2.5353599886616E-02
(PID.TID 0000.0001) %MON forcing_empmr_max            =   2.4319591000676E-02
(PID.TID 0000.0001) %MON forcing_empmr_min            =  -3.6646135151386E-02
(PID.TID 0000.0001) %MON forcing_empmr_mean           =   1.6906904514906E-06
(PID.TID 0000.0001) %MON forcing_empmr_sd             =   3.1474322973248E-04
(PID.TID 0000.0001) %MON forcing_empmr_del2           =   3.5996366085601E-06
(PID.TID 0000.0001) %MON forcing_fu_max               =   6.9242829084396E-01
(PID.TID 0000.0001) %MON forcing_fu_min               =  -1.1268782278153E+00
(PID.TID 0000.0001) %MON forcing_fu_mean              =   1.1714077907761E-02
(PID.TID 0000.0001) %MON forcing_fu_sd                =   1.2492425813752E-01
(PID.TID 0000.0001) %MON forcing_fu_del2              =   1.6181551961010E-04
(PID.TID 0000.0001) %MON forcing_fv_max               =   9.5765480399132E-01
(PID.TID 0000.0001) %MON forcing_fv_min               =  -1.8409678898577E+00
(PID.TID 0000.0001) %MON forcing_fv_mean              =  -1.2777936853554E-03
(PID.TID 0000.0001) %MON forcing_fv_sd                =   1.0851717559768E-01
(PID.TID 0000.0001) %MON forcing_fv_del2              =   1.5179793149995E-04
(PID.TID 0000.0001) %MON trAdv_CFL_u_max              =   2.7747908791436E-02
(PID.TID 0000.0001) %MON trAdv_CFL_v_max              =   2.0473599043193E-02
(PID.TID 0000.0001) %MON trAdv_CFL_w_max              =   1.0082215244975E-01
(PID.TID 0000.0001) %MON advcfl_uvel_max              =   2.8119075724512E-02
(PID.TID 0000.0001) %MON advcfl_vvel_max              =   2.0146519423672E-02
(PID.TID 0000.0001) %MON advcfl_wvel_max              =   9.5315910054682E-02
(PID.TID 0000.0001) %MON advcfl_W_hf_max              =   1.0082215244975E-01
(PID.TID 0000.0001) %MON pe_b_mean                    =   2.3503523013361E-03
(PID.TID 0000.0001) %MON ke_max                       =   2.5675998947881E+00
(PID.TID 0000.0001) %MON ke_mean                      =   9.4166299679134E-04
(PID.TID 0000.0001) %MON ke_vol                       =   1.3350064351420E+18
(PID.TID 0000.0001) %MON vort_r_min                   =  -9.4412842155125E-05
(PID.TID 0000.0001) %MON vort_r_max                   =   1.0280748812111E-04
(PID.TID 0000.0001) %MON vort_a_mean                  =  -1.9725077374656E-05
(PID.TID 0000.0001) %MON vort_a_sd                    =   7.4539719439779E-05
(PID.TID 0000.0001) %MON vort_p_mean                  =  -2.1669082383533E-05
(PID.TID 0000.0001) %MON vort_p_sd                    =   9.3610701003134E-05
(PID.TID 0000.0001) %MON surfExpan_theta_mean         =   2.4966240825382E-05
(PID.TID 0000.0001) %MON surfExpan_salt_mean          =   2.5126578148100E-05
(PID.TID 0000.0001) // =======================================================
(PID.TID 0000.0001) // End MONITOR dynamic field statistics
(PID.TID 0000.0001) // =======================================================
(PID.TID 0000.0001) // =======================================================
(PID.TID 0000.0001) // Begin MONITOR SEAICE statistics
(PID.TID 0000.0001) // =======================================================
(PID.TID 0000.0001) %MON seaice_tsnumber              =                174807
(PID.TID 0000.0001) %MON seaice_time_sec              =   7.8663150000000E+07
(PID.TID 0000.0001) %MON seaice_uice_max              =   1.4525555849876E+00
(PID.TID 0000.0001) %MON seaice_uice_min              =  -1.2589861664693E+00
(PID.TID 0000.0001) %MON seaice_uice_mean             =   3.9670184038697E-03
(PID.TID 0000.0001) %MON seaice_uice_sd               =   1.5498856059346E-01
(PID.TID 0000.0001) %MON seaice_uice_del2             =   3.4633357961470E-04
(PID.TID 0000.0001) %MON seaice_vice_max              =   9.2262786689345E-01
(PID.TID 0000.0001) %MON seaice_vice_min              =  -1.4942794017838E+00
(PID.TID 0000.0001) %MON seaice_vice_mean             =  -2.3625610490821E-02
(PID.TID 0000.0001) %MON seaice_vice_sd               =   1.6825869647484E-01
(PID.TID 0000.0001) %MON seaice_vice_del2             =   3.2468074185389E-04
(PID.TID 0000.0001) %MON seaice_area_max              =   1.0034533920675E+00
(PID.TID 0000.0001) %MON seaice_area_min              =   0.0000000000000E+00
(PID.TID 0000.0001) %MON seaice_area_mean             =   5.7464853866311E-02
(PID.TID 0000.0001) %MON seaice_area_sd               =   2.2103804484864E-01
(PID.TID 0000.0001) %MON seaice_area_del2             =   2.9052899955677E-04
(PID.TID 0000.0001) %MON seaice_heff_max              =   9.9481679075502E+00
(PID.TID 0000.0001) %MON seaice_heff_min              =   0.0000000000000E+00
(PID.TID 0000.0001) %MON seaice_heff_mean             =   1.4963569014419E-01
(PID.TID 0000.0001) %MON seaice_heff_sd               =   7.2032964350224E-01
(PID.TID 0000.0001) %MON seaice_heff_del2             =   1.3773409001950E-03
(PID.TID 0000.0001) %MON seaice_hsnow_max             =   3.2859074953853E+00
(PID.TID 0000.0001) %MON seaice_hsnow_min             =   0.0000000000000E+00
(PID.TID 0000.0001) %MON seaice_hsnow_mean            =   1.2647175237626E-02
(PID.TID 0000.0001) %MON seaice_hsnow_sd              =   6.8258887972217E-02
(PID.TID 0000.0001) %MON seaice_hsnow_del2            =   3.7776643105605E-04
(PID.TID 0000.0001) // =======================================================
(PID.TID 0000.0001) // End MONITOR SEAICE statistics
(PID.TID 0000.0001) // =======================================================
(PID.TID 0000.0001) // =======================================================
(PID.TID 0000.0001) // Begin MONITOR dynamic field statistics
(PID.TID 0000.0001) // =======================================================
(PID.TID 0000.0001) %MON time_tsnumber                =                174808
(PID.TID 0000.0001) %MON time_secondsf                =   7.8663600000000E+07
(PID.TID 0000.0001) %MON dynstat_eta_max              =   2.8394121188295E+00
(PID.TID 0000.0001) %MON dynstat_eta_min              =  -1.0992976156428E+01
(PID.TID 0000.0001) %MON dynstat_eta_mean             =   8.5079919993169E-02
(PID.TID 0000.0001) %MON dynstat_eta_sd               =   8.8192227444277E-01
(PID.TID 0000.0001) %MON dynstat_eta_del2             =   2.0099850876089E-03
(PID.TID 0000.0001) %MON dynstat_uvel_max             =   2.3224600982725E+00
(PID.TID 0000.0001) %MON dynstat_uvel_min             =  -2.6838131277287E+00
(PID.TID 0000.0001) %MON dynstat_uvel_mean            =   3.6686148082270E-03
(PID.TID 0000.0001) %MON dynstat_uvel_sd              =   3.0664966570362E-02
(PID.TID 0000.0001) %MON dynstat_uvel_del2            =   3.6802415873818E-05
(PID.TID 0000.0001) %MON dynstat_vvel_max             =   1.9005633554675E+00
(PID.TID 0000.0001) %MON dynstat_vvel_min             =  -2.2513660055069E+00
(PID.TID 0000.0001) %MON dynstat_vvel_mean            =   2.8922053250198E-03
(PID.TID 0000.0001) %MON dynstat_vvel_sd              =   3.1596107445687E-02
(PID.TID 0000.0001) %MON dynstat_vvel_del2            =   3.4860128185654E-05
(PID.TID 0000.0001) %MON dynstat_wvel_max             =   7.5933326544391E-03
(PID.TID 0000.0001) %MON dynstat_wvel_min             =  -7.7495313435883E-03
(PID.TID 0000.0001) %MON dynstat_wvel_mean            =   6.5750754019597E-07
(PID.TID 0000.0001) %MON dynstat_wvel_sd              =   1.1813149598048E-04
(PID.TID 0000.0001) %MON dynstat_wvel_del2            =   2.7641479102692E-07
(PID.TID 0000.0001) %MON dynstat_theta_max            =   3.2434456969180E+01
(PID.TID 0000.0001) %MON dynstat_theta_min            =  -2.0413566637322E+00
(PID.TID 0000.0001) %MON dynstat_theta_mean           =   3.5920263791435E+00
(PID.TID 0000.0001) %MON dynstat_theta_sd             =   4.4420054016321E+00
(PID.TID 0000.0001) %MON dynstat_theta_del2           =   1.2505277889364E-04
(PID.TID 0000.0001) %MON dynstat_salt_max             =   4.0655990798524E+01
(PID.TID 0000.0001) %MON dynstat_salt_min             =   1.6027759814107E+01
(PID.TID 0000.0001) %MON dynstat_salt_mean            =   3.4724802795878E+01
(PID.TID 0000.0001) %MON dynstat_salt_sd              =   3.7972520157852E-01
(PID.TID 0000.0001) %MON dynstat_salt_del2            =   6.5809834297129E-05
(PID.TID 0000.0001) %MON dynstat_sst_max              =   3.2434456969180E+01
(PID.TID 0000.0001) %MON dynstat_sst_min              =  -2.0413566637322E+00
(PID.TID 0000.0001) %MON dynstat_sst_mean             =   1.8187755108921E+01
(PID.TID 0000.0001) %MON dynstat_sst_sd               =   1.0192528974204E+01
(PID.TID 0000.0001) %MON dynstat_sst_del2             =   1.1002238128235E-03
(PID.TID 0000.0001) %MON dynstat_sss_max              =   3.9464373911477E+01
(PID.TID 0000.0001) %MON dynstat_sss_min              =   1.6027759814107E+01
(PID.TID 0000.0001) %MON dynstat_sss_mean             =   3.4643679133199E+01
(PID.TID 0000.0001) %MON dynstat_sss_sd               =   1.2988484503060E+00
(PID.TID 0000.0001) %MON dynstat_sss_del2             =   1.4730135559076E-03
(PID.TID 0000.0001) %MON forcing_qnet_max             =   1.9841107177734E+03
(PID.TID 0000.0001) %MON forcing_qnet_min             =  -2.3709721679688E+03
(PID.TID 0000.0001) %MON forcing_qnet_mean            =  -1.1993955281819E+00
(PID.TID 0000.0001) %MON forcing_qnet_sd              =   1.9252617905121E+02
(PID.TID 0000.0001) %MON forcing_qnet_del2            =   4.6159242867830E-01
(PID.TID 0000.0001) %MON forcing_qsw_max              =   0.0000000000000E+00
(PID.TID 0000.0001) %MON forcing_qsw_min              =  -1.0991288979268E+02
(PID.TID 0000.0001) %MON forcing_qsw_mean             =  -1.8952353036358E+01
(PID.TID 0000.0001) %MON forcing_qsw_sd               =   2.8702512852897E+01
(PID.TID 0000.0001) %MON forcing_qsw_del2             =   2.5316731359283E-02
(PID.TID 0000.0001) %MON forcing_empmr_max            =   2.4891449138522E-02
(PID.TID 0000.0001) %MON forcing_empmr_min            =  -3.6476831883192E-02
(PID.TID 0000.0001) %MON forcing_empmr_mean           =   1.5322441222148E-06
(PID.TID 0000.0001) %MON forcing_empmr_sd             =   3.1684551224776E-04
(PID.TID 0000.0001) %MON forcing_empmr_del2           =   3.6215078897128E-06
(PID.TID 0000.0001) %MON forcing_fu_max               =   6.9370752573013E-01
(PID.TID 0000.0001) %MON forcing_fu_min               =  -1.1287551800781E+00
(PID.TID 0000.0001) %MON forcing_fu_mean              =   1.1757637362397E-02
(PID.TID 0000.0001) %MON forcing_fu_sd                =   1.2500380318070E-01
(PID.TID 0000.0001) %MON forcing_fu_del2              =   1.6171982217138E-04
(PID.TID 0000.0001) %MON forcing_fv_max               =   9.5762458443642E-01
(PID.TID 0000.0001) %MON forcing_fv_min               =  -1.8171311513390E+00
(PID.TID 0000.0001) %MON forcing_fv_mean              =  -1.2965850486996E-03
(PID.TID 0000.0001) %MON forcing_fv_sd                =   1.0855600715758E-01
(PID.TID 0000.0001) %MON forcing_fv_del2              =   1.5144094553492E-04
(PID.TID 0000.0001) %MON trAdv_CFL_u_max              =   2.7682617056410E-02
(PID.TID 0000.0001) %MON trAdv_CFL_v_max              =   2.0390866026261E-02
(PID.TID 0000.0001) %MON trAdv_CFL_w_max              =   1.0044189513913E-01
(PID.TID 0000.0001) %MON advcfl_uvel_max              =   2.8052910621579E-02
(PID.TID 0000.0001) %MON advcfl_vvel_max              =   2.0065108122752E-02
(PID.TID 0000.0001) %MON advcfl_wvel_max              =   9.4950975089928E-02
(PID.TID 0000.0001) %MON advcfl_W_hf_max              =   1.0044189513913E-01
(PID.TID 0000.0001) %MON pe_b_mean                    =   2.3608923940604E-03
(PID.TID 0000.0001) %MON ke_max                       =   2.5541695139679E+00
(PID.TID 0000.0001) %MON ke_mean                      =   9.4532844171380E-04
(PID.TID 0000.0001) %MON ke_vol                       =   1.3350064351420E+18
(PID.TID 0000.0001) %MON vort_r_min                   =  -9.4216332197423E-05
(PID.TID 0000.0001) %MON vort_r_max                   =   1.0252953056493E-04
(PID.TID 0000.0001) %MON vort_a_mean                  =  -1.9725077323869E-05
(PID.TID 0000.0001) %MON vort_a_sd                    =   7.4539736274381E-05
(PID.TID 0000.0001) %MON vort_p_mean                  =  -2.1669082327741E-05
(PID.TID 0000.0001) %MON vort_p_sd                    =   9.3610803316053E-05
(PID.TID 0000.0001) %MON surfExpan_theta_mean         =   2.4678004258036E-05
(PID.TID 0000.0001) %MON surfExpan_salt_mean          =   2.4404936299651E-05
(PID.TID 0000.0001) // =======================================================
(PID.TID 0000.0001) // End MONITOR dynamic field statistics
(PID.TID 0000.0001) // =======================================================
(PID.TID 0000.0001) // =======================================================
(PID.TID 0000.0001) // Begin MONITOR SEAICE statistics
(PID.TID 0000.0001) // =======================================================
(PID.TID 0000.0001) %MON seaice_tsnumber              =                174808
(PID.TID 0000.0001) %MON seaice_time_sec              =   7.8663600000000E+07
(PID.TID 0000.0001) %MON seaice_uice_max              =   1.4461050919053E+00
(PID.TID 0000.0001) %MON seaice_uice_min              =  -1.2650069206515E+00
(PID.TID 0000.0001) %MON seaice_uice_mean             =   4.0166529405213E-03
(PID.TID 0000.0001) %MON seaice_uice_sd               =   1.5498382391660E-01
(PID.TID 0000.0001) %MON seaice_uice_del2             =   3.4648429176603E-04
(PID.TID 0000.0001) %MON seaice_vice_max              =   9.2227636523348E-01
(PID.TID 0000.0001) %MON seaice_vice_min              =  -1.4950001462860E+00
(PID.TID 0000.0001) %MON seaice_vice_mean             =  -2.3573231072530E-02
(PID.TID 0000.0001) %MON seaice_vice_sd               =   1.6811024367213E-01
(PID.TID 0000.0001) %MON seaice_vice_del2             =   3.2480139857311E-04
(PID.TID 0000.0001) %MON seaice_area_max              =   1.0034466861545E+00
(PID.TID 0000.0001) %MON seaice_area_min              =   0.0000000000000E+00
(PID.TID 0000.0001) %MON seaice_area_mean             =   5.7466325541068E-02
(PID.TID 0000.0001) %MON seaice_area_sd               =   2.2103319837296E-01
(PID.TID 0000.0001) %MON seaice_area_del2             =   2.9044410878437E-04
(PID.TID 0000.0001) %MON seaice_heff_max              =   9.9481545791169E+00
(PID.TID 0000.0001) %MON seaice_heff_min              =   0.0000000000000E+00
(PID.TID 0000.0001) %MON seaice_heff_mean             =   1.4963173410860E-01
(PID.TID 0000.0001) %MON seaice_heff_sd               =   7.2031866953933E-01
(PID.TID 0000.0001) %MON seaice_heff_del2             =   1.3767112100993E-03
(PID.TID 0000.0001) %MON seaice_hsnow_max             =   3.2859031396690E+00
(PID.TID 0000.0001) %MON seaice_hsnow_min             =   0.0000000000000E+00
(PID.TID 0000.0001) %MON seaice_hsnow_mean            =   1.2646426688901E-02
(PID.TID 0000.0001) %MON seaice_hsnow_sd              =   6.8251189018533E-02
(PID.TID 0000.0001) %MON seaice_hsnow_del2            =   3.7749397517708E-04
(PID.TID 0000.0001) // =======================================================
(PID.TID 0000.0001) // End MONITOR SEAICE statistics
(PID.TID 0000.0001) // =======================================================
(PID.TID 0000.0001) // =======================================================
(PID.TID 0000.0001) // Begin MONITOR dynamic field statistics
(PID.TID 0000.0001) // =======================================================
(PID.TID 0000.0001) %MON time_tsnumber                =                174809
(PID.TID 0000.0001) %MON time_secondsf                =   7.8664050000000E+07
(PID.TID 0000.0001) %MON dynstat_eta_max              =   2.8493538773284E+00
(PID.TID 0000.0001) %MON dynstat_eta_min              =  -1.0984390873567E+01
(PID.TID 0000.0001) %MON dynstat_eta_mean             =   8.5363161242350E-02
(PID.TID 0000.0001) %MON dynstat_eta_sd               =   8.8321935985940E-01
(PID.TID 0000.0001) %MON dynstat_eta_del2             =   2.0100611287686E-03
(PID.TID 0000.0001) %MON dynstat_uvel_max             =   2.3176731305978E+00
(PID.TID 0000.0001) %MON dynstat_uvel_min             =  -2.6775157204896E+00
(PID.TID 0000.0001) %MON dynstat_uvel_mean            =   3.6404777899063E-03
(PID.TID 0000.0001) %MON dynstat_uvel_sd              =   3.0742535250663E-02
(PID.TID 0000.0001) %MON dynstat_uvel_del2            =   3.6841795233477E-05
(PID.TID 0000.0001) %MON dynstat_vvel_max             =   1.8896300380667E+00
(PID.TID 0000.0001) %MON dynstat_vvel_min             =  -2.2489044464862E+00
(PID.TID 0000.0001) %MON dynstat_vvel_mean            =   2.9224610726092E-03
(PID.TID 0000.0001) %MON dynstat_vvel_sd              =   3.1645009103936E-02
(PID.TID 0000.0001) %MON dynstat_vvel_del2            =   3.4909600667850E-05
(PID.TID 0000.0001) %MON dynstat_wvel_max             =   7.6161997098268E-03
(PID.TID 0000.0001) %MON dynstat_wvel_min             =  -7.7453720082005E-03
(PID.TID 0000.0001) %MON dynstat_wvel_mean            =   6.4670949595660E-07
(PID.TID 0000.0001) %MON dynstat_wvel_sd              =   1.1868469001958E-04
(PID.TID 0000.0001) %MON dynstat_wvel_del2            =   2.7735817688752E-07
(PID.TID 0000.0001) %MON dynstat_theta_max            =   3.2435686530166E+01
(PID.TID 0000.0001) %MON dynstat_theta_min            =  -2.0415262688150E+00
(PID.TID 0000.0001) %MON dynstat_theta_mean           =   3.5920235722781E+00
(PID.TID 0000.0001) %MON dynstat_theta_sd             =   4.4420023174497E+00
(PID.TID 0000.0001) %MON dynstat_theta_del2           =   1.2509109926744E-04
(PID.TID 0000.0001) %MON dynstat_salt_max             =   4.0655990749237E+01
(PID.TID 0000.0001) %MON dynstat_salt_min             =   1.6026115905356E+01
(PID.TID 0000.0001) %MON dynstat_salt_mean            =   3.4724802484026E+01
(PID.TID 0000.0001) %MON dynstat_salt_sd              =   3.7972653242174E-01
(PID.TID 0000.0001) %MON dynstat_salt_del2            =   6.5765546355562E-05
(PID.TID 0000.0001) %MON dynstat_sst_max              =   3.2435686530166E+01
(PID.TID 0000.0001) %MON dynstat_sst_min              =  -2.0415262688150E+00
(PID.TID 0000.0001) %MON dynstat_sst_mean             =   1.8187503956637E+01
(PID.TID 0000.0001) %MON dynstat_sst_sd               =   1.0192788858270E+01
(PID.TID 0000.0001) %MON dynstat_sst_del2             =   1.1002967943252E-03
(PID.TID 0000.0001) %MON dynstat_sss_max              =   3.9464385280662E+01
(PID.TID 0000.0001) %MON dynstat_sss_min              =   1.6026115905356E+01
(PID.TID 0000.0001) %MON dynstat_sss_mean             =   3.4643633872146E+01
(PID.TID 0000.0001) %MON dynstat_sss_sd               =   1.2989279259163E+00
(PID.TID 0000.0001) %MON dynstat_sss_del2             =   1.4730126058755E-03
(PID.TID 0000.0001) %MON forcing_qnet_max             =   2.0353521728516E+03
(PID.TID 0000.0001) %MON forcing_qnet_min             =  -1.2263889160156E+03
(PID.TID 0000.0001) %MON forcing_qnet_mean            =   7.0000918723292E-01
(PID.TID 0000.0001) %MON forcing_qnet_sd              =   1.9160165564203E+02
(PID.TID 0000.0001) %MON forcing_qnet_del2            =   4.3793971963396E-01
(PID.TID 0000.0001) %MON forcing_qsw_max              =   0.0000000000000E+00
(PID.TID 0000.0001) %MON forcing_qsw_min              =  -1.1046560809905E+02
(PID.TID 0000.0001) %MON forcing_qsw_mean             =  -1.8848126733663E+01
(PID.TID 0000.0001) %MON forcing_qsw_sd               =   2.8636010200425E+01
(PID.TID 0000.0001) %MON forcing_qsw_del2             =   2.5264238142152E-02
(PID.TID 0000.0001) %MON forcing_empmr_max            =   2.5460127741098E-02
(PID.TID 0000.0001) %MON forcing_empmr_min            =  -3.6736093461514E-02
(PID.TID 0000.0001) %MON forcing_empmr_mean           =   1.4904574578268E-06
(PID.TID 0000.0001) %MON forcing_empmr_sd             =   3.1634579064103E-04
(PID.TID 0000.0001) %MON forcing_empmr_del2           =   3.6387693656985E-06
(PID.TID 0000.0001) %MON forcing_fu_max               =   6.9276669621468E-01
(PID.TID 0000.0001) %MON forcing_fu_min               =  -1.1290192878128E+00
(PID.TID 0000.0001) %MON forcing_fu_mean              =   1.1791668639538E-02
(PID.TID 0000.0001) %MON forcing_fu_sd                =   1.2505601284863E-01
(PID.TID 0000.0001) %MON forcing_fu_del2              =   1.6158592790886E-04
(PID.TID 0000.0001) %MON forcing_fv_max               =   9.5805168151855E-01
(PID.TID 0000.0001) %MON forcing_fv_min               =  -1.7910274440928E+00
(PID.TID 0000.0001) %MON forcing_fv_mean              =  -1.3156548732157E-03
(PID.TID 0000.0001) %MON forcing_fv_sd                =   1.0860548861985E-01
(PID.TID 0000.0001) %MON forcing_fv_del2              =   1.5113091283868E-04
(PID.TID 0000.0001) %MON trAdv_CFL_u_max              =   2.7617661448568E-02
(PID.TID 0000.0001) %MON trAdv_CFL_v_max              =   2.0307986417542E-02
(PID.TID 0000.0001) %MON trAdv_CFL_w_max              =   1.0003743468960E-01
(PID.TID 0000.0001) %MON advcfl_uvel_max              =   2.7987086141998E-02
(PID.TID 0000.0001) %MON advcfl_vvel_max              =   1.9983552571950E-02
(PID.TID 0000.0001) %MON advcfl_wvel_max              =   9.4562040520898E-02
(PID.TID 0000.0001) %MON advcfl_W_hf_max              =   1.0003743468960E-01
(PID.TID 0000.0001) %MON pe_b_mean                    =   2.3712163292196E-03
(PID.TID 0000.0001) %MON ke_max                       =   2.5408253392577E+00
(PID.TID 0000.0001) %MON ke_mean                      =   9.4910204041851E-04
(PID.TID 0000.0001) %MON ke_vol                       =   1.3350064351420E+18
(PID.TID 0000.0001) %MON vort_r_min                   =  -9.4021934992715E-05
(PID.TID 0000.0001) %MON vort_r_max                   =   1.0225250469784E-04
(PID.TID 0000.0001) %MON vort_a_mean                  =  -1.9725077277234E-05
(PID.TID 0000.0001) %MON vort_a_sd                    =   7.4539753958066E-05
(PID.TID 0000.0001) %MON vort_p_mean                  =  -2.1669082276509E-05
(PID.TID 0000.0001) %MON vort_p_sd                    =   9.3610909965041E-05
(PID.TID 0000.0001) %MON surfExpan_theta_mean         =   2.4416139679494E-05
(PID.TID 0000.0001) %MON surfExpan_salt_mean          =   2.3711195034095E-05
(PID.TID 0000.0001) // =======================================================
(PID.TID 0000.0001) // End MONITOR dynamic field statistics
(PID.TID 0000.0001) // =======================================================
(PID.TID 0000.0001) // =======================================================
(PID.TID 0000.0001) // Begin MONITOR SEAICE statistics
(PID.TID 0000.0001) // =======================================================
(PID.TID 0000.0001) %MON seaice_tsnumber              =                174809
(PID.TID 0000.0001) %MON seaice_time_sec              =   7.8664050000000E+07
(PID.TID 0000.0001) %MON seaice_uice_max              =   1.4392943637672E+00
(PID.TID 0000.0001) %MON seaice_uice_min              =  -1.2698503565182E+00
(PID.TID 0000.0001) %MON seaice_uice_mean             =   4.0614753530818E-03
(PID.TID 0000.0001) %MON seaice_uice_sd               =   1.5497440848613E-01
(PID.TID 0000.0001) %MON seaice_uice_del2             =   3.4661888138107E-04
(PID.TID 0000.0001) %MON seaice_vice_max              =   9.2188101971036E-01
(PID.TID 0000.0001) %MON seaice_vice_min              =  -1.4957198281725E+00
(PID.TID 0000.0001) %MON seaice_vice_mean             =  -2.3533502105089E-02
(PID.TID 0000.0001) %MON seaice_vice_sd               =   1.6801413295171E-01
(PID.TID 0000.0001) %MON seaice_vice_del2             =   3.2488343348749E-04
(PID.TID 0000.0001) %MON seaice_area_max              =   1.0034360941413E+00
(PID.TID 0000.0001) %MON seaice_area_min              =   0.0000000000000E+00
(PID.TID 0000.0001) %MON seaice_area_mean             =   5.7467779518940E-02
(PID.TID 0000.0001) %MON seaice_area_sd               =   2.2102836760721E-01
(PID.TID 0000.0001) %MON seaice_area_del2             =   2.9036208369254E-04
(PID.TID 0000.0001) %MON seaice_heff_max              =   9.9481412501488E+00
(PID.TID 0000.0001) %MON seaice_heff_min              =   0.0000000000000E+00
(PID.TID 0000.0001) %MON seaice_heff_mean             =   1.4962776474691E-01
(PID.TID 0000.0001) %MON seaice_heff_sd               =   7.2030763366241E-01
(PID.TID 0000.0001) %MON seaice_heff_del2             =   1.3760874912795E-03
(PID.TID 0000.0001) %MON seaice_hsnow_max             =   3.2858987837722E+00
(PID.TID 0000.0001) %MON seaice_hsnow_min             =   0.0000000000000E+00
(PID.TID 0000.0001) %MON seaice_hsnow_mean            =   1.2645673734448E-02
(PID.TID 0000.0001) %MON seaice_hsnow_sd              =   6.8243450018306E-02
(PID.TID 0000.0001) %MON seaice_hsnow_del2            =   3.7722266626808E-04
(PID.TID 0000.0001) // =======================================================
(PID.TID 0000.0001) // End MONITOR SEAICE statistics
(PID.TID 0000.0001) // =======================================================
(PID.TID 0000.0001) // =======================================================
(PID.TID 0000.0001) // Begin MONITOR dynamic field statistics
(PID.TID 0000.0001) // =======================================================
(PID.TID 0000.0001) %MON time_tsnumber                =                174810
(PID.TID 0000.0001) %MON time_secondsf                =   7.8664500000000E+07
(PID.TID 0000.0001) %MON dynstat_eta_max              =   2.8490249504018E+00
(PID.TID 0000.0001) %MON dynstat_eta_min              =  -1.0969327478748E+01
(PID.TID 0000.0001) %MON dynstat_eta_mean             =   8.5637423714985E-02
(PID.TID 0000.0001) %MON dynstat_eta_sd               =   8.8451604326759E-01
(PID.TID 0000.0001) %MON dynstat_eta_del2             =   2.0101476979769E-03
(PID.TID 0000.0001) %MON dynstat_uvel_max             =   2.3125076592695E+00
(PID.TID 0000.0001) %MON dynstat_uvel_min             =  -2.6712553298295E+00
(PID.TID 0000.0001) %MON dynstat_uvel_mean            =   3.6149275132416E-03
(PID.TID 0000.0001) %MON dynstat_uvel_sd              =   3.0823701109261E-02
(PID.TID 0000.0001) %MON dynstat_uvel_del2            =   3.6881619694028E-05
(PID.TID 0000.0001) %MON dynstat_vvel_max             =   1.8786354662479E+00
(PID.TID 0000.0001) %MON dynstat_vvel_min             =  -2.2461853130390E+00
(PID.TID 0000.0001) %MON dynstat_vvel_mean            =   2.9537777888004E-03
(PID.TID 0000.0001) %MON dynstat_vvel_sd              =   3.1694438797176E-02
(PID.TID 0000.0001) %MON dynstat_vvel_del2            =   3.4959238371655E-05
(PID.TID 0000.0001) %MON dynstat_wvel_max             =   7.6391432459071E-03
(PID.TID 0000.0001) %MON dynstat_wvel_min             =  -7.7413235220663E-03
(PID.TID 0000.0001) %MON dynstat_wvel_mean            =   6.3598637892771E-07
(PID.TID 0000.0001) %MON dynstat_wvel_sd              =   1.1924520488397E-04
(PID.TID 0000.0001) %MON dynstat_wvel_del2            =   2.7830894549677E-07
(PID.TID 0000.0001) %MON dynstat_theta_max            =   3.2436925105023E+01
(PID.TID 0000.0001) %MON dynstat_theta_min            =  -2.0416844646597E+00
(PID.TID 0000.0001) %MON dynstat_theta_mean           =   3.5920207702033E+00
(PID.TID 0000.0001) %MON dynstat_theta_sd             =   4.4419992828871E+00
(PID.TID 0000.0001) %MON dynstat_theta_del2           =   1.2512655200061E-04
(PID.TID 0000.0001) %MON dynstat_salt_max             =   4.0655990700276E+01
(PID.TID 0000.0001) %MON dynstat_salt_min             =   1.6024479239058E+01
(PID.TID 0000.0001) %MON dynstat_salt_mean            =   3.4724802171612E+01
(PID.TID 0000.0001) %MON dynstat_salt_sd              =   3.7972783478121E-01
(PID.TID 0000.0001) %MON dynstat_salt_del2            =   6.5719383632646E-05
(PID.TID 0000.0001) %MON dynstat_sst_max              =   3.2436925105023E+01
(PID.TID 0000.0001) %MON dynstat_sst_min              =  -2.0416844646597E+00
(PID.TID 0000.0001) %MON dynstat_sst_mean             =   1.8187277699442E+01
(PID.TID 0000.0001) %MON dynstat_sst_sd               =   1.0193064725640E+01
(PID.TID 0000.0001) %MON dynstat_sst_del2             =   1.1000696825909E-03
(PID.TID 0000.0001) %MON dynstat_sss_max              =   3.9464397163817E+01
(PID.TID 0000.0001) %MON dynstat_sss_min              =   1.6024479239058E+01
(PID.TID 0000.0001) %MON dynstat_sss_mean             =   3.4643588898088E+01
(PID.TID 0000.0001) %MON dynstat_sss_sd               =   1.2990080236236E+00
(PID.TID 0000.0001) %MON dynstat_sss_del2             =   1.4728502241619E-03
(PID.TID 0000.0001) %MON forcing_qnet_max             =   2.0849282226562E+03
(PID.TID 0000.0001) %MON forcing_qnet_min             =  -1.1039794129694E+03
(PID.TID 0000.0001) %MON forcing_qnet_mean            =   1.5492415815863E+00
(PID.TID 0000.0001) %MON forcing_qnet_sd              =   1.9119694484039E+02
(PID.TID 0000.0001) %MON forcing_qnet_del2            =   4.3694488617439E-01
(PID.TID 0000.0001) %MON forcing_qsw_max              =   0.0000000000000E+00
(PID.TID 0000.0001) %MON forcing_qsw_min              =  -1.1090449822155E+02
(PID.TID 0000.0001) %MON forcing_qsw_mean             =  -1.8730786197880E+01
(PID.TID 0000.0001) %MON forcing_qsw_sd               =   2.8566524687845E+01
(PID.TID 0000.0001) %MON forcing_qsw_del2             =   2.5196187490865E-02
(PID.TID 0000.0001) %MON forcing_empmr_max            =   2.5960337370634E-02
(PID.TID 0000.0001) %MON forcing_empmr_min            =  -3.6696076393127E-02
(PID.TID 0000.0001) %MON forcing_empmr_mean           =   8.0074901334165E-07
(PID.TID 0000.0001) %MON forcing_empmr_sd             =   3.1023590777688E-04
(PID.TID 0000.0001) %MON forcing_empmr_del2           =   3.6350740658834E-06
(PID.TID 0000.0001) %MON forcing_fu_max               =   6.9454011321068E-01
(PID.TID 0000.0001) %MON forcing_fu_min               =  -1.1330101510502E+00
(PID.TID 0000.0001) %MON forcing_fu_mean              =   1.1827154868420E-02
(PID.TID 0000.0001) %MON forcing_fu_sd                =   1.2510657945175E-01
(PID.TID 0000.0001) %MON forcing_fu_del2              =   1.6145819855867E-04
(PID.TID 0000.0001) %MON forcing_fv_max               =   9.5945081114769E-01
(PID.TID 0000.0001) %MON forcing_fv_min               =  -1.7626889772173E+00
(PID.TID 0000.0001) %MON forcing_fv_mean              =  -1.3261138720111E-03
(PID.TID 0000.0001) %MON forcing_fv_sd                =   1.0866778195676E-01
(PID.TID 0000.0001) %MON forcing_fv_del2              =   1.5077718964982E-04
(PID.TID 0000.0001) %MON trAdv_CFL_u_max              =   2.7553087654113E-02
(PID.TID 0000.0001) %MON trAdv_CFL_v_max              =   2.0225068299577E-02
(PID.TID 0000.0001) %MON trAdv_CFL_w_max              =   9.9606152868428E-02
(PID.TID 0000.0001) %MON advcfl_uvel_max              =   2.7921648583090E-02
(PID.TID 0000.0001) %MON advcfl_vvel_max              =   1.9901959127113E-02
(PID.TID 0000.0001) %MON advcfl_wvel_max              =   9.4146464555041E-02
(PID.TID 0000.0001) %MON advcfl_W_hf_max              =   9.9606152868428E-02
(PID.TID 0000.0001) %MON pe_b_mean                    =   2.3813248399968E-03
(PID.TID 0000.0001) %MON ke_max                       =   2.5275838281192E+00
(PID.TID 0000.0001) %MON ke_mean                      =   9.5302047741875E-04
(PID.TID 0000.0001) %MON ke_vol                       =   1.3350064351420E+18
(PID.TID 0000.0001) %MON vort_r_min                   =  -9.3829956530653E-05
(PID.TID 0000.0001) %MON vort_r_max                   =   1.0197680483470E-04
(PID.TID 0000.0001) %MON vort_a_mean                  =  -1.9725077235955E-05
(PID.TID 0000.0001) %MON vort_a_sd                    =   7.4539772498079E-05
(PID.TID 0000.0001) %MON vort_p_mean                  =  -2.1669082231162E-05
(PID.TID 0000.0001) %MON vort_p_sd                    =   9.3611020764132E-05
(PID.TID 0000.0001) %MON surfExpan_theta_mean         =   2.4169359517987E-05
(PID.TID 0000.0001) %MON surfExpan_salt_mean          =   2.3007652697262E-05
(PID.TID 0000.0001) // =======================================================
(PID.TID 0000.0001) // End MONITOR dynamic field statistics
(PID.TID 0000.0001) // =======================================================
(PID.TID 0000.0001) // =======================================================
(PID.TID 0000.0001) // Begin MONITOR SEAICE statistics
(PID.TID 0000.0001) // =======================================================
(PID.TID 0000.0001) %MON seaice_tsnumber              =                174810
(PID.TID 0000.0001) %MON seaice_time_sec              =   7.8664500000000E+07
(PID.TID 0000.0001) %MON seaice_uice_max              =   1.4321112308882E+00
(PID.TID 0000.0001) %MON seaice_uice_min              =  -1.2735417585374E+00
(PID.TID 0000.0001) %MON seaice_uice_mean             =   4.1111058812629E-03
(PID.TID 0000.0001) %MON seaice_uice_sd               =   1.5496300489175E-01
(PID.TID 0000.0001) %MON seaice_uice_del2             =   3.4672458335170E-04
(PID.TID 0000.0001) %MON seaice_vice_max              =   9.2146297328930E-01
(PID.TID 0000.0001) %MON seaice_vice_min              =  -1.4964382979008E+00
(PID.TID 0000.0001) %MON seaice_vice_mean             =  -2.3472788758918E-02
(PID.TID 0000.0001) %MON seaice_vice_sd               =   1.6785176446958E-01
(PID.TID 0000.0001) %MON seaice_vice_del2             =   3.2496031948652E-04
(PID.TID 0000.0001) %MON seaice_area_max              =   1.0034200157852E+00
(PID.TID 0000.0001) %MON seaice_area_min              =   0.0000000000000E+00
(PID.TID 0000.0001) %MON seaice_area_mean             =   5.7469209887207E-02
(PID.TID 0000.0001) %MON seaice_area_sd               =   2.2102353475946E-01
(PID.TID 0000.0001) %MON seaice_area_del2             =   2.9028298135238E-04
(PID.TID 0000.0001) %MON seaice_heff_max              =   9.9481279202577E+00
(PID.TID 0000.0001) %MON seaice_heff_min              =   0.0000000000000E+00
(PID.TID 0000.0001) %MON seaice_heff_mean             =   1.4962378419853E-01
(PID.TID 0000.0001) %MON seaice_heff_sd               =   7.2029655834500E-01
(PID.TID 0000.0001) %MON seaice_heff_del2             =   1.3754706195322E-03
(PID.TID 0000.0001) %MON seaice_hsnow_max             =   3.2858941895634E+00
(PID.TID 0000.0001) %MON seaice_hsnow_min             =   0.0000000000000E+00
(PID.TID 0000.0001) %MON seaice_hsnow_mean            =   1.2644921565337E-02
(PID.TID 0000.0001) %MON seaice_hsnow_sd              =   6.8235675283563E-02
(PID.TID 0000.0001) %MON seaice_hsnow_del2            =   3.7695281749781E-04
(PID.TID 0000.0001) // =======================================================
(PID.TID 0000.0001) // End MONITOR SEAICE statistics
(PID.TID 0000.0001) // =======================================================
(PID.TID 0000.0001) // =======================================================
(PID.TID 0000.0001) // Begin MONITOR dynamic field statistics
(PID.TID 0000.0001) // =======================================================
(PID.TID 0000.0001) %MON time_tsnumber                =                174811
(PID.TID 0000.0001) %MON time_secondsf                =   7.8664950000000E+07
(PID.TID 0000.0001) %MON dynstat_eta_max              =   2.8383483408946E+00
(PID.TID 0000.0001) %MON dynstat_eta_min              =  -1.0947801320965E+01
(PID.TID 0000.0001) %MON dynstat_eta_mean             =   8.5902224401821E-02
(PID.TID 0000.0001) %MON dynstat_eta_sd               =   8.8581136351009E-01
(PID.TID 0000.0001) %MON dynstat_eta_del2             =   2.0102437790082E-03
(PID.TID 0000.0001) %MON dynstat_uvel_max             =   2.3069610992612E+00
(PID.TID 0000.0001) %MON dynstat_uvel_min             =  -2.6650339467898E+00
(PID.TID 0000.0001) %MON dynstat_uvel_mean            =   3.5922413381553E-03
(PID.TID 0000.0001) %MON dynstat_uvel_sd              =   3.0908330036227E-02
(PID.TID 0000.0001) %MON dynstat_uvel_del2            =   3.6921816855705E-05
(PID.TID 0000.0001) %MON dynstat_vvel_max             =   1.8675711273770E+00
(PID.TID 0000.0001) %MON dynstat_vvel_min             =  -2.2432117845590E+00
(PID.TID 0000.0001) %MON dynstat_vvel_mean            =   2.9860975711972E-03
(PID.TID 0000.0001) %MON dynstat_vvel_sd              =   3.1743651554910E-02
(PID.TID 0000.0001) %MON dynstat_vvel_del2            =   3.5009498031170E-05
(PID.TID 0000.0001) %MON dynstat_wvel_max             =   7.6621414144763E-03
(PID.TID 0000.0001) %MON dynstat_wvel_min             =  -7.7373512427660E-03
(PID.TID 0000.0001) %MON dynstat_wvel_mean            =   6.2520795470945E-07
(PID.TID 0000.0001) %MON dynstat_wvel_sd              =   1.1981287425162E-04
(PID.TID 0000.0001) %MON dynstat_wvel_del2            =   2.7926705072595E-07
(PID.TID 0000.0001) %MON dynstat_theta_max            =   3.2438152760384E+01
(PID.TID 0000.0001) %MON dynstat_theta_min            =  -2.0418316480823E+00
(PID.TID 0000.0001) %MON dynstat_theta_mean           =   3.5920179476121E+00
(PID.TID 0000.0001) %MON dynstat_theta_sd             =   4.4419961565456E+00
(PID.TID 0000.0001) %MON dynstat_theta_del2           =   1.2516517377855E-04
(PID.TID 0000.0001) %MON dynstat_salt_max             =   4.0655990651687E+01
(PID.TID 0000.0001) %MON dynstat_salt_min             =   1.6022853359010E+01
(PID.TID 0000.0001) %MON dynstat_salt_mean            =   3.4724801860074E+01
(PID.TID 0000.0001) %MON dynstat_salt_sd              =   3.7972910366087E-01
(PID.TID 0000.0001) %MON dynstat_salt_del2            =   6.5675786575030E-05
(PID.TID 0000.0001) %MON dynstat_sst_max              =   3.2438152760384E+01
(PID.TID 0000.0001) %MON dynstat_sst_min              =  -2.0418316480823E+00
(PID.TID 0000.0001) %MON dynstat_sst_mean             =   1.8187018620322E+01
(PID.TID 0000.0001) %MON dynstat_sst_sd               =   1.0193316393528E+01
(PID.TID 0000.0001) %MON dynstat_sst_del2             =   1.1001637321407E-03
(PID.TID 0000.0001) %MON dynstat_sss_max              =   3.9464409531426E+01
(PID.TID 0000.0001) %MON dynstat_sss_min              =   1.6022853359010E+01
(PID.TID 0000.0001) %MON dynstat_sss_mean             =   3.4643543536011E+01
(PID.TID 0000.0001) %MON dynstat_sss_sd               =   1.2990874119498E+00
(PID.TID 0000.0001) %MON dynstat_sss_del2             =   1.4728465554874E-03
(PID.TID 0000.0001) %MON forcing_qnet_max             =   2.1274162597656E+03
(PID.TID 0000.0001) %MON forcing_qnet_min             =  -1.1452663025182E+03
(PID.TID 0000.0001) %MON forcing_qnet_mean            =   3.2685793080877E+00
(PID.TID 0000.0001) %MON forcing_qnet_sd              =   1.9077172273903E+02
(PID.TID 0000.0001) %MON forcing_qnet_del2            =   4.3104631106874E-01
(PID.TID 0000.0001) %MON forcing_qsw_max              =   0.0000000000000E+00
(PID.TID 0000.0001) %MON forcing_qsw_min              =  -1.1122912283672E+02
(PID.TID 0000.0001) %MON forcing_qsw_mean             =  -1.8600546310266E+01
(PID.TID 0000.0001) %MON forcing_qsw_sd               =   2.8494142170832E+01
(PID.TID 0000.0001) %MON forcing_qsw_del2             =   2.5112664326794E-02
(PID.TID 0000.0001) %MON forcing_empmr_max            =   2.6331521570683E-02
(PID.TID 0000.0001) %MON forcing_empmr_min            =  -3.6558385938406E-02
(PID.TID 0000.0001) %MON forcing_empmr_mean           =   9.6686959070323E-07
(PID.TID 0000.0001) %MON forcing_empmr_sd             =   3.1257076766526E-04
(PID.TID 0000.0001) %MON forcing_empmr_del2           =   3.6684006104136E-06
(PID.TID 0000.0001) %MON forcing_fu_max               =   6.9941318035126E-01
(PID.TID 0000.0001) %MON forcing_fu_min               =  -1.1349520908768E+00
(PID.TID 0000.0001) %MON forcing_fu_mean              =   1.1871080482912E-02
(PID.TID 0000.0001) %MON forcing_fu_sd                =   1.2514303123005E-01
(PID.TID 0000.0001) %MON forcing_fu_del2              =   1.6125496528603E-04
(PID.TID 0000.0001) %MON forcing_fv_max               =   9.5947948098183E-01
(PID.TID 0000.0001) %MON forcing_fv_min               =  -1.7318007413028E+00
(PID.TID 0000.0001) %MON forcing_fv_mean              =  -1.3364210932981E-03
(PID.TID 0000.0001) %MON forcing_fv_sd                =   1.0872315694502E-01
(PID.TID 0000.0001) %MON forcing_fv_del2              =   1.5047675409078E-04
(PID.TID 0000.0001) %MON trAdv_CFL_u_max              =   2.7488916209957E-02
(PID.TID 0000.0001) %MON trAdv_CFL_v_max              =   2.0142154889571E-02
(PID.TID 0000.0001) %MON trAdv_CFL_w_max              =   9.9147662643975E-02
(PID.TID 0000.0001) %MON advcfl_uvel_max              =   2.7856618756477E-02
(PID.TID 0000.0001) %MON advcfl_vvel_max              =   1.9820370315021E-02
(PID.TID 0000.0001) %MON advcfl_wvel_max              =   9.3703906802969E-02
(PID.TID 0000.0001) %MON advcfl_W_hf_max              =   9.9147662643975E-02
(PID.TID 0000.0001) %MON pe_b_mean                    =   2.3911997124313E-03
(PID.TID 0000.0001) %MON ke_max                       =   2.5144517805361E+00
(PID.TID 0000.0001) %MON ke_mean                      =   9.5705856493390E-04
(PID.TID 0000.0001) %MON ke_vol                       =   1.3350064351420E+18
(PID.TID 0000.0001) %MON vort_r_min                   =  -9.3640435915805E-05
(PID.TID 0000.0001) %MON vort_r_max                   =   1.0170260221694E-04
(PID.TID 0000.0001) %MON vort_a_mean                  =  -1.9725077201197E-05
(PID.TID 0000.0001) %MON vort_a_sd                    =   7.4539791891704E-05
(PID.TID 0000.0001) %MON vort_p_mean                  =  -2.1669082192979E-05
(PID.TID 0000.0001) %MON vort_p_sd                    =   9.3611135724831E-05
(PID.TID 0000.0001) %MON surfExpan_theta_mean         =   2.3938631097544E-05
(PID.TID 0000.0001) %MON surfExpan_salt_mean          =   2.2296343470278E-05
(PID.TID 0000.0001) // =======================================================
(PID.TID 0000.0001) // End MONITOR dynamic field statistics
(PID.TID 0000.0001) // =======================================================
(PID.TID 0000.0001) // =======================================================
(PID.TID 0000.0001) // Begin MONITOR SEAICE statistics
(PID.TID 0000.0001) // =======================================================
(PID.TID 0000.0001) %MON seaice_tsnumber              =                174811
(PID.TID 0000.0001) %MON seaice_time_sec              =   7.8664950000000E+07
(PID.TID 0000.0001) %MON seaice_uice_max              =   1.4245778841126E+00
(PID.TID 0000.0001) %MON seaice_uice_min              =  -1.2761115261112E+00
(PID.TID 0000.0001) %MON seaice_uice_mean             =   4.1583503472769E-03
(PID.TID 0000.0001) %MON seaice_uice_sd               =   1.5494855640839E-01
(PID.TID 0000.0001) %MON seaice_uice_del2             =   3.4680597699144E-04
(PID.TID 0000.0001) %MON seaice_vice_max              =   9.2104480719949E-01
(PID.TID 0000.0001) %MON seaice_vice_min              =  -1.4971608267240E+00
(PID.TID 0000.0001) %MON seaice_vice_mean             =  -2.3424754332388E-02
(PID.TID 0000.0001) %MON seaice_vice_sd               =   1.6773625452409E-01
(PID.TID 0000.0001) %MON seaice_vice_del2             =   3.2500549831782E-04
(PID.TID 0000.0001) %MON seaice_area_max              =   1.0033970261541E+00
(PID.TID 0000.0001) %MON seaice_area_min              =   0.0000000000000E+00
(PID.TID 0000.0001) %MON seaice_area_mean             =   5.7470610184047E-02
(PID.TID 0000.0001) %MON seaice_area_sd               =   2.2101867204235E-01
(PID.TID 0000.0001) %MON seaice_area_del2             =   2.9020617907499E-04
(PID.TID 0000.0001) %MON seaice_heff_max              =   9.9481145897896E+00
(PID.TID 0000.0001) %MON seaice_heff_min              =   0.0000000000000E+00
(PID.TID 0000.0001) %MON seaice_heff_mean             =   1.4961978933733E-01
(PID.TID 0000.0001) %MON seaice_heff_sd               =   7.2028542987875E-01
(PID.TID 0000.0001) %MON seaice_heff_del2             =   1.3748607451438E-03
(PID.TID 0000.0001) %MON seaice_hsnow_max             =   3.2858895950602E+00
(PID.TID 0000.0001) %MON seaice_hsnow_min             =   0.0000000000000E+00
(PID.TID 0000.0001) %MON seaice_hsnow_mean            =   1.2644181665720E-02
(PID.TID 0000.0001) %MON seaice_hsnow_sd              =   6.8227897515886E-02
(PID.TID 0000.0001) %MON seaice_hsnow_del2            =   3.7668478384998E-04
(PID.TID 0000.0001) // =======================================================
(PID.TID 0000.0001) // End MONITOR SEAICE statistics
(PID.TID 0000.0001) // =======================================================
(PID.TID 0000.0001) // =======================================================
(PID.TID 0000.0001) // Begin MONITOR dynamic field statistics
(PID.TID 0000.0001) // =======================================================
(PID.TID 0000.0001) %MON time_tsnumber                =                174812
(PID.TID 0000.0001) %MON time_secondsf                =   7.8665400000000E+07
(PID.TID 0000.0001) %MON dynstat_eta_max              =   2.8173308869918E+00
(PID.TID 0000.0001) %MON dynstat_eta_min              =  -1.0919935331059E+01
(PID.TID 0000.0001) %MON dynstat_eta_mean             =   8.6158128366099E-02
(PID.TID 0000.0001) %MON dynstat_eta_sd               =   8.8710431479322E-01
(PID.TID 0000.0001) %MON dynstat_eta_del2             =   2.0103468229668E-03
(PID.TID 0000.0001) %MON dynstat_uvel_max             =   2.3010333701006E+00
(PID.TID 0000.0001) %MON dynstat_uvel_min             =  -2.6588500819175E+00
(PID.TID 0000.0001) %MON dynstat_uvel_mean            =   3.5726818326212E-03
(PID.TID 0000.0001) %MON dynstat_uvel_sd              =   3.0996405997105E-02
(PID.TID 0000.0001) %MON dynstat_uvel_del2            =   3.6962617789406E-05
(PID.TID 0000.0001) %MON dynstat_vvel_max             =   1.8583460629171E+00
(PID.TID 0000.0001) %MON dynstat_vvel_min             =  -2.2399923236542E+00
(PID.TID 0000.0001) %MON dynstat_vvel_mean            =   3.0193687656872E-03
(PID.TID 0000.0001) %MON dynstat_vvel_sd              =   3.1793704276294E-02
(PID.TID 0000.0001) %MON dynstat_vvel_del2            =   3.5060064348404E-05
(PID.TID 0000.0001) %MON dynstat_wvel_max             =   7.6851728916615E-03
(PID.TID 0000.0001) %MON dynstat_wvel_min             =  -7.7334874186727E-03
(PID.TID 0000.0001) %MON dynstat_wvel_mean            =   6.1497636906371E-07
(PID.TID 0000.0001) %MON dynstat_wvel_sd              =   1.2038743489137E-04
(PID.TID 0000.0001) %MON dynstat_wvel_del2            =   2.8023255141461E-07
(PID.TID 0000.0001) %MON dynstat_theta_max            =   3.2439373983315E+01
(PID.TID 0000.0001) %MON dynstat_theta_min            =  -2.0419686835727E+00
(PID.TID 0000.0001) %MON dynstat_theta_mean           =   3.5920151223838E+00
(PID.TID 0000.0001) %MON dynstat_theta_sd             =   4.4419930336495E+00
(PID.TID 0000.0001) %MON dynstat_theta_del2           =   1.2520082710956E-04
(PID.TID 0000.0001) %MON dynstat_salt_max             =   4.0655990603516E+01
(PID.TID 0000.0001) %MON dynstat_salt_min             =   1.6021239144675E+01
(PID.TID 0000.0001) %MON dynstat_salt_mean            =   3.4724801549334E+01
(PID.TID 0000.0001) %MON dynstat_salt_sd              =   3.7973033213949E-01
(PID.TID 0000.0001) %MON dynstat_salt_del2            =   6.5630711645616E-05
(PID.TID 0000.0001) %MON dynstat_sst_max              =   3.2439373983315E+01
(PID.TID 0000.0001) %MON dynstat_sst_min              =  -2.0419686835727E+00
(PID.TID 0000.0001) %MON dynstat_sst_mean             =   1.8186780217697E+01
(PID.TID 0000.0001) %MON dynstat_sst_sd               =   1.0193580490477E+01
(PID.TID 0000.0001) %MON dynstat_sst_del2             =   1.0999739124422E-03
(PID.TID 0000.0001) %MON dynstat_sss_max              =   3.9464422175337E+01
(PID.TID 0000.0001) %MON dynstat_sss_min              =   1.6021239144675E+01
(PID.TID 0000.0001) %MON dynstat_sss_mean             =   3.4643499681306E+01
(PID.TID 0000.0001) %MON dynstat_sss_sd               =   1.2991662102091E+00
(PID.TID 0000.0001) %MON dynstat_sss_del2             =   1.4727138312407E-03
(PID.TID 0000.0001) %MON forcing_qnet_max             =   2.1470996093750E+03
(PID.TID 0000.0001) %MON forcing_qnet_min             =  -1.1604750918174E+03
(PID.TID 0000.0001) %MON forcing_qnet_mean            =   4.2258121300672E+00
(PID.TID 0000.0001) %MON forcing_qnet_sd              =   1.9043584119713E+02
(PID.TID 0000.0001) %MON forcing_qnet_del2            =   4.3763233440800E-01
(PID.TID 0000.0001) %MON forcing_qsw_max              =   0.0000000000000E+00
(PID.TID 0000.0001) %MON forcing_qsw_min              =  -1.1143912937994E+02
(PID.TID 0000.0001) %MON forcing_qsw_mean             =  -1.8457704990094E+01
(PID.TID 0000.0001) %MON forcing_qsw_sd               =   2.8418851392622E+01
(PID.TID 0000.0001) %MON forcing_qsw_del2             =   2.5013711850153E-02
(PID.TID 0000.0001) %MON forcing_empmr_max            =   2.6398405432701E-02
(PID.TID 0000.0001) %MON forcing_empmr_min            =  -3.6813020706177E-02
(PID.TID 0000.0001) %MON forcing_empmr_mean           =   7.6241124843473E-07
(PID.TID 0000.0001) %MON forcing_empmr_sd             =   3.1431378002820E-04
(PID.TID 0000.0001) %MON forcing_empmr_del2           =   3.6883894967701E-06
(PID.TID 0000.0001) %MON forcing_fu_max               =   7.0524922013283E-01
(PID.TID 0000.0001) %MON forcing_fu_min               =  -1.1380339896815E+00
(PID.TID 0000.0001) %MON forcing_fu_mean              =   1.1905983572082E-02
(PID.TID 0000.0001) %MON forcing_fu_sd                =   1.2521861763922E-01
(PID.TID 0000.0001) %MON forcing_fu_del2              =   1.6124971647128E-04
(PID.TID 0000.0001) %MON forcing_fv_max               =   9.5869731903076E-01
(PID.TID 0000.0001) %MON forcing_fv_min               =  -1.6983314267379E+00
(PID.TID 0000.0001) %MON forcing_fv_mean              =  -1.3356921366076E-03
(PID.TID 0000.0001) %MON forcing_fv_sd                =   1.0882174130860E-01
(PID.TID 0000.0001) %MON forcing_fv_del2              =   1.5020974694933E-04
(PID.TID 0000.0001) %MON trAdv_CFL_u_max              =   2.7425131752903E-02
(PID.TID 0000.0001) %MON trAdv_CFL_v_max              =   2.0059298741685E-02
(PID.TID 0000.0001) %MON trAdv_CFL_w_max              =   9.8660455738676E-02
(PID.TID 0000.0001) %MON advcfl_uvel_max              =   2.7791981093458E-02
(PID.TID 0000.0001) %MON advcfl_vvel_max              =   1.9738837850248E-02
(PID.TID 0000.0001) %MON advcfl_wvel_max              =   9.3232800255458E-02
(PID.TID 0000.0001) %MON advcfl_W_hf_max              =   9.8660455738676E-02
(PID.TID 0000.0001) %MON pe_b_mean                    =   2.4008509390031E-03
(PID.TID 0000.0001) %MON ke_max                       =   2.5014298790380E+00
(PID.TID 0000.0001) %MON ke_mean                      =   9.6124971095081E-04
(PID.TID 0000.0001) %MON ke_vol                       =   1.3350064351420E+18
(PID.TID 0000.0001) %MON vort_r_min                   =  -9.3453334302811E-05
(PID.TID 0000.0001) %MON vort_r_max                   =   1.0142994912266E-04
(PID.TID 0000.0001) %MON vort_a_mean                  =  -1.9725077173984E-05
(PID.TID 0000.0001) %MON vort_a_sd                    =   7.4539812136188E-05
(PID.TID 0000.0001) %MON vort_p_mean                  =  -2.1669082163084E-05
(PID.TID 0000.0001) %MON vort_p_sd                    =   9.3611254644845E-05
(PID.TID 0000.0001) %MON surfExpan_theta_mean         =   2.3742127638459E-05
(PID.TID 0000.0001) %MON surfExpan_salt_mean          =   2.1616143255851E-05
(PID.TID 0000.0001) // =======================================================
(PID.TID 0000.0001) // End MONITOR dynamic field statistics
(PID.TID 0000.0001) // =======================================================
(PID.TID 0000.0001) // =======================================================
(PID.TID 0000.0001) // Begin MONITOR SEAICE statistics
(PID.TID 0000.0001) // =======================================================
(PID.TID 0000.0001) %MON seaice_tsnumber              =                174812
(PID.TID 0000.0001) %MON seaice_time_sec              =   7.8665400000000E+07
(PID.TID 0000.0001) %MON seaice_uice_max              =   1.4167147567976E+00
(PID.TID 0000.0001) %MON seaice_uice_min              =  -1.2775930905980E+00
(PID.TID 0000.0001) %MON seaice_uice_mean             =   4.2067354840635E-03
(PID.TID 0000.0001) %MON seaice_uice_sd               =   1.5492862125717E-01
(PID.TID 0000.0001) %MON seaice_uice_del2             =   3.4686793578983E-04
(PID.TID 0000.0001) %MON seaice_vice_max              =   9.2065307104579E-01
(PID.TID 0000.0001) %MON seaice_vice_min              =  -1.4978878236729E+00
(PID.TID 0000.0001) %MON seaice_vice_mean             =  -2.3353968989903E-02
(PID.TID 0000.0001) %MON seaice_vice_sd               =   1.6756068786784E-01
(PID.TID 0000.0001) %MON seaice_vice_del2             =   3.2504244536990E-04
(PID.TID 0000.0001) %MON seaice_area_max              =   1.0033652172586E+00
(PID.TID 0000.0001) %MON seaice_area_min              =   0.0000000000000E+00
(PID.TID 0000.0001) %MON seaice_area_mean             =   5.7471987748388E-02
(PID.TID 0000.0001) %MON seaice_area_sd               =   2.2101380731024E-01
(PID.TID 0000.0001) %MON seaice_area_del2             =   2.9013252184019E-04
(PID.TID 0000.0001) %MON seaice_heff_max              =   9.9481003052077E+00
(PID.TID 0000.0001) %MON seaice_heff_min              =   0.0000000000000E+00
(PID.TID 0000.0001) %MON seaice_heff_mean             =   1.4961578976545E-01
(PID.TID 0000.0001) %MON seaice_heff_sd               =   7.2027428059883E-01
(PID.TID 0000.0001) %MON seaice_heff_del2             =   1.3742576093960E-03
(PID.TID 0000.0001) %MON seaice_hsnow_max             =   3.2858854772524E+00
(PID.TID 0000.0001) %MON seaice_hsnow_min             =   0.0000000000000E+00
(PID.TID 0000.0001) %MON seaice_hsnow_mean            =   1.2643455234527E-02
(PID.TID 0000.0001) %MON seaice_hsnow_sd              =   6.8220189476457E-02
(PID.TID 0000.0001) %MON seaice_hsnow_del2            =   3.7641832080419E-04
(PID.TID 0000.0001) // =======================================================
(PID.TID 0000.0001) // End MONITOR SEAICE statistics
(PID.TID 0000.0001) // =======================================================
(PID.TID 0000.0001) // =======================================================
(PID.TID 0000.0001) // Begin MONITOR dynamic field statistics
(PID.TID 0000.0001) // =======================================================
(PID.TID 0000.0001) %MON time_tsnumber                =                174813
(PID.TID 0000.0001) %MON time_secondsf                =   7.8665850000000E+07
(PID.TID 0000.0001) %MON dynstat_eta_max              =   2.7860559285858E+00
(PID.TID 0000.0001) %MON dynstat_eta_min              =  -1.0885970465655E+01
(PID.TID 0000.0001) %MON dynstat_eta_mean             =   8.6405717755767E-02
(PID.TID 0000.0001) %MON dynstat_eta_sd               =   8.8839373257581E-01
(PID.TID 0000.0001) %MON dynstat_eta_del2             =   2.0104545849389E-03
(PID.TID 0000.0001) %MON dynstat_uvel_max             =   2.2947249325116E+00
(PID.TID 0000.0001) %MON dynstat_uvel_min             =  -2.6527034713767E+00
(PID.TID 0000.0001) %MON dynstat_uvel_mean            =   3.5565059275206E-03
(PID.TID 0000.0001) %MON dynstat_uvel_sd              =   3.1087676059663E-02
(PID.TID 0000.0001) %MON dynstat_uvel_del2            =   3.7003914748660E-05
(PID.TID 0000.0001) %MON dynstat_vvel_max             =   1.8625746000789E+00
(PID.TID 0000.0001) %MON dynstat_vvel_min             =  -2.2365370714142E+00
(PID.TID 0000.0001) %MON dynstat_vvel_mean            =   3.0535202373629E-03
(PID.TID 0000.0001) %MON dynstat_vvel_sd              =   3.1843378556204E-02
(PID.TID 0000.0001) %MON dynstat_vvel_del2            =   3.5111317802063E-05
(PID.TID 0000.0001) %MON dynstat_wvel_max             =   7.7082120061556E-03
(PID.TID 0000.0001) %MON dynstat_wvel_min             =  -7.7297516700878E-03
(PID.TID 0000.0001) %MON dynstat_wvel_mean            =   6.0561615897278E-07
(PID.TID 0000.0001) %MON dynstat_wvel_sd              =   1.2096825975617E-04
(PID.TID 0000.0001) %MON dynstat_wvel_del2            =   2.8120482888739E-07
(PID.TID 0000.0001) %MON dynstat_theta_max            =   3.2440562148375E+01
(PID.TID 0000.0001) %MON dynstat_theta_min            =  -2.0420965161725E+00
(PID.TID 0000.0001) %MON dynstat_theta_mean           =   3.5920122364375E+00
(PID.TID 0000.0001) %MON dynstat_theta_sd             =   4.4419896363129E+00
(PID.TID 0000.0001) %MON dynstat_theta_del2           =   1.2524039183407E-04
(PID.TID 0000.0001) %MON dynstat_salt_max             =   4.0655990555808E+01
(PID.TID 0000.0001) %MON dynstat_salt_min             =   1.6019638534089E+01
(PID.TID 0000.0001) %MON dynstat_salt_mean            =   3.4724801238004E+01
(PID.TID 0000.0001) %MON dynstat_salt_sd              =   3.7973151775776E-01
(PID.TID 0000.0001) %MON dynstat_salt_del2            =   6.5587982366646E-05
(PID.TID 0000.0001) %MON dynstat_sst_max              =   3.2440562148375E+01
(PID.TID 0000.0001) %MON dynstat_sst_min              =  -2.0420965161725E+00
(PID.TID 0000.0001) %MON dynstat_sst_mean             =   1.8186468489217E+01
(PID.TID 0000.0001) %MON dynstat_sst_sd               =   1.0193788910258E+01
(PID.TID 0000.0001) %MON dynstat_sst_del2             =   1.1001606548298E-03
(PID.TID 0000.0001) %MON dynstat_sss_max              =   3.9464435018953E+01
(PID.TID 0000.0001) %MON dynstat_sss_min              =   1.6019638534089E+01
(PID.TID 0000.0001) %MON dynstat_sss_mean             =   3.4643453892713E+01
(PID.TID 0000.0001) %MON dynstat_sss_sd               =   1.2992446538933E+00
(PID.TID 0000.0001) %MON dynstat_sss_del2             =   1.4727156130767E-03
(PID.TID 0000.0001) %MON forcing_qnet_max             =   2.1353222656250E+03
(PID.TID 0000.0001) %MON forcing_qnet_min             =  -1.1052166238999E+03
(PID.TID 0000.0001) %MON forcing_qnet_mean            =   6.9943474718228E+00
(PID.TID 0000.0001) %MON forcing_qnet_sd              =   1.9031368728056E+02
(PID.TID 0000.0001) %MON forcing_qnet_del2            =   4.3655416826533E-01
(PID.TID 0000.0001) %MON forcing_qsw_max              =   0.0000000000000E+00
(PID.TID 0000.0001) %MON forcing_qsw_min              =  -1.1175862033201E+02
(PID.TID 0000.0001) %MON forcing_qsw_mean             =  -1.8110590726624E+01
(PID.TID 0000.0001) %MON forcing_qsw_sd               =   2.8351106171963E+01
(PID.TID 0000.0001) %MON forcing_qsw_del2             =   2.4573553771382E-02
(PID.TID 0000.0001) %MON forcing_empmr_max            =   2.5659436360002E-02
(PID.TID 0000.0001) %MON forcing_empmr_min            =  -3.5932697355747E-02
(PID.TID 0000.0001) %MON forcing_empmr_mean           =   5.5080679565342E-07
(PID.TID 0000.0001) %MON forcing_empmr_sd             =   3.1410358484328E-04
(PID.TID 0000.0001) %MON forcing_empmr_del2           =   3.6653035141396E-06
(PID.TID 0000.0001) %MON forcing_fu_max               =   7.0801222324371E-01
(PID.TID 0000.0001) %MON forcing_fu_min               =  -1.1388974629808E+00
(PID.TID 0000.0001) %MON forcing_fu_mean              =   1.1944467197230E-02
(PID.TID 0000.0001) %MON forcing_fu_sd                =   1.2524925546678E-01
(PID.TID 0000.0001) %MON forcing_fu_del2              =   1.6123482791596E-04
(PID.TID 0000.0001) %MON forcing_fv_max               =   9.5647433400154E-01
(PID.TID 0000.0001) %MON forcing_fv_min               =  -1.6620699968665E+00
(PID.TID 0000.0001) %MON forcing_fv_mean              =  -1.3354319045223E-03
(PID.TID 0000.0001) %MON forcing_fv_sd                =   1.0893064360544E-01
(PID.TID 0000.0001) %MON forcing_fv_del2              =   1.5008906981602E-04
(PID.TID 0000.0001) %MON trAdv_CFL_u_max              =   2.7361731561571E-02
(PID.TID 0000.0001) %MON trAdv_CFL_v_max              =   1.9976494890577E-02
(PID.TID 0000.0001) %MON trAdv_CFL_w_max              =   9.8144285503728E-02
(PID.TID 0000.0001) %MON advcfl_uvel_max              =   2.7727732836251E-02
(PID.TID 0000.0001) %MON advcfl_vvel_max              =   1.9657356846777E-02
(PID.TID 0000.0001) %MON advcfl_wvel_max              =   9.2732915790961E-02
(PID.TID 0000.0001) %MON advcfl_W_hf_max              =   9.8144285503728E-02
(PID.TID 0000.0001) %MON pe_b_mean                    =   2.4102890541450E-03
(PID.TID 0000.0001) %MON ke_max                       =   2.4885212005279E+00
(PID.TID 0000.0001) %MON ke_mean                      =   9.6555049652127E-04
(PID.TID 0000.0001) %MON ke_vol                       =   1.3350064351420E+18
(PID.TID 0000.0001) %MON vort_r_min                   =  -9.3268507317960E-05
(PID.TID 0000.0001) %MON vort_r_max                   =   1.0115894768784E-04
(PID.TID 0000.0001) %MON vort_a_mean                  =  -1.9725077155407E-05
(PID.TID 0000.0001) %MON vort_a_sd                    =   7.4539833225990E-05
(PID.TID 0000.0001) %MON vort_p_mean                  =  -2.1669082142676E-05
(PID.TID 0000.0001) %MON vort_p_sd                    =   9.3611377438941E-05
(PID.TID 0000.0001) %MON surfExpan_theta_mean         =   2.3588563970222E-05
(PID.TID 0000.0001) %MON surfExpan_salt_mean          =   2.0980434334646E-05
(PID.TID 0000.0001) // =======================================================
(PID.TID 0000.0001) // End MONITOR dynamic field statistics
(PID.TID 0000.0001) // =======================================================
(PID.TID 0000.0001) // =======================================================
(PID.TID 0000.0001) // Begin MONITOR SEAICE statistics
(PID.TID 0000.0001) // =======================================================
(PID.TID 0000.0001) %MON seaice_tsnumber              =                174813
(PID.TID 0000.0001) %MON seaice_time_sec              =   7.8665850000000E+07
(PID.TID 0000.0001) %MON seaice_uice_max              =   1.4085471860706E+00
(PID.TID 0000.0001) %MON seaice_uice_min              =  -1.2780211184402E+00
(PID.TID 0000.0001) %MON seaice_uice_mean             =   4.2555187496578E-03
(PID.TID 0000.0001) %MON seaice_uice_sd               =   1.5490459269034E-01
(PID.TID 0000.0001) %MON seaice_uice_del2             =   3.4701016852352E-04
(PID.TID 0000.0001) %MON seaice_vice_max              =   9.2031326326718E-01
(PID.TID 0000.0001) %MON seaice_vice_min              =  -1.4986203980795E+00
(PID.TID 0000.0001) %MON seaice_vice_mean             =  -2.3293010637244E-02
(PID.TID 0000.0001) %MON seaice_vice_sd               =   1.6742519207777E-01
(PID.TID 0000.0001) %MON seaice_vice_del2             =   3.2506494507490E-04
(PID.TID 0000.0001) %MON seaice_area_max              =   1.0033229147371E+00
(PID.TID 0000.0001) %MON seaice_area_min              =   0.0000000000000E+00
(PID.TID 0000.0001) %MON seaice_area_mean             =   5.7473357778980E-02
(PID.TID 0000.0001) %MON seaice_area_sd               =   2.2100897806767E-01
(PID.TID 0000.0001) %MON seaice_area_del2             =   2.9006076589752E-04
(PID.TID 0000.0001) %MON seaice_heff_max              =   9.9480869736950E+00
(PID.TID 0000.0001) %MON seaice_heff_min              =   0.0000000000000E+00
(PID.TID 0000.0001) %MON seaice_heff_mean             =   1.4961178805852E-01
(PID.TID 0000.0001) %MON seaice_heff_sd               =   7.2026311496682E-01
(PID.TID 0000.0001) %MON seaice_heff_del2             =   1.3736610509358E-03
(PID.TID 0000.0001) %MON seaice_hsnow_max             =   3.2858806439694E+00
(PID.TID 0000.0001) %MON seaice_hsnow_min             =   0.0000000000000E+00
(PID.TID 0000.0001) %MON seaice_hsnow_mean            =   1.2642740678730E-02
(PID.TID 0000.0001) %MON seaice_hsnow_sd              =   6.8212477581054E-02
(PID.TID 0000.0001) %MON seaice_hsnow_del2            =   3.7615389252404E-04
(PID.TID 0000.0001) // =======================================================
(PID.TID 0000.0001) // End MONITOR SEAICE statistics
(PID.TID 0000.0001) // =======================================================
(PID.TID 0000.0001) // =======================================================
(PID.TID 0000.0001) // Begin MONITOR dynamic field statistics
(PID.TID 0000.0001) // =======================================================
(PID.TID 0000.0001) %MON time_tsnumber                =                174814
(PID.TID 0000.0001) %MON time_secondsf                =   7.8666300000000E+07
(PID.TID 0000.0001) %MON dynstat_eta_max              =   2.7446735821288E+00
(PID.TID 0000.0001) %MON dynstat_eta_min              =  -1.0846248912323E+01
(PID.TID 0000.0001) %MON dynstat_eta_mean             =   8.6645146185235E-02
(PID.TID 0000.0001) %MON dynstat_eta_sd               =   8.8967859300464E-01
(PID.TID 0000.0001) %MON dynstat_eta_del2             =   2.0105642798713E-03
(PID.TID 0000.0001) %MON dynstat_uvel_max             =   2.2880404339491E+00
(PID.TID 0000.0001) %MON dynstat_uvel_min             =  -2.6465913879396E+00
(PID.TID 0000.0001) %MON dynstat_uvel_mean            =   3.5439565680865E-03
(PID.TID 0000.0001) %MON dynstat_uvel_sd              =   3.1182330613535E-02
(PID.TID 0000.0001) %MON dynstat_uvel_del2            =   3.7045925479762E-05
(PID.TID 0000.0001) %MON dynstat_vvel_max             =   1.8663610906185E+00
(PID.TID 0000.0001) %MON dynstat_vvel_min             =  -2.2328535756842E+00
(PID.TID 0000.0001) %MON dynstat_vvel_mean            =   3.0884640044994E-03
(PID.TID 0000.0001) %MON dynstat_vvel_sd              =   3.1894789710948E-02
(PID.TID 0000.0001) %MON dynstat_vvel_del2            =   3.5163145386307E-05
(PID.TID 0000.0001) %MON dynstat_wvel_max             =   7.7312373478299E-03
(PID.TID 0000.0001) %MON dynstat_wvel_min             =  -7.7261317677616E-03
(PID.TID 0000.0001) %MON dynstat_wvel_mean            =   5.9655823980322E-07
(PID.TID 0000.0001) %MON dynstat_wvel_sd              =   1.2155513698950E-04
(PID.TID 0000.0001) %MON dynstat_wvel_del2            =   2.8218390770943E-07
(PID.TID 0000.0001) %MON dynstat_theta_max            =   3.2441737035027E+01
(PID.TID 0000.0001) %MON dynstat_theta_min            =  -2.0422161258667E+00
(PID.TID 0000.0001) %MON dynstat_theta_mean           =   3.5920093652920E+00
(PID.TID 0000.0001) %MON dynstat_theta_sd             =   4.4419863120430E+00
(PID.TID 0000.0001) %MON dynstat_theta_del2           =   1.2527620039592E-04
(PID.TID 0000.0001) %MON dynstat_salt_max             =   4.0655990508608E+01
(PID.TID 0000.0001) %MON dynstat_salt_min             =   1.6018053385881E+01
(PID.TID 0000.0001) %MON dynstat_salt_mean            =   3.4724800927414E+01
(PID.TID 0000.0001) %MON dynstat_salt_sd              =   3.7973266171607E-01
(PID.TID 0000.0001) %MON dynstat_salt_del2            =   6.5543927576765E-05
(PID.TID 0000.0001) %MON dynstat_sst_max              =   3.2441737035027E+01
(PID.TID 0000.0001) %MON dynstat_sst_min              =  -2.0422161258667E+00
(PID.TID 0000.0001) %MON dynstat_sst_mean             =   1.8186215354617E+01
(PID.TID 0000.0001) %MON dynstat_sst_sd               =   1.0194037295711E+01
(PID.TID 0000.0001) %MON dynstat_sst_del2             =   1.0999635986954E-03
(PID.TID 0000.0001) %MON dynstat_sss_max              =   3.9464448147441E+01
(PID.TID 0000.0001) %MON dynstat_sss_min              =   1.6018053385881E+01
(PID.TID 0000.0001) %MON dynstat_sss_mean             =   3.4643409529441E+01
(PID.TID 0000.0001) %MON dynstat_sss_sd               =   1.2993219569870E+00
(PID.TID 0000.0001) %MON dynstat_sss_del2             =   1.4725967093480E-03
(PID.TID 0000.0001) %MON forcing_qnet_max             =   2.0558137207031E+03
(PID.TID 0000.0001) %MON forcing_qnet_min             =  -1.3333435710216E+03
(PID.TID 0000.0001) %MON forcing_qnet_mean            =   7.0715821613503E+00
(PID.TID 0000.0001) %MON forcing_qnet_sd              =   1.9050177378782E+02
(PID.TID 0000.0001) %MON forcing_qnet_del2            =   4.4072126534951E-01
(PID.TID 0000.0001) %MON forcing_qsw_max              =   0.0000000000000E+00
(PID.TID 0000.0001) %MON forcing_qsw_min              =  -1.1173876934673E+02
(PID.TID 0000.0001) %MON forcing_qsw_mean             =  -1.8043731535460E+01
(PID.TID 0000.0001) %MON forcing_qsw_sd               =   2.8380425340827E+01
(PID.TID 0000.0001) %MON forcing_qsw_del2             =   2.4490870510613E-02
(PID.TID 0000.0001) %MON forcing_empmr_max            =   2.2712048143148E-02
(PID.TID 0000.0001) %MON forcing_empmr_min            =  -3.6559779196978E-02
(PID.TID 0000.0001) %MON forcing_empmr_mean           =   2.5743131756938E-07
(PID.TID 0000.0001) %MON forcing_empmr_sd             =   3.1778409295957E-04
(PID.TID 0000.0001) %MON forcing_empmr_del2           =   3.6350653568014E-06
(PID.TID 0000.0001) %MON forcing_fu_max               =   7.4019798636436E-01
(PID.TID 0000.0001) %MON forcing_fu_min               =  -1.1355237001529E+00
(PID.TID 0000.0001) %MON forcing_fu_mean              =   1.1977050158000E-02
(PID.TID 0000.0001) %MON forcing_fu_sd                =   1.2527999408333E-01
(PID.TID 0000.0001) %MON forcing_fu_del2              =   1.6121374647944E-04
(PID.TID 0000.0001) %MON forcing_fv_max               =   9.5450887084007E-01
(PID.TID 0000.0001) %MON forcing_fv_min               =  -1.6230189023314E+00
(PID.TID 0000.0001) %MON forcing_fv_mean              =  -1.3479563716252E-03
(PID.TID 0000.0001) %MON forcing_fv_sd                =   1.0898230226544E-01
(PID.TID 0000.0001) %MON forcing_fv_del2              =   1.4984000437277E-04
(PID.TID 0000.0001) %MON trAdv_CFL_u_max              =   2.7298687505538E-02
(PID.TID 0000.0001) %MON trAdv_CFL_v_max              =   1.9893740734767E-02
(PID.TID 0000.0001) %MON trAdv_CFL_w_max              =   9.7598775339353E-02
(PID.TID 0000.0001) %MON advcfl_uvel_max              =   2.7663845478148E-02
(PID.TID 0000.0001) %MON advcfl_vvel_max              =   1.9575924744688E-02
(PID.TID 0000.0001) %MON advcfl_wvel_max              =   9.2203841317560E-02
(PID.TID 0000.0001) %MON advcfl_W_hf_max              =   9.7598775339353E-02
(PID.TID 0000.0001) %MON pe_b_mean                    =   2.4195121140137E-03
(PID.TID 0000.0001) %MON ke_max                       =   2.4757230683358E+00
(PID.TID 0000.0001) %MON ke_mean                      =   9.7003300458269E-04
(PID.TID 0000.0001) %MON ke_vol                       =   1.3350064351420E+18
(PID.TID 0000.0001) %MON vort_r_min                   =  -9.3085757766914E-05
(PID.TID 0000.0001) %MON vort_r_max                   =   1.0088957644706E-04
(PID.TID 0000.0001) %MON vort_a_mean                  =  -1.9725077146339E-05
(PID.TID 0000.0001) %MON vort_a_sd                    =   7.4539855160578E-05
(PID.TID 0000.0001) %MON vort_p_mean                  =  -2.1669082132714E-05
(PID.TID 0000.0001) %MON vort_p_sd                    =   9.3611503734944E-05
(PID.TID 0000.0001) %MON surfExpan_theta_mean         =   2.3464527559420E-05
(PID.TID 0000.0001) %MON surfExpan_salt_mean          =   2.0355270707258E-05
(PID.TID 0000.0001) // =======================================================
(PID.TID 0000.0001) // End MONITOR dynamic field statistics
(PID.TID 0000.0001) // =======================================================
(PID.TID 0000.0001) // =======================================================
(PID.TID 0000.0001) // Begin MONITOR SEAICE statistics
(PID.TID 0000.0001) // =======================================================
(PID.TID 0000.0001) %MON seaice_tsnumber              =                174814
(PID.TID 0000.0001) %MON seaice_time_sec              =   7.8666300000000E+07
(PID.TID 0000.0001) %MON seaice_uice_max              =   1.4001446000671E+00
(PID.TID 0000.0001) %MON seaice_uice_min              =  -1.2774328332784E+00
(PID.TID 0000.0001) %MON seaice_uice_mean             =   4.3049381855180E-03
(PID.TID 0000.0001) %MON seaice_uice_sd               =   1.5486575368863E-01
(PID.TID 0000.0001) %MON seaice_uice_del2             =   3.4704503035972E-04
(PID.TID 0000.0001) %MON seaice_vice_max              =   9.2005254448594E-01
(PID.TID 0000.0001) %MON seaice_vice_min              =  -1.4993607386093E+00
(PID.TID 0000.0001) %MON seaice_vice_mean             =  -2.3175893015700E-02
(PID.TID 0000.0001) %MON seaice_vice_sd               =   1.6717962450899E-01
(PID.TID 0000.0001) %MON seaice_vice_del2             =   3.2504806759787E-04
(PID.TID 0000.0001) %MON seaice_area_max              =   1.0032681884521E+00
(PID.TID 0000.0001) %MON seaice_area_min              =   0.0000000000000E+00
(PID.TID 0000.0001) %MON seaice_area_mean             =   5.7474723154871E-02
(PID.TID 0000.0001) %MON seaice_area_sd               =   2.2100421673743E-01
(PID.TID 0000.0001) %MON seaice_area_del2             =   2.8999127469466E-04
(PID.TID 0000.0001) %MON seaice_heff_max              =   9.9480736423561E+00
(PID.TID 0000.0001) %MON seaice_heff_min              =   0.0000000000000E+00
(PID.TID 0000.0001) %MON seaice_heff_mean             =   1.4960778064251E-01
(PID.TID 0000.0001) %MON seaice_heff_sd               =   7.2025191905871E-01
(PID.TID 0000.0001) %MON seaice_heff_del2             =   1.3730707934622E-03
(PID.TID 0000.0001) %MON seaice_hsnow_max             =   3.2858762876216E+00
(PID.TID 0000.0001) %MON seaice_hsnow_min             =   0.0000000000000E+00
(PID.TID 0000.0001) %MON seaice_hsnow_mean            =   1.2642031426224E-02
(PID.TID 0000.0001) %MON seaice_hsnow_sd              =   6.8204747953937E-02
(PID.TID 0000.0001) %MON seaice_hsnow_del2            =   3.7589155007361E-04
(PID.TID 0000.0001) // =======================================================
(PID.TID 0000.0001) // End MONITOR SEAICE statistics
(PID.TID 0000.0001) // =======================================================
(PID.TID 0000.0001) // =======================================================
(PID.TID 0000.0001) // Begin MONITOR dynamic field statistics
(PID.TID 0000.0001) // =======================================================
(PID.TID 0000.0001) %MON time_tsnumber                =                174815
(PID.TID 0000.0001) %MON time_secondsf                =   7.8666750000000E+07
(PID.TID 0000.0001) %MON dynstat_eta_max              =   2.6933901614485E+00
(PID.TID 0000.0001) %MON dynstat_eta_min              =  -1.0801213770722E+01
(PID.TID 0000.0001) %MON dynstat_eta_mean             =   8.6876367672893E-02
(PID.TID 0000.0001) %MON dynstat_eta_sd               =   8.9095747793100E-01
(PID.TID 0000.0001) %MON dynstat_eta_del2             =   2.0106732242757E-03
(PID.TID 0000.0001) %MON dynstat_uvel_max             =   2.2809869731977E+00
(PID.TID 0000.0001) %MON dynstat_uvel_min             =  -2.6405123235362E+00
(PID.TID 0000.0001) %MON dynstat_uvel_mean            =   3.5352609755148E-03
(PID.TID 0000.0001) %MON dynstat_uvel_sd              =   3.1280106862189E-02
(PID.TID 0000.0001) %MON dynstat_uvel_del2            =   3.7088447198159E-05
(PID.TID 0000.0001) %MON dynstat_vvel_max             =   1.8696336877428E+00
(PID.TID 0000.0001) %MON dynstat_vvel_min             =  -2.2289511259277E+00
(PID.TID 0000.0001) %MON dynstat_vvel_mean            =   3.1240988235185E-03
(PID.TID 0000.0001) %MON dynstat_vvel_sd              =   3.1946600346736E-02
(PID.TID 0000.0001) %MON dynstat_vvel_del2            =   3.5215659144174E-05
(PID.TID 0000.0001) %MON dynstat_wvel_max             =   7.7542322965792E-03
(PID.TID 0000.0001) %MON dynstat_wvel_min             =  -7.7225751173667E-03
(PID.TID 0000.0001) %MON dynstat_wvel_mean            =   5.8756105226886E-07
(PID.TID 0000.0001) %MON dynstat_wvel_sd              =   1.2214818103519E-04
(PID.TID 0000.0001) %MON dynstat_wvel_del2            =   2.8316951507034E-07
(PID.TID 0000.0001) %MON dynstat_theta_max            =   3.2442896388625E+01
(PID.TID 0000.0001) %MON dynstat_theta_min            =  -2.0423285762608E+00
(PID.TID 0000.0001) %MON dynstat_theta_mean           =   3.5920064520130E+00
(PID.TID 0000.0001) %MON dynstat_theta_sd             =   4.4419827636268E+00
(PID.TID 0000.0001) %MON dynstat_theta_del2           =   1.2531640222241E-04
(PID.TID 0000.0001) %MON dynstat_salt_max             =   4.0655990461965E+01
(PID.TID 0000.0001) %MON dynstat_salt_min             =   1.6016485883346E+01
(PID.TID 0000.0001) %MON dynstat_salt_mean            =   3.4724800615704E+01
(PID.TID 0000.0001) %MON dynstat_salt_sd              =   3.7973375850223E-01
(PID.TID 0000.0001) %MON dynstat_salt_del2            =   6.5502058030811E-05
(PID.TID 0000.0001) %MON dynstat_sst_max              =   3.2442896388625E+01
(PID.TID 0000.0001) %MON dynstat_sst_min              =  -2.0423285762608E+00
(PID.TID 0000.0001) %MON dynstat_sst_mean             =   1.8185908083128E+01
(PID.TID 0000.0001) %MON dynstat_sst_sd               =   1.0194243768935E+01
(PID.TID 0000.0001) %MON dynstat_sst_del2             =   1.1001867265314E-03
(PID.TID 0000.0001) %MON dynstat_sss_max              =   3.9464461524485E+01
(PID.TID 0000.0001) %MON dynstat_sss_min              =   1.6016485883346E+01
(PID.TID 0000.0001) %MON dynstat_sss_mean             =   3.4643364491095E+01
(PID.TID 0000.0001) %MON dynstat_sss_sd               =   1.2994001448447E+00
(PID.TID 0000.0001) %MON dynstat_sss_del2             =   1.4725985167430E-03
(PID.TID 0000.0001) %MON forcing_qnet_max             =   1.8393037109375E+03
(PID.TID 0000.0001) %MON forcing_qnet_min             =  -1.4104503173828E+03
(PID.TID 0000.0001) %MON forcing_qnet_mean            =   9.0187977623679E+00
(PID.TID 0000.0001) %MON forcing_qnet_sd              =   1.9051889058857E+02
(PID.TID 0000.0001) %MON forcing_qnet_del2            =   4.4158722583743E-01
(PID.TID 0000.0001) %MON forcing_qsw_max              =   0.0000000000000E+00
(PID.TID 0000.0001) %MON forcing_qsw_min              =  -1.1160376306677E+02
(PID.TID 0000.0001) %MON forcing_qsw_mean             =  -1.7963270717749E+01
(PID.TID 0000.0001) %MON forcing_qsw_sd               =   2.8405341003964E+01
(PID.TID 0000.0001) %MON forcing_qsw_del2             =   2.4393958055044E-02
(PID.TID 0000.0001) %MON forcing_empmr_max            =   1.6970865428448E-02
(PID.TID 0000.0001) %MON forcing_empmr_min            =  -3.7538666278124E-02
(PID.TID 0000.0001) %MON forcing_empmr_mean           =  -7.1278749357333E-08
(PID.TID 0000.0001) %MON forcing_empmr_sd             =   3.1961381567976E-04
(PID.TID 0000.0001) %MON forcing_empmr_del2           =   3.5057096699656E-06
(PID.TID 0000.0001) %MON forcing_fu_max               =   7.4044933915138E-01
(PID.TID 0000.0001) %MON forcing_fu_min               =  -1.1370494197625E+00
(PID.TID 0000.0001) %MON forcing_fu_mean              =   1.2010751036204E-02
(PID.TID 0000.0001) %MON forcing_fu_sd                =   1.2532556116664E-01
(PID.TID 0000.0001) %MON forcing_fu_del2              =   1.6108334241645E-04
(PID.TID 0000.0001) %MON forcing_fv_max               =   9.5360061526299E-01
(PID.TID 0000.0001) %MON forcing_fv_min               =  -1.5808658010858E+00
(PID.TID 0000.0001) %MON forcing_fv_mean              =  -1.3569391003770E-03
(PID.TID 0000.0001) %MON forcing_fv_sd                =   1.0905485307121E-01
(PID.TID 0000.0001) %MON forcing_fv_del2              =   1.4962411541688E-04
(PID.TID 0000.0001) %MON trAdv_CFL_u_max              =   2.7235984029576E-02
(PID.TID 0000.0001) %MON trAdv_CFL_v_max              =   1.9810996461208E-02
(PID.TID 0000.0001) %MON trAdv_CFL_w_max              =   9.7023262156556E-02
(PID.TID 0000.0001) %MON advcfl_uvel_max              =   2.7600303255848E-02
(PID.TID 0000.0001) %MON advcfl_vvel_max              =   1.9494502366974E-02
(PID.TID 0000.0001) %MON advcfl_wvel_max              =   9.1644851488564E-02
(PID.TID 0000.0001) %MON advcfl_W_hf_max              =   9.7023262156556E-02
(PID.TID 0000.0001) %MON pe_b_mean                    =   2.4285129161088E-03
(PID.TID 0000.0001) %MON ke_max                       =   2.4630299254110E+00
(PID.TID 0000.0001) %MON ke_mean                      =   9.7464970064592E-04
(PID.TID 0000.0001) %MON ke_vol                       =   1.3350064351420E+18
(PID.TID 0000.0001) %MON vort_r_min                   =  -9.2904805389162E-05
(PID.TID 0000.0001) %MON vort_r_max                   =   1.0062172020768E-04
(PID.TID 0000.0001) %MON vort_a_mean                  =  -1.9725077147413E-05
(PID.TID 0000.0001) %MON vort_a_sd                    =   7.4539877930582E-05
(PID.TID 0000.0001) %MON vort_p_mean                  =  -2.1669082133894E-05
(PID.TID 0000.0001) %MON vort_p_sd                    =   9.3611633494713E-05
(PID.TID 0000.0001) %MON surfExpan_theta_mean         =   2.3358184091599E-05
(PID.TID 0000.0001) %MON surfExpan_salt_mean          =   1.9725737361643E-05
(PID.TID 0000.0001) // =======================================================
(PID.TID 0000.0001) // End MONITOR dynamic field statistics
(PID.TID 0000.0001) // =======================================================
(PID.TID 0000.0001) // =======================================================
(PID.TID 0000.0001) // Begin MONITOR SEAICE statistics
(PID.TID 0000.0001) // =======================================================
(PID.TID 0000.0001) %MON seaice_tsnumber              =                174815
(PID.TID 0000.0001) %MON seaice_time_sec              =   7.8666750000000E+07
(PID.TID 0000.0001) %MON seaice_uice_max              =   1.3915449288079E+00
(PID.TID 0000.0001) %MON seaice_uice_min              =  -1.2758621440350E+00
(PID.TID 0000.0001) %MON seaice_uice_mean             =   4.3505480874736E-03
(PID.TID 0000.0001) %MON seaice_uice_sd               =   1.5483105710967E-01
(PID.TID 0000.0001) %MON seaice_uice_del2             =   3.4718677408875E-04
(PID.TID 0000.0001) %MON seaice_vice_max              =   9.1989287291356E-01
(PID.TID 0000.0001) %MON seaice_vice_min              =  -1.5002822469275E+00
(PID.TID 0000.0001) %MON seaice_vice_mean             =  -2.3094864775132E-02
(PID.TID 0000.0001) %MON seaice_vice_sd               =   1.6702083675649E-01
(PID.TID 0000.0001) %MON seaice_vice_del2             =   3.2503183323534E-04
(PID.TID 0000.0001) %MON seaice_area_max              =   1.0032529614698E+00
(PID.TID 0000.0001) %MON seaice_area_min              =   0.0000000000000E+00
(PID.TID 0000.0001) %MON seaice_area_mean             =   5.7476086527323E-02
(PID.TID 0000.0001) %MON seaice_area_sd               =   2.2099951065243E-01
(PID.TID 0000.0001) %MON seaice_area_del2             =   2.8992362462856E-04
(PID.TID 0000.0001) %MON seaice_heff_max              =   9.9480612642548E+00
(PID.TID 0000.0001) %MON seaice_heff_min              =   0.0000000000000E+00
(PID.TID 0000.0001) %MON seaice_heff_mean             =   1.4960377522322E-01
(PID.TID 0000.0001) %MON seaice_heff_sd               =   7.2024072521573E-01
(PID.TID 0000.0001) %MON seaice_heff_del2             =   1.3724863774057E-03
(PID.TID 0000.0001) %MON seaice_hsnow_max             =   3.2858719313838E+00
(PID.TID 0000.0001) %MON seaice_hsnow_min             =   0.0000000000000E+00
(PID.TID 0000.0001) %MON seaice_hsnow_mean            =   1.2641329656586E-02
(PID.TID 0000.0001) %MON seaice_hsnow_sd              =   6.8197026586119E-02
(PID.TID 0000.0001) %MON seaice_hsnow_del2            =   3.7563117121422E-04
(PID.TID 0000.0001) // =======================================================
(PID.TID 0000.0001) // End MONITOR SEAICE statistics
(PID.TID 0000.0001) // =======================================================
(PID.TID 0000.0001) // =======================================================
(PID.TID 0000.0001) // Begin MONITOR dynamic field statistics
(PID.TID 0000.0001) // =======================================================
(PID.TID 0000.0001) %MON time_tsnumber                =                174816
(PID.TID 0000.0001) %MON time_secondsf                =   7.8667200000000E+07
(PID.TID 0000.0001) %MON dynstat_eta_max              =   2.6324601494230E+00
(PID.TID 0000.0001) %MON dynstat_eta_min              =  -1.0751402629531E+01
(PID.TID 0000.0001) %MON dynstat_eta_mean             =   8.7099220809017E-02
(PID.TID 0000.0001) %MON dynstat_eta_sd               =   8.9222934798880E-01
(PID.TID 0000.0001) %MON dynstat_eta_del2             =   2.0107778313203E-03
(PID.TID 0000.0001) %MON dynstat_uvel_max             =   2.2735752880894E+00
(PID.TID 0000.0001) %MON dynstat_uvel_min             =  -2.6344477300876E+00
(PID.TID 0000.0001) %MON dynstat_uvel_mean            =   3.5306177910399E-03
(PID.TID 0000.0001) %MON dynstat_uvel_sd              =   3.1381062707061E-02
(PID.TID 0000.0001) %MON dynstat_uvel_del2            =   3.7131786522064E-05
(PID.TID 0000.0001) %MON dynstat_vvel_max             =   1.8728506257830E+00
(PID.TID 0000.0001) %MON dynstat_vvel_min             =  -2.2248371298692E+00
(PID.TID 0000.0001) %MON dynstat_vvel_mean            =   3.1603164181342E-03
(PID.TID 0000.0001) %MON dynstat_vvel_sd              =   3.2000622108030E-02
(PID.TID 0000.0001) %MON dynstat_vvel_del2            =   3.5268948390641E-05
(PID.TID 0000.0001) %MON dynstat_wvel_max             =   7.7771756291474E-03
(PID.TID 0000.0001) %MON dynstat_wvel_min             =  -7.7190596066550E-03
(PID.TID 0000.0001) %MON dynstat_wvel_mean            =   5.7859738876852E-07
(PID.TID 0000.0001) %MON dynstat_wvel_sd              =   1.2274735101578E-04
(PID.TID 0000.0001) %MON dynstat_wvel_del2            =   2.8416263047324E-07
(PID.TID 0000.0001) %MON dynstat_theta_max            =   3.2444027341623E+01
(PID.TID 0000.0001) %MON dynstat_theta_min            =  -2.0424347521545E+00
(PID.TID 0000.0001) %MON dynstat_theta_mean           =   3.5920035432496E+00
(PID.TID 0000.0001) %MON dynstat_theta_sd             =   4.4419792250335E+00
(PID.TID 0000.0001) %MON dynstat_theta_del2           =   1.2535233750516E-04
(PID.TID 0000.0001) %MON dynstat_salt_max             =   4.0655990415926E+01
(PID.TID 0000.0001) %MON dynstat_salt_min             =   1.6014938384237E+01
(PID.TID 0000.0001) %MON dynstat_salt_mean            =   3.4724800306571E+01
(PID.TID 0000.0001) %MON dynstat_salt_sd              =   3.7973478543188E-01
(PID.TID 0000.0001) %MON dynstat_salt_del2            =   6.5458576216885E-05
(PID.TID 0000.0001) %MON dynstat_sst_max              =   3.2444027341623E+01
(PID.TID 0000.0001) %MON dynstat_sst_min              =  -2.0424347521545E+00
(PID.TID 0000.0001) %MON dynstat_sst_mean             =   1.8185651772555E+01
(PID.TID 0000.0001) %MON dynstat_sst_sd               =   1.0194484772981E+01
(PID.TID 0000.0001) %MON dynstat_sst_del2             =   1.0999908167931E-03
(PID.TID 0000.0001) %MON dynstat_sss_max              =   3.9464475008526E+01
(PID.TID 0000.0001) %MON dynstat_sss_min              =   1.6014938384237E+01
(PID.TID 0000.0001) %MON dynstat_sss_mean             =   3.4643321852156E+01
(PID.TID 0000.0001) %MON dynstat_sss_sd               =   1.2994736541420E+00
(PID.TID 0000.0001) %MON dynstat_sss_del2             =   1.4724586445252E-03
(PID.TID 0000.0001) %MON forcing_qnet_max             =   1.8730960693359E+03
(PID.TID 0000.0001) %MON forcing_qnet_min             =  -3.9405725097656E+03
(PID.TID 0000.0001) %MON forcing_qnet_mean            =   9.2971374545338E+00
(PID.TID 0000.0001) %MON forcing_qnet_sd              =   1.9204432500890E+02
(PID.TID 0000.0001) %MON forcing_qnet_del2            =   5.1221993628447E-01
(PID.TID 0000.0001) %MON forcing_qsw_max              =   0.0000000000000E+00
(PID.TID 0000.0001) %MON forcing_qsw_min              =  -1.1167320481991E+02
(PID.TID 0000.0001) %MON forcing_qsw_mean             =  -1.7870184529001E+01
(PID.TID 0000.0001) %MON forcing_qsw_sd               =   2.8425047047579E+01
(PID.TID 0000.0001) %MON forcing_qsw_del2             =   2.4283052239715E-02
(PID.TID 0000.0001) %MON forcing_empmr_max            =   1.7205420881510E-02
(PID.TID 0000.0001) %MON forcing_empmr_min            =  -3.5947769880295E-02
(PID.TID 0000.0001) %MON forcing_empmr_mean           =  -7.4168481353928E-08
(PID.TID 0000.0001) %MON forcing_empmr_sd             =   3.1772244861115E-04
(PID.TID 0000.0001) %MON forcing_empmr_del2           =   3.4065385204981E-06
(PID.TID 0000.0001) %MON forcing_fu_max               =   7.1704968810082E-01
(PID.TID 0000.0001) %MON forcing_fu_min               =  -1.1405612128353E+00
(PID.TID 0000.0001) %MON forcing_fu_mean              =   1.2032995376298E-02
(PID.TID 0000.0001) %MON forcing_fu_sd                =   1.2538384711033E-01
(PID.TID 0000.0001) %MON forcing_fu_del2              =   1.6121491355476E-04
(PID.TID 0000.0001) %MON forcing_fv_max               =   9.5276951789856E-01
(PID.TID 0000.0001) %MON forcing_fv_min               =  -1.5350469202645E+00
(PID.TID 0000.0001) %MON forcing_fv_mean              =  -1.3671496669735E-03
(PID.TID 0000.0001) %MON forcing_fv_sd                =   1.0913318113153E-01
(PID.TID 0000.0001) %MON forcing_fv_del2              =   1.4945421858971E-04
(PID.TID 0000.0001) %MON trAdv_CFL_u_max              =   2.7173429816578E-02
(PID.TID 0000.0001) %MON trAdv_CFL_v_max              =   1.9728306379728E-02
(PID.TID 0000.0001) %MON trAdv_CFL_w_max              =   9.6420684287930E-02
(PID.TID 0000.0001) %MON advcfl_uvel_max              =   2.7536912293112E-02
(PID.TID 0000.0001) %MON advcfl_vvel_max              =   1.9413133315584E-02
(PID.TID 0000.0001) %MON advcfl_wvel_max              =   9.1058985097184E-02
(PID.TID 0000.0001) %MON advcfl_W_hf_max              =   9.6420684287930E-02
(PID.TID 0000.0001) %MON pe_b_mean                    =   2.4372817118499E-03
(PID.TID 0000.0001) %MON ke_max                       =   2.4504116111784E+00
(PID.TID 0000.0001) %MON ke_mean                      =   9.7945951616856E-04
(PID.TID 0000.0001) %MON ke_vol                       =   1.3350064351420E+18
(PID.TID 0000.0001) %MON vort_r_min                   =  -9.2725130998433E-05
(PID.TID 0000.0001) %MON vort_r_max                   =   1.0035480601415E-04
(PID.TID 0000.0001) %MON vort_a_mean                  =  -1.9725077159444E-05
(PID.TID 0000.0001) %MON vort_a_sd                    =   7.4539901534514E-05
(PID.TID 0000.0001) %MON vort_p_mean                  =  -2.1669082147111E-05
(PID.TID 0000.0001) %MON vort_p_sd                    =   9.3611766388545E-05
(PID.TID 0000.0001) %MON surfExpan_theta_mean         =   2.3278506615828E-05
(PID.TID 0000.0001) %MON surfExpan_salt_mean          =   1.9094658978185E-05
(PID.TID 0000.0001) // =======================================================
(PID.TID 0000.0001) // End MONITOR dynamic field statistics
(PID.TID 0000.0001) // =======================================================
(PID.TID 0000.0001) // =======================================================
(PID.TID 0000.0001) // Begin MONITOR SEAICE statistics
(PID.TID 0000.0001) // =======================================================
(PID.TID 0000.0001) %MON seaice_tsnumber              =                174816
(PID.TID 0000.0001) %MON seaice_time_sec              =   7.8667200000000E+07
(PID.TID 0000.0001) %MON seaice_uice_max              =   1.3827970912545E+00
(PID.TID 0000.0001) %MON seaice_uice_min              =  -1.2733529266967E+00
(PID.TID 0000.0001) %MON seaice_uice_mean             =   4.3993751630661E-03
(PID.TID 0000.0001) %MON seaice_uice_sd               =   1.5478829950976E-01
(PID.TID 0000.0001) %MON seaice_uice_del2             =   3.4722325351879E-04
(PID.TID 0000.0001) %MON seaice_vice_max              =   9.1986018239648E-01
(PID.TID 0000.0001) %MON seaice_vice_min              =  -1.4998930865822E+00
(PID.TID 0000.0001) %MON seaice_vice_mean             =  -2.2975446964958E-02
(PID.TID 0000.0001) %MON seaice_vice_sd               =   1.6677330634010E-01
(PID.TID 0000.0001) %MON seaice_vice_del2             =   3.2506142396406E-04
(PID.TID 0000.0001) %MON seaice_area_max              =   1.0033166023853E+00
(PID.TID 0000.0001) %MON seaice_area_min              =   0.0000000000000E+00
(PID.TID 0000.0001) %MON seaice_area_mean             =   5.7477452292355E-02
(PID.TID 0000.0001) %MON seaice_area_sd               =   2.2099487059354E-01
(PID.TID 0000.0001) %MON seaice_area_del2             =   2.8985802469657E-04
(PID.TID 0000.0001) %MON seaice_heff_max              =   9.9480488865487E+00
(PID.TID 0000.0001) %MON seaice_heff_min              =   0.0000000000000E+00
(PID.TID 0000.0001) %MON seaice_heff_mean             =   1.4959976573223E-01
(PID.TID 0000.0001) %MON seaice_heff_sd               =   7.2022950421310E-01
(PID.TID 0000.0001) %MON seaice_heff_del2             =   1.3719074329985E-03
(PID.TID 0000.0001) %MON seaice_hsnow_max             =   3.2858675751180E+00
(PID.TID 0000.0001) %MON seaice_hsnow_min             =   0.0000000000000E+00
(PID.TID 0000.0001) %MON seaice_hsnow_mean            =   1.2640626836302E-02
(PID.TID 0000.0001) %MON seaice_hsnow_sd              =   6.8189318356120E-02
(PID.TID 0000.0001) %MON seaice_hsnow_del2            =   3.7537278506048E-04
(PID.TID 0000.0001) // =======================================================
(PID.TID 0000.0001) // End MONITOR SEAICE statistics
(PID.TID 0000.0001) // =======================================================
(PID.TID 0000.0001) // =======================================================
(PID.TID 0000.0001) // Begin MONITOR dynamic field statistics
(PID.TID 0000.0001) // =======================================================
(PID.TID 0000.0001) %MON time_tsnumber                =                174817
(PID.TID 0000.0001) %MON time_secondsf                =   7.8667650000000E+07
(PID.TID 0000.0001) %MON dynstat_eta_max              =   2.5621805637939E+00
(PID.TID 0000.0001) %MON dynstat_eta_min              =  -1.0697431052122E+01
(PID.TID 0000.0001) %MON dynstat_eta_mean             =   8.7313908635891E-02
(PID.TID 0000.0001) %MON dynstat_eta_sd               =   8.9349241557147E-01
(PID.TID 0000.0001) %MON dynstat_eta_del2             =   2.0108753626667E-03
(PID.TID 0000.0001) %MON dynstat_uvel_max             =   2.2658229313934E+00
(PID.TID 0000.0001) %MON dynstat_uvel_min             =  -2.6284034925897E+00
(PID.TID 0000.0001) %MON dynstat_uvel_mean            =   3.5302199735735E-03
(PID.TID 0000.0001) %MON dynstat_uvel_sd              =   3.1484993859317E-02
(PID.TID 0000.0001) %MON dynstat_uvel_del2            =   3.7176232646131E-05
(PID.TID 0000.0001) %MON dynstat_vvel_max             =   1.8757039512501E+00
(PID.TID 0000.0001) %MON dynstat_vvel_min             =  -2.2205217273466E+00
(PID.TID 0000.0001) %MON dynstat_vvel_mean            =   3.1969974515768E-03
(PID.TID 0000.0001) %MON dynstat_vvel_sd              =   3.2055698804755E-02
(PID.TID 0000.0001) %MON dynstat_vvel_del2            =   3.5323637928404E-05
(PID.TID 0000.0001) %MON dynstat_wvel_max             =   7.8000497813126E-03
(PID.TID 0000.0001) %MON dynstat_wvel_min             =  -7.7155553709221E-03
(PID.TID 0000.0001) %MON dynstat_wvel_mean            =   5.6986350177519E-07
(PID.TID 0000.0001) %MON dynstat_wvel_sd              =   1.2335206338128E-04
(PID.TID 0000.0001) %MON dynstat_wvel_del2            =   2.8516271872031E-07
(PID.TID 0000.0001) %MON dynstat_theta_max            =   3.2445148167437E+01
(PID.TID 0000.0001) %MON dynstat_theta_min            =  -2.0425357402366E+00
(PID.TID 0000.0001) %MON dynstat_theta_mean           =   3.5920005843827E+00
(PID.TID 0000.0001) %MON dynstat_theta_sd             =   4.4419754077552E+00
(PID.TID 0000.0001) %MON dynstat_theta_del2           =   1.2539299225444E-04
(PID.TID 0000.0001) %MON dynstat_salt_max             =   4.0655990370545E+01
(PID.TID 0000.0001) %MON dynstat_salt_min             =   1.6013411818259E+01
(PID.TID 0000.0001) %MON dynstat_salt_mean            =   3.4724799994925E+01
(PID.TID 0000.0001) %MON dynstat_salt_sd              =   3.7973576983284E-01
(PID.TID 0000.0001) %MON dynstat_salt_del2            =   6.5417149755382E-05
(PID.TID 0000.0001) %MON dynstat_sst_max              =   3.2445148167437E+01
(PID.TID 0000.0001) %MON dynstat_sst_min              =  -2.0425357402366E+00
(PID.TID 0000.0001) %MON dynstat_sst_mean             =   1.8185343335572E+01
(PID.TID 0000.0001) %MON dynstat_sst_sd               =   1.0194684656694E+01
(PID.TID 0000.0001) %MON dynstat_sst_del2             =   1.1002182354673E-03
(PID.TID 0000.0001) %MON dynstat_sss_max              =   3.9464488608472E+01
(PID.TID 0000.0001) %MON dynstat_sss_min              =   1.6013411818259E+01
(PID.TID 0000.0001) %MON dynstat_sss_mean             =   3.4643277208964E+01
(PID.TID 0000.0001) %MON dynstat_sss_sd               =   1.2995487850245E+00
(PID.TID 0000.0001) %MON dynstat_sss_del2             =   1.4724121550735E-03
(PID.TID 0000.0001) %MON forcing_qnet_max             =   1.9206898193359E+03
(PID.TID 0000.0001) %MON forcing_qnet_min             =  -1.3075861660808E+03
(PID.TID 0000.0001) %MON forcing_qnet_mean            =   1.1340884001561E+01
(PID.TID 0000.0001) %MON forcing_qnet_sd              =   1.9065936867799E+02
(PID.TID 0000.0001) %MON forcing_qnet_del2            =   4.3318699161584E-01
(PID.TID 0000.0001) %MON forcing_qsw_max              =   0.0000000000000E+00
(PID.TID 0000.0001) %MON forcing_qsw_min              =  -1.1173421318476E+02
(PID.TID 0000.0001) %MON forcing_qsw_mean             =  -1.7764891925025E+01
(PID.TID 0000.0001) %MON forcing_qsw_sd               =   2.8439088118770E+01
(PID.TID 0000.0001) %MON forcing_qsw_del2             =   2.4158415666720E-02
(PID.TID 0000.0001) %MON forcing_empmr_max            =   1.7651367932558E-02
(PID.TID 0000.0001) %MON forcing_empmr_min            =  -3.5826791077852E-02
(PID.TID 0000.0001) %MON forcing_empmr_mean           =  -2.4324445035368E-07
(PID.TID 0000.0001) %MON forcing_empmr_sd             =   3.2012545515900E-04
(PID.TID 0000.0001) %MON forcing_empmr_del2           =   3.4095271668658E-06
(PID.TID 0000.0001) %MON forcing_fu_max               =   7.4243751168251E-01
(PID.TID 0000.0001) %MON forcing_fu_min               =  -1.1433415929078E+00
(PID.TID 0000.0001) %MON forcing_fu_mean              =   1.2063858565574E-02
(PID.TID 0000.0001) %MON forcing_fu_sd                =   1.2540086321421E-01
(PID.TID 0000.0001) %MON forcing_fu_del2              =   1.6107586224244E-04
(PID.TID 0000.0001) %MON forcing_fv_max               =   9.5090627670288E-01
(PID.TID 0000.0001) %MON forcing_fv_min               =  -1.4853391062889E+00
(PID.TID 0000.0001) %MON forcing_fv_mean              =  -1.3693220830677E-03
(PID.TID 0000.0001) %MON forcing_fv_sd                =   1.0921137687191E-01
(PID.TID 0000.0001) %MON forcing_fv_del2              =   1.4923011226048E-04
(PID.TID 0000.0001) %MON trAdv_CFL_u_max              =   2.7111085568268E-02
(PID.TID 0000.0001) %MON trAdv_CFL_v_max              =   1.9645486452750E-02
(PID.TID 0000.0001) %MON trAdv_CFL_w_max              =   9.5792132579659E-02
(PID.TID 0000.0001) %MON advcfl_uvel_max              =   2.7473734103636E-02
(PID.TID 0000.0001) %MON advcfl_vvel_max              =   1.9331636493067E-02
(PID.TID 0000.0001) %MON advcfl_wvel_max              =   9.0447251687511E-02
(PID.TID 0000.0001) %MON advcfl_W_hf_max              =   9.5792132579659E-02
(PID.TID 0000.0001) %MON pe_b_mean                    =   2.4458167924819E-03
(PID.TID 0000.0001) %MON ke_max                       =   2.4378704839899E+00
(PID.TID 0000.0001) %MON ke_mean                      =   9.8442206982274E-04
(PID.TID 0000.0001) %MON ke_vol                       =   1.3350064351420E+18
(PID.TID 0000.0001) %MON vort_r_min                   =  -9.2546266866490E-05
(PID.TID 0000.0001) %MON vort_r_max                   =   1.0008883394387E-04
(PID.TID 0000.0001) %MON vort_a_mean                  =  -1.9725077182654E-05
(PID.TID 0000.0001) %MON vort_a_sd                    =   7.4539925964083E-05
(PID.TID 0000.0001) %MON vort_p_mean                  =  -2.1669082172608E-05
(PID.TID 0000.0001) %MON vort_p_sd                    =   9.3611902384176E-05
(PID.TID 0000.0001) %MON surfExpan_theta_mean         =   2.3219268009441E-05
(PID.TID 0000.0001) %MON surfExpan_salt_mean          =   1.8473460275529E-05
(PID.TID 0000.0001) // =======================================================
(PID.TID 0000.0001) // End MONITOR dynamic field statistics
(PID.TID 0000.0001) // =======================================================
(PID.TID 0000.0001) // =======================================================
(PID.TID 0000.0001) // Begin MONITOR SEAICE statistics
(PID.TID 0000.0001) // =======================================================
(PID.TID 0000.0001) %MON seaice_tsnumber              =                174817
(PID.TID 0000.0001) %MON seaice_time_sec              =   7.8667650000000E+07
(PID.TID 0000.0001) %MON seaice_uice_max              =   1.3739027458412E+00
(PID.TID 0000.0001) %MON seaice_uice_min              =  -1.2699564759822E+00
(PID.TID 0000.0001) %MON seaice_uice_mean             =   4.4486811270994E-03
(PID.TID 0000.0001) %MON seaice_uice_sd               =   1.5474429622886E-01
(PID.TID 0000.0001) %MON seaice_uice_del2             =   3.4724453563564E-04
(PID.TID 0000.0001) %MON seaice_vice_max              =   9.1998051482187E-01
(PID.TID 0000.0001) %MON seaice_vice_min              =  -1.5004199210728E+00
(PID.TID 0000.0001) %MON seaice_vice_mean             =  -2.2881797035043E-02
(PID.TID 0000.0001) %MON seaice_vice_sd               =   1.6661132831866E-01
(PID.TID 0000.0001) %MON seaice_vice_del2             =   3.2508943479051E-04
(PID.TID 0000.0001) %MON seaice_area_max              =   1.0033839227481E+00
(PID.TID 0000.0001) %MON seaice_area_min              =   0.0000000000000E+00
(PID.TID 0000.0001) %MON seaice_area_mean             =   5.7478820366177E-02
(PID.TID 0000.0001) %MON seaice_area_sd               =   2.2099028233606E-01
(PID.TID 0000.0001) %MON seaice_area_del2             =   2.8979392809966E-04
(PID.TID 0000.0001) %MON seaice_heff_max              =   9.9480365077670E+00
(PID.TID 0000.0001) %MON seaice_heff_min              =   0.0000000000000E+00
(PID.TID 0000.0001) %MON seaice_heff_mean             =   1.4959575229909E-01
(PID.TID 0000.0001) %MON seaice_heff_sd               =   7.2021824357369E-01
(PID.TID 0000.0001) %MON seaice_heff_del2             =   1.3713335614649E-03
(PID.TID 0000.0001) %MON seaice_hsnow_max             =   3.2858632186375E+00
(PID.TID 0000.0001) %MON seaice_hsnow_min             =   0.0000000000000E+00
(PID.TID 0000.0001) %MON seaice_hsnow_mean            =   1.2639921506735E-02
(PID.TID 0000.0001) %MON seaice_hsnow_sd              =   6.8181552303421E-02
(PID.TID 0000.0001) %MON seaice_hsnow_del2            =   3.7511659223943E-04
(PID.TID 0000.0001) // =======================================================
(PID.TID 0000.0001) // End MONITOR SEAICE statistics
(PID.TID 0000.0001) // =======================================================
(PID.TID 0000.0001) // =======================================================
(PID.TID 0000.0001) // Begin MONITOR dynamic field statistics
(PID.TID 0000.0001) // =======================================================
(PID.TID 0000.0001) %MON time_tsnumber                =                174818
(PID.TID 0000.0001) %MON time_secondsf                =   7.8668100000000E+07
(PID.TID 0000.0001) %MON dynstat_eta_max              =   2.4828879391201E+00
(PID.TID 0000.0001) %MON dynstat_eta_min              =  -1.0639976446055E+01
(PID.TID 0000.0001) %MON dynstat_eta_mean             =   8.7520599604640E-02
(PID.TID 0000.0001) %MON dynstat_eta_sd               =   8.9474416948337E-01
(PID.TID 0000.0001) %MON dynstat_eta_del2             =   2.0109618135514E-03
(PID.TID 0000.0001) %MON dynstat_uvel_max             =   2.2577470792374E+00
(PID.TID 0000.0001) %MON dynstat_uvel_min             =  -2.6223617380734E+00
(PID.TID 0000.0001) %MON dynstat_uvel_mean            =   3.5342458437703E-03
(PID.TID 0000.0001) %MON dynstat_uvel_sd              =   3.1591971190120E-02
(PID.TID 0000.0001) %MON dynstat_uvel_del2            =   3.7221567443353E-05
(PID.TID 0000.0001) %MON dynstat_vvel_max             =   1.8773279767855E+00
(PID.TID 0000.0001) %MON dynstat_vvel_min             =  -2.2160158559712E+00
(PID.TID 0000.0001) %MON dynstat_vvel_mean            =   3.2340100023031E-03
(PID.TID 0000.0001) %MON dynstat_vvel_sd              =   3.2113533285323E-02
(PID.TID 0000.0001) %MON dynstat_vvel_del2            =   3.5379223462932E-05
(PID.TID 0000.0001) %MON dynstat_wvel_max             =   7.8228357141179E-03
(PID.TID 0000.0001) %MON dynstat_wvel_min             =  -7.7120826153828E-03
(PID.TID 0000.0001) %MON dynstat_wvel_mean            =   5.6172791793065E-07
(PID.TID 0000.0001) %MON dynstat_wvel_sd              =   1.2396252322052E-04
(PID.TID 0000.0001) %MON dynstat_wvel_del2            =   2.8617051681005E-07
(PID.TID 0000.0001) %MON dynstat_theta_max            =   3.2446244359022E+01
(PID.TID 0000.0001) %MON dynstat_theta_min            =  -2.0426327098480E+00
(PID.TID 0000.0001) %MON dynstat_theta_mean           =   3.5919976236757E+00
(PID.TID 0000.0001) %MON dynstat_theta_sd             =   4.4419715628588E+00
(PID.TID 0000.0001) %MON dynstat_theta_del2           =   1.2542920180000E-04
(PID.TID 0000.0001) %MON dynstat_salt_max             =   4.0655990325875E+01
(PID.TID 0000.0001) %MON dynstat_salt_min             =   1.6011907266545E+01
(PID.TID 0000.0001) %MON dynstat_salt_mean            =   3.4724799686738E+01
(PID.TID 0000.0001) %MON dynstat_salt_sd              =   3.7973668364598E-01
(PID.TID 0000.0001) %MON dynstat_salt_del2            =   6.5374970520748E-05
(PID.TID 0000.0001) %MON dynstat_sst_max              =   3.2446244359022E+01
(PID.TID 0000.0001) %MON dynstat_sst_min              =  -2.0426327098480E+00
(PID.TID 0000.0001) %MON dynstat_sst_mean             =   1.8185082331465E+01
(PID.TID 0000.0001) %MON dynstat_sst_sd               =   1.0194918283875E+01
(PID.TID 0000.0001) %MON dynstat_sst_del2             =   1.1000118700671E-03
(PID.TID 0000.0001) %MON dynstat_sss_max              =   3.9464496077302E+01
(PID.TID 0000.0001) %MON dynstat_sss_min              =   1.6011907266545E+01
(PID.TID 0000.0001) %MON dynstat_sss_mean             =   3.4643235837260E+01
(PID.TID 0000.0001) %MON dynstat_sss_sd               =   1.2996207927689E+00
(PID.TID 0000.0001) %MON dynstat_sss_del2             =   1.4722883522081E-03
(PID.TID 0000.0001) %MON forcing_qnet_max             =   2.1899560162668E+03
(PID.TID 0000.0001) %MON forcing_qnet_min             =  -4.1777031250000E+03
(PID.TID 0000.0001) %MON forcing_qnet_mean            =   1.1738277861037E+01
(PID.TID 0000.0001) %MON forcing_qnet_sd              =   1.9243593621704E+02
(PID.TID 0000.0001) %MON forcing_qnet_del2            =   5.0862963118387E-01
(PID.TID 0000.0001) %MON forcing_qsw_max              =   0.0000000000000E+00
(PID.TID 0000.0001) %MON forcing_qsw_min              =  -1.1176284975239E+02
(PID.TID 0000.0001) %MON forcing_qsw_mean             =  -1.7647635705565E+01
(PID.TID 0000.0001) %MON forcing_qsw_sd               =   2.8447099012794E+01
(PID.TID 0000.0001) %MON forcing_qsw_del2             =   2.4020258143835E-02
(PID.TID 0000.0001) %MON forcing_empmr_max            =   2.2488348186016E-02
(PID.TID 0000.0001) %MON forcing_empmr_min            =  -3.6764923483133E-02
(PID.TID 0000.0001) %MON forcing_empmr_mean           =   3.0217251704545E-08
(PID.TID 0000.0001) %MON forcing_empmr_sd             =   3.3346742806067E-04
(PID.TID 0000.0001) %MON forcing_empmr_del2           =   3.5078177533064E-06
(PID.TID 0000.0001) %MON forcing_fu_max               =   7.4321398139000E-01
(PID.TID 0000.0001) %MON forcing_fu_min               =  -1.1452412759208E+00
(PID.TID 0000.0001) %MON forcing_fu_mean              =   1.2087137671185E-02
(PID.TID 0000.0001) %MON forcing_fu_sd                =   1.2541783268478E-01
(PID.TID 0000.0001) %MON forcing_fu_del2              =   1.6099450744745E-04
(PID.TID 0000.0001) %MON forcing_fv_max               =   9.4932198524475E-01
(PID.TID 0000.0001) %MON forcing_fv_min               =  -1.4312180780832E+00
(PID.TID 0000.0001) %MON forcing_fv_mean              =  -1.3794356463263E-03
(PID.TID 0000.0001) %MON forcing_fv_sd                =   1.0927565576861E-01
(PID.TID 0000.0001) %MON forcing_fv_del2              =   1.4903855945820E-04
(PID.TID 0000.0001) %MON trAdv_CFL_u_max              =   2.7048766931067E-02
(PID.TID 0000.0001) %MON trAdv_CFL_v_max              =   1.9562500997674E-02
(PID.TID 0000.0001) %MON trAdv_CFL_w_max              =   9.5143393318198E-02
(PID.TID 0000.0001) %MON advcfl_uvel_max              =   2.7410581867851E-02
(PID.TID 0000.0001) %MON advcfl_vvel_max              =   1.9249976786874E-02
(PID.TID 0000.0001) %MON advcfl_wvel_max              =   8.9815619368100E-02
(PID.TID 0000.0001) %MON advcfl_W_hf_max              =   9.5143393318198E-02
(PID.TID 0000.0001) %MON pe_b_mean                    =   2.4541139221769E-03
(PID.TID 0000.0001) %MON ke_max                       =   2.4253759783028E+00
(PID.TID 0000.0001) %MON ke_mean                      =   9.8959356722994E-04
(PID.TID 0000.0001) %MON ke_vol                       =   1.3350064351420E+18
(PID.TID 0000.0001) %MON vort_r_min                   =  -9.2367530858717E-05
(PID.TID 0000.0001) %MON vort_r_max                   =   9.9823201550580E-05
(PID.TID 0000.0001) %MON vort_a_mean                  =  -1.9725077218002E-05
(PID.TID 0000.0001) %MON vort_a_sd                    =   7.4539951209861E-05
(PID.TID 0000.0001) %MON vort_p_mean                  =  -2.1669082211441E-05
(PID.TID 0000.0001) %MON vort_p_sd                    =   9.3612041048529E-05
(PID.TID 0000.0001) %MON surfExpan_theta_mean         =   2.3169335807602E-05
(PID.TID 0000.0001) %MON surfExpan_salt_mean          =   1.7879127312413E-05
(PID.TID 0000.0001) // =======================================================
(PID.TID 0000.0001) // End MONITOR dynamic field statistics
(PID.TID 0000.0001) // =======================================================
(PID.TID 0000.0001) // =======================================================
(PID.TID 0000.0001) // Begin MONITOR SEAICE statistics
(PID.TID 0000.0001) // =======================================================
(PID.TID 0000.0001) %MON seaice_tsnumber              =                174818
(PID.TID 0000.0001) %MON seaice_time_sec              =   7.8668100000000E+07
(PID.TID 0000.0001) %MON seaice_uice_max              =   1.3649068263420E+00
(PID.TID 0000.0001) %MON seaice_uice_min              =  -1.2657199039395E+00
(PID.TID 0000.0001) %MON seaice_uice_mean             =   4.4989022369427E-03
(PID.TID 0000.0001) %MON seaice_uice_sd               =   1.5469100610791E-01
(PID.TID 0000.0001) %MON seaice_uice_del2             =   3.4728714045815E-04
(PID.TID 0000.0001) %MON seaice_vice_max              =   9.2027859264918E-01
(PID.TID 0000.0001) %MON seaice_vice_min              =  -1.5001594113452E+00
(PID.TID 0000.0001) %MON seaice_vice_mean             =  -2.2752021451901E-02
(PID.TID 0000.0001) %MON seaice_vice_sd               =   1.6636417487206E-01
(PID.TID 0000.0001) %MON seaice_vice_del2             =   3.2514999887026E-04
(PID.TID 0000.0001) %MON seaice_area_max              =   1.0032649874268E+00
(PID.TID 0000.0001) %MON seaice_area_min              =   0.0000000000000E+00
(PID.TID 0000.0001) %MON seaice_area_mean             =   5.7480187423715E-02
(PID.TID 0000.0001) %MON seaice_area_sd               =   2.2098573970575E-01
(PID.TID 0000.0001) %MON seaice_area_del2             =   2.8973121490817E-04
(PID.TID 0000.0001) %MON seaice_heff_max              =   9.9480241294934E+00
(PID.TID 0000.0001) %MON seaice_heff_min              =   0.0000000000000E+00
(PID.TID 0000.0001) %MON seaice_heff_mean             =   1.4959173446179E-01
(PID.TID 0000.0001) %MON seaice_heff_sd               =   7.2020694233711E-01
(PID.TID 0000.0001) %MON seaice_heff_del2             =   1.3707643184805E-03
(PID.TID 0000.0001) %MON seaice_hsnow_max             =   3.2858591009978E+00
(PID.TID 0000.0001) %MON seaice_hsnow_min             =   0.0000000000000E+00
(PID.TID 0000.0001) %MON seaice_hsnow_mean            =   1.2639232516027E-02
(PID.TID 0000.0001) %MON seaice_hsnow_sd              =   6.8173779918270E-02
(PID.TID 0000.0001) %MON seaice_hsnow_del2            =   3.7486246291607E-04
(PID.TID 0000.0001) // =======================================================
(PID.TID 0000.0001) // End MONITOR SEAICE statistics
(PID.TID 0000.0001) // =======================================================
(PID.TID 0000.0001) // =======================================================
(PID.TID 0000.0001) // Begin MONITOR dynamic field statistics
(PID.TID 0000.0001) // =======================================================
(PID.TID 0000.0001) %MON time_tsnumber                =                174819
(PID.TID 0000.0001) %MON time_secondsf                =   7.8668550000000E+07
(PID.TID 0000.0001) %MON dynstat_eta_max              =   2.3949589756197E+00
(PID.TID 0000.0001) %MON dynstat_eta_min              =  -1.0579761562876E+01
(PID.TID 0000.0001) %MON dynstat_eta_mean             =   8.7719311076466E-02
(PID.TID 0000.0001) %MON dynstat_eta_sd               =   8.9598249623942E-01
(PID.TID 0000.0001) %MON dynstat_eta_del2             =   2.0110360528375E-03
(PID.TID 0000.0001) %MON dynstat_uvel_max             =   2.2493671094345E+00
(PID.TID 0000.0001) %MON dynstat_uvel_min             =  -2.6163148251023E+00
(PID.TID 0000.0001) %MON dynstat_uvel_mean            =   3.5428649927951E-03
(PID.TID 0000.0001) %MON dynstat_uvel_sd              =   3.1701815567948E-02
(PID.TID 0000.0001) %MON dynstat_uvel_del2            =   3.7268254494433E-05
(PID.TID 0000.0001) %MON dynstat_vvel_max             =   1.8776863610491E+00
(PID.TID 0000.0001) %MON dynstat_vvel_min             =  -2.2113275411104E+00
(PID.TID 0000.0001) %MON dynstat_vvel_mean            =   3.2712151848118E-03
(PID.TID 0000.0001) %MON dynstat_vvel_sd              =   3.2173007017907E-02
(PID.TID 0000.0001) %MON dynstat_vvel_del2            =   3.5436366197961E-05
(PID.TID 0000.0001) %MON dynstat_wvel_max             =   7.8455154567293E-03
(PID.TID 0000.0001) %MON dynstat_wvel_min             =  -7.7085710120241E-03
(PID.TID 0000.0001) %MON dynstat_wvel_mean            =   5.5401813665948E-07
(PID.TID 0000.0001) %MON dynstat_wvel_sd              =   1.2457864620935E-04
(PID.TID 0000.0001) %MON dynstat_wvel_del2            =   2.8718635697491E-07
(PID.TID 0000.0001) %MON dynstat_theta_max            =   3.2447323887637E+01
(PID.TID 0000.0001) %MON dynstat_theta_min            =  -2.0427268292481E+00
(PID.TID 0000.0001) %MON dynstat_theta_mean           =   3.5919946139707E+00
(PID.TID 0000.0001) %MON dynstat_theta_sd             =   4.4419674288048E+00
(PID.TID 0000.0001) %MON dynstat_theta_del2           =   1.2547088061486E-04
(PID.TID 0000.0001) %MON dynstat_salt_max             =   4.0655990281975E+01
(PID.TID 0000.0001) %MON dynstat_salt_min             =   1.6010424495934E+01
(PID.TID 0000.0001) %MON dynstat_salt_mean            =   3.4724799377348E+01
(PID.TID 0000.0001) %MON dynstat_salt_sd              =   3.7973754748567E-01
(PID.TID 0000.0001) %MON dynstat_salt_del2            =   6.5334698728746E-05
(PID.TID 0000.0001) %MON dynstat_sst_max              =   3.2447323887637E+01
(PID.TID 0000.0001) %MON dynstat_sst_min              =  -2.0427268292481E+00
(PID.TID 0000.0001) %MON dynstat_sst_mean             =   1.8184772691396E+01
(PID.TID 0000.0001) %MON dynstat_sst_sd               =   1.0195112870504E+01
(PID.TID 0000.0001) %MON dynstat_sst_del2             =   1.1003587176912E-03
(PID.TID 0000.0001) %MON dynstat_sss_max              =   3.9464512918636E+01
(PID.TID 0000.0001) %MON dynstat_sss_min              =   1.6010424495934E+01
(PID.TID 0000.0001) %MON dynstat_sss_mean             =   3.4643192925210E+01
(PID.TID 0000.0001) %MON dynstat_sss_sd               =   1.2996940883601E+00
(PID.TID 0000.0001) %MON dynstat_sss_del2             =   1.4722691968735E-03
(PID.TID 0000.0001) %MON forcing_qnet_max             =   5.5887983079689E+03
(PID.TID 0000.0001) %MON forcing_qnet_min             =  -1.3465317065648E+03
(PID.TID 0000.0001) %MON forcing_qnet_mean            =   1.3735265270806E+01
(PID.TID 0000.0001) %MON forcing_qnet_sd              =   1.9286945763865E+02
(PID.TID 0000.0001) %MON forcing_qnet_del2            =   4.8278325055570E-01
(PID.TID 0000.0001) %MON forcing_qsw_max              =   0.0000000000000E+00
(PID.TID 0000.0001) %MON forcing_qsw_min              =  -1.1171514132574E+02
(PID.TID 0000.0001) %MON forcing_qsw_mean             =  -1.7518882382946E+01
(PID.TID 0000.0001) %MON forcing_qsw_sd               =   2.8448601353493E+01
(PID.TID 0000.0001) %MON forcing_qsw_del2             =   2.3868837255581E-02
(PID.TID 0000.0001) %MON forcing_empmr_max            =   5.7470355182886E-02
(PID.TID 0000.0001) %MON forcing_empmr_min            =  -3.7431236356497E-02
(PID.TID 0000.0001) %MON forcing_empmr_mean           =   8.2024132089182E-07
(PID.TID 0000.0001) %MON forcing_empmr_sd             =   4.1774698703117E-04
(PID.TID 0000.0001) %MON forcing_empmr_del2           =   4.1126623666039E-06
(PID.TID 0000.0001) %MON forcing_fu_max               =   7.4382212758064E-01
(PID.TID 0000.0001) %MON forcing_fu_min               =  -1.1499738577213E+00
(PID.TID 0000.0001) %MON forcing_fu_mean              =   1.2104815417285E-02
(PID.TID 0000.0001) %MON forcing_fu_sd                =   1.2543414324131E-01
(PID.TID 0000.0001) %MON forcing_fu_del2              =   1.6092321750068E-04
(PID.TID 0000.0001) %MON forcing_fv_max               =   9.4856393337250E-01
(PID.TID 0000.0001) %MON forcing_fv_min               =  -1.3723772112759E+00
(PID.TID 0000.0001) %MON forcing_fv_mean              =  -1.3894143089618E-03
(PID.TID 0000.0001) %MON forcing_fv_sd                =   1.0931976415435E-01
(PID.TID 0000.0001) %MON forcing_fv_del2              =   1.4872426280231E-04
(PID.TID 0000.0001) %MON trAdv_CFL_u_max              =   2.6986395086163E-02
(PID.TID 0000.0001) %MON trAdv_CFL_v_max              =   1.9479249045758E-02
(PID.TID 0000.0001) %MON trAdv_CFL_w_max              =   9.4480740817205E-02
(PID.TID 0000.0001) %MON advcfl_uvel_max              =   2.7347375712638E-02
(PID.TID 0000.0001) %MON advcfl_vvel_max              =   1.9168054841310E-02
(PID.TID 0000.0001) %MON advcfl_wvel_max              =   8.9170559648966E-02
(PID.TID 0000.0001) %MON advcfl_W_hf_max              =   9.4480740817205E-02
(PID.TID 0000.0001) %MON pe_b_mean                    =   2.4621656914445E-03
(PID.TID 0000.0001) %MON ke_max                       =   2.4129116019151E+00
(PID.TID 0000.0001) %MON ke_mean                      =   9.9493545388964E-04
(PID.TID 0000.0001) %MON ke_vol                       =   1.3350064351420E+18
(PID.TID 0000.0001) %MON vort_r_min                   =  -9.2188376270785E-05
(PID.TID 0000.0001) %MON vort_r_max                   =   9.9557555592754E-05
(PID.TID 0000.0001) %MON vort_a_mean                  =  -1.9725077265492E-05
(PID.TID 0000.0001) %MON vort_a_sd                    =   7.4539977267098E-05
(PID.TID 0000.0001) %MON vort_p_mean                  =  -2.1669082263611E-05
(PID.TID 0000.0001) %MON vort_p_sd                    =   9.3612182288425E-05
(PID.TID 0000.0001) %MON surfExpan_theta_mean         =   2.3127727314411E-05
(PID.TID 0000.0001) %MON surfExpan_salt_mean          =   1.7301245465918E-05
(PID.TID 0000.0001) // =======================================================
(PID.TID 0000.0001) // End MONITOR dynamic field statistics
(PID.TID 0000.0001) // =======================================================
(PID.TID 0000.0001) // =======================================================
(PID.TID 0000.0001) // Begin MONITOR SEAICE statistics
(PID.TID 0000.0001) // =======================================================
(PID.TID 0000.0001) %MON seaice_tsnumber              =                174819
(PID.TID 0000.0001) %MON seaice_time_sec              =   7.8668550000000E+07
(PID.TID 0000.0001) %MON seaice_uice_max              =   1.3558313569012E+00
(PID.TID 0000.0001) %MON seaice_uice_min              =  -1.2606894064527E+00
(PID.TID 0000.0001) %MON seaice_uice_mean             =   4.5578750442023E-03
(PID.TID 0000.0001) %MON seaice_uice_sd               =   1.5463756614509E-01
(PID.TID 0000.0001) %MON seaice_uice_del2             =   3.4732315935736E-04
(PID.TID 0000.0001) %MON seaice_vice_max              =   9.2077481360887E-01
(PID.TID 0000.0001) %MON seaice_vice_min              =  -1.5005148876362E+00
(PID.TID 0000.0001) %MON seaice_vice_mean             =  -2.2648032751646E-02
(PID.TID 0000.0001) %MON seaice_vice_sd               =   1.6620026113974E-01
(PID.TID 0000.0001) %MON seaice_vice_del2             =   3.2522179278578E-04
(PID.TID 0000.0001) %MON seaice_area_max              =   1.0033360056954E+00
(PID.TID 0000.0001) %MON seaice_area_min              =   0.0000000000000E+00
(PID.TID 0000.0001) %MON seaice_area_mean             =   5.7481558289523E-02
(PID.TID 0000.0001) %MON seaice_area_sd               =   2.2098126630507E-01
(PID.TID 0000.0001) %MON seaice_area_del2             =   2.8967026340618E-04
(PID.TID 0000.0001) %MON seaice_heff_max              =   9.9480117512348E+00
(PID.TID 0000.0001) %MON seaice_heff_min              =   0.0000000000000E+00
(PID.TID 0000.0001) %MON seaice_heff_mean             =   1.4958771991823E-01
(PID.TID 0000.0001) %MON seaice_heff_sd               =   7.2019562311056E-01
(PID.TID 0000.0001) %MON seaice_heff_del2             =   1.3701994721237E-03
(PID.TID 0000.0001) %MON seaice_hsnow_max             =   3.2858552223979E+00
(PID.TID 0000.0001) %MON seaice_hsnow_min             =   0.0000000000000E+00
(PID.TID 0000.0001) %MON seaice_hsnow_mean            =   1.2638556721930E-02
(PID.TID 0000.0001) %MON seaice_hsnow_sd              =   6.8166048510365E-02
(PID.TID 0000.0001) %MON seaice_hsnow_del2            =   3.7461070767747E-04
(PID.TID 0000.0001) // =======================================================
(PID.TID 0000.0001) // End MONITOR SEAICE statistics
(PID.TID 0000.0001) // =======================================================
(PID.TID 0000.0001) // =======================================================
(PID.TID 0000.0001) // Begin MONITOR dynamic field statistics
(PID.TID 0000.0001) // =======================================================
(PID.TID 0000.0001) %MON time_tsnumber                =                174820
(PID.TID 0000.0001) %MON time_secondsf                =   7.8669000000000E+07
(PID.TID 0000.0001) %MON dynstat_eta_max              =   2.3078433694592E+00
(PID.TID 0000.0001) %MON dynstat_eta_min              =  -1.0517545789899E+01
(PID.TID 0000.0001) %MON dynstat_eta_mean             =   8.7911131718871E-02
(PID.TID 0000.0001) %MON dynstat_eta_sd               =   8.9720480184436E-01
(PID.TID 0000.0001) %MON dynstat_eta_del2             =   2.0110982758484E-03
(PID.TID 0000.0001) %MON dynstat_uvel_max             =   2.2407082223561E+00
(PID.TID 0000.0001) %MON dynstat_uvel_min             =  -2.6102535709953E+00
(PID.TID 0000.0001) %MON dynstat_uvel_mean            =   3.5562212021567E-03
(PID.TID 0000.0001) %MON dynstat_uvel_sd              =   3.1814581905235E-02
(PID.TID 0000.0001) %MON dynstat_uvel_del2            =   3.7315826713363E-05
(PID.TID 0000.0001) %MON dynstat_vvel_max             =   1.8767540719456E+00
(PID.TID 0000.0001) %MON dynstat_vvel_min             =  -2.2064679606519E+00
(PID.TID 0000.0001) %MON dynstat_vvel_mean            =   3.3084683201368E-03
(PID.TID 0000.0001) %MON dynstat_vvel_sd              =   3.2235868978587E-02
(PID.TID 0000.0001) %MON dynstat_vvel_del2            =   3.5494468500900E-05
(PID.TID 0000.0001) %MON dynstat_wvel_max             =   7.8680727418875E-03
(PID.TID 0000.0001) %MON dynstat_wvel_min             =  -7.7050152013152E-03
(PID.TID 0000.0001) %MON dynstat_wvel_mean            =   5.4666917852716E-07
(PID.TID 0000.0001) %MON dynstat_wvel_sd              =   1.2520063132367E-04
(PID.TID 0000.0001) %MON dynstat_wvel_del2            =   2.8821013384044E-07
(PID.TID 0000.0001) %MON dynstat_theta_max            =   3.2448349734480E+01
(PID.TID 0000.0001) %MON dynstat_theta_min            =  -2.0428192182707E+00
(PID.TID 0000.0001) %MON dynstat_theta_mean           =   3.5919915966839E+00
(PID.TID 0000.0001) %MON dynstat_theta_sd             =   4.4419632186811E+00
(PID.TID 0000.0001) %MON dynstat_theta_del2           =   1.2550691048036E-04
(PID.TID 0000.0001) %MON dynstat_salt_max             =   4.0655990238907E+01
(PID.TID 0000.0001) %MON dynstat_salt_min             =   1.6008963679402E+01
(PID.TID 0000.0001) %MON dynstat_salt_mean            =   3.4724799071207E+01
(PID.TID 0000.0001) %MON dynstat_salt_sd              =   3.7973834925515E-01
(PID.TID 0000.0001) %MON dynstat_salt_del2            =   6.5293491122753E-05
(PID.TID 0000.0001) %MON dynstat_sst_max              =   3.2448349734480E+01
(PID.TID 0000.0001) %MON dynstat_sst_min              =  -2.0428192182707E+00
(PID.TID 0000.0001) %MON dynstat_sst_mean             =   1.8184506677563E+01
(PID.TID 0000.0001) %MON dynstat_sst_sd               =   1.0195335721287E+01
(PID.TID 0000.0001) %MON dynstat_sst_del2             =   1.1001320078472E-03
(PID.TID 0000.0001) %MON dynstat_sss_max              =   3.9464521878978E+01
(PID.TID 0000.0001) %MON dynstat_sss_min              =   1.6008963679402E+01
(PID.TID 0000.0001) %MON dynstat_sss_mean             =   3.4643152473554E+01
(PID.TID 0000.0001) %MON dynstat_sss_sd               =   1.2997645377938E+00
(PID.TID 0000.0001) %MON dynstat_sss_del2             =   1.4721616347230E-03
(PID.TID 0000.0001) %MON forcing_qnet_max             =   2.0612685546875E+03
(PID.TID 0000.0001) %MON forcing_qnet_min             =  -3.0153127441406E+03
(PID.TID 0000.0001) %MON forcing_qnet_mean            =   1.4132357495899E+01
(PID.TID 0000.0001) %MON forcing_qnet_sd              =   1.9221340523013E+02
(PID.TID 0000.0001) %MON forcing_qnet_del2            =   4.6009281875367E-01
(PID.TID 0000.0001) %MON forcing_qsw_max              =   0.0000000000000E+00
(PID.TID 0000.0001) %MON forcing_qsw_min              =  -1.1155038227647E+02
(PID.TID 0000.0001) %MON forcing_qsw_mean             =  -1.7379254433884E+01
(PID.TID 0000.0001) %MON forcing_qsw_sd               =   2.8443004729124E+01
(PID.TID 0000.0001) %MON forcing_qsw_del2             =   2.3704408458202E-02
(PID.TID 0000.0001) %MON forcing_empmr_max            =   1.9066840410233E-02
(PID.TID 0000.0001) %MON forcing_empmr_min            =  -3.7175282835960E-02
(PID.TID 0000.0001) %MON forcing_empmr_mean           =  -3.1636564311311E-07
(PID.TID 0000.0001) %MON forcing_empmr_sd             =   3.2313673178146E-04
(PID.TID 0000.0001) %MON forcing_empmr_del2           =   3.4514250607968E-06
(PID.TID 0000.0001) %MON forcing_fu_max               =   7.4515521526337E-01
(PID.TID 0000.0001) %MON forcing_fu_min               =  -1.1521746718287E+00
(PID.TID 0000.0001) %MON forcing_fu_mean              =   1.2131985355078E-02
(PID.TID 0000.0001) %MON forcing_fu_sd                =   1.2547920301359E-01
(PID.TID 0000.0001) %MON forcing_fu_del2              =   1.6115919455452E-04
(PID.TID 0000.0001) %MON forcing_fv_max               =   9.4688609242439E-01
(PID.TID 0000.0001) %MON forcing_fv_min               =  -1.3087037274173E+00
(PID.TID 0000.0001) %MON forcing_fv_mean              =  -1.3902910530081E-03
(PID.TID 0000.0001) %MON forcing_fv_sd                =   1.0942286485829E-01
(PID.TID 0000.0001) %MON forcing_fv_del2              =   1.4866592459711E-04
(PID.TID 0000.0001) %MON trAdv_CFL_u_max              =   2.6923875317334E-02
(PID.TID 0000.0001) %MON trAdv_CFL_v_max              =   1.9395606722435E-02
(PID.TID 0000.0001) %MON trAdv_CFL_w_max              =   9.3808556036786E-02
(PID.TID 0000.0001) %MON advcfl_uvel_max              =   2.7284019654811E-02
(PID.TID 0000.0001) %MON advcfl_vvel_max              =   1.9158385223059E-02
(PID.TID 0000.0001) %MON advcfl_wvel_max              =   8.8516492200791E-02
(PID.TID 0000.0001) %MON advcfl_W_hf_max              =   9.3808556036786E-02
(PID.TID 0000.0001) %MON pe_b_mean                    =   2.4699925528990E-03
(PID.TID 0000.0001) %MON ke_max                       =   2.4004603966019E+00
(PID.TID 0000.0001) %MON ke_mean                      =   1.0005051526731E-03
(PID.TID 0000.0001) %MON ke_vol                       =   1.3350064351420E+18
(PID.TID 0000.0001) %MON vort_r_min                   =  -9.2008177625243E-05
(PID.TID 0000.0001) %MON vort_r_max                   =   9.9291544638557E-05
(PID.TID 0000.0001) %MON vort_a_mean                  =  -1.9725077325468E-05
(PID.TID 0000.0001) %MON vort_a_sd                    =   7.4540004122296E-05
(PID.TID 0000.0001) %MON vort_p_mean                  =  -2.1669082329498E-05
(PID.TID 0000.0001) %MON vort_p_sd                    =   9.3612325740150E-05
(PID.TID 0000.0001) %MON surfExpan_theta_mean         =   2.3099946360036E-05
(PID.TID 0000.0001) %MON surfExpan_salt_mean          =   1.6740343253398E-05
(PID.TID 0000.0001) // =======================================================
(PID.TID 0000.0001) // End MONITOR dynamic field statistics
(PID.TID 0000.0001) // =======================================================
(PID.TID 0000.0001) // =======================================================
(PID.TID 0000.0001) // Begin MONITOR SEAICE statistics
(PID.TID 0000.0001) // =======================================================
(PID.TID 0000.0001) %MON seaice_tsnumber              =                174820
(PID.TID 0000.0001) %MON seaice_time_sec              =   7.8669000000000E+07
(PID.TID 0000.0001) %MON seaice_uice_max              =   1.3466719465408E+00
(PID.TID 0000.0001) %MON seaice_uice_min              =  -1.2549173740267E+00
(PID.TID 0000.0001) %MON seaice_uice_mean             =   4.6185825911253E-03
(PID.TID 0000.0001) %MON seaice_uice_sd               =   1.5457223975196E-01
(PID.TID 0000.0001) %MON seaice_uice_del2             =   3.4737592794571E-04
(PID.TID 0000.0001) %MON seaice_vice_max              =   9.2148896728839E-01
(PID.TID 0000.0001) %MON seaice_vice_min              =  -1.5003218066117E+00
(PID.TID 0000.0001) %MON seaice_vice_mean             =  -2.2511459684108E-02
(PID.TID 0000.0001) %MON seaice_vice_sd               =   1.6595317859033E-01
(PID.TID 0000.0001) %MON seaice_vice_del2             =   3.2533597327464E-04
(PID.TID 0000.0001) %MON seaice_area_max              =   1.0034032113150E+00
(PID.TID 0000.0001) %MON seaice_area_min              =   0.0000000000000E+00
(PID.TID 0000.0001) %MON seaice_area_mean             =   5.7482937714350E-02
(PID.TID 0000.0001) %MON seaice_area_sd               =   2.2097685706402E-01
(PID.TID 0000.0001) %MON seaice_area_del2             =   2.8961112751977E-04
(PID.TID 0000.0001) %MON seaice_heff_max              =   9.9479984197286E+00
(PID.TID 0000.0001) %MON seaice_heff_min              =   0.0000000000000E+00
(PID.TID 0000.0001) %MON seaice_heff_mean             =   1.4958370656504E-01
(PID.TID 0000.0001) %MON seaice_heff_sd               =   7.2018427739820E-01
(PID.TID 0000.0001) %MON seaice_heff_del2             =   1.3696389592260E-03
(PID.TID 0000.0001) %MON seaice_hsnow_max             =   3.2858511055080E+00
(PID.TID 0000.0001) %MON seaice_hsnow_min             =   0.0000000000000E+00
(PID.TID 0000.0001) %MON seaice_hsnow_mean            =   1.2637885334256E-02
(PID.TID 0000.0001) %MON seaice_hsnow_sd              =   6.8158303776612E-02
(PID.TID 0000.0001) %MON seaice_hsnow_del2            =   3.7436110595355E-04
(PID.TID 0000.0001) // =======================================================
(PID.TID 0000.0001) // End MONITOR SEAICE statistics
(PID.TID 0000.0001) // =======================================================
(PID.TID 0000.0001) // =======================================================
(PID.TID 0000.0001) // Begin MONITOR dynamic field statistics
(PID.TID 0000.0001) // =======================================================
(PID.TID 0000.0001) %MON time_tsnumber                =                174821
(PID.TID 0000.0001) %MON time_secondsf                =   7.8669450000000E+07
(PID.TID 0000.0001) %MON dynstat_eta_max              =   2.2593668342277E+00
(PID.TID 0000.0001) %MON dynstat_eta_min              =  -1.0454115053154E+01
(PID.TID 0000.0001) %MON dynstat_eta_mean             =   8.8095979030820E-02
(PID.TID 0000.0001) %MON dynstat_eta_sd               =   8.9840945128030E-01
(PID.TID 0000.0001) %MON dynstat_eta_del2             =   2.0111462804235E-03
(PID.TID 0000.0001) %MON dynstat_uvel_max             =   2.2317953986172E+00
(PID.TID 0000.0001) %MON dynstat_uvel_min             =  -2.6041745135500E+00
(PID.TID 0000.0001) %MON dynstat_uvel_mean            =   3.5744377436648E-03
(PID.TID 0000.0001) %MON dynstat_uvel_sd              =   3.1929994954405E-02
(PID.TID 0000.0001) %MON dynstat_uvel_del2            =   3.7364663993079E-05
(PID.TID 0000.0001) %MON dynstat_vvel_max             =   1.8748608016692E+00
(PID.TID 0000.0001) %MON dynstat_vvel_min             =  -2.2014473656678E+00
(PID.TID 0000.0001) %MON dynstat_vvel_mean            =   3.3456204401033E-03
(PID.TID 0000.0001) %MON dynstat_vvel_sd              =   3.2300559340149E-02
(PID.TID 0000.0001) %MON dynstat_vvel_del2            =   3.5554281251457E-05
(PID.TID 0000.0001) %MON dynstat_wvel_max             =   7.8904975204897E-03
(PID.TID 0000.0001) %MON dynstat_wvel_min             =  -7.7014132029659E-03
(PID.TID 0000.0001) %MON dynstat_wvel_mean            =   5.3963252273638E-07
(PID.TID 0000.0001) %MON dynstat_wvel_sd              =   1.2582832870776E-04
(PID.TID 0000.0001) %MON dynstat_wvel_del2            =   2.8924262806519E-07
(PID.TID 0000.0001) %MON dynstat_theta_max            =   3.2449306613707E+01
(PID.TID 0000.0001) %MON dynstat_theta_min            =  -2.0429100727905E+00
(PID.TID 0000.0001) %MON dynstat_theta_mean           =   3.5919884877036E+00
(PID.TID 0000.0001) %MON dynstat_theta_sd             =   4.4419585052519E+00
(PID.TID 0000.0001) %MON dynstat_theta_del2           =   1.2554833781253E-04
(PID.TID 0000.0001) %MON dynstat_salt_max             =   4.0655990196733E+01
(PID.TID 0000.0001) %MON dynstat_salt_min             =   1.6007524731465E+01
(PID.TID 0000.0001) %MON dynstat_salt_mean            =   3.4724798764043E+01
(PID.TID 0000.0001) %MON dynstat_salt_sd              =   3.7973911045590E-01
(PID.TID 0000.0001) %MON dynstat_salt_del2            =   6.5254006609854E-05
(PID.TID 0000.0001) %MON dynstat_sst_max              =   3.2449306613707E+01
(PID.TID 0000.0001) %MON dynstat_sst_min              =  -2.0429100727905E+00
(PID.TID 0000.0001) %MON dynstat_sst_mean             =   1.8184159339161E+01
(PID.TID 0000.0001) %MON dynstat_sst_sd               =   1.0195491562513E+01
(PID.TID 0000.0001) %MON dynstat_sst_del2             =   1.1004388335331E-03
(PID.TID 0000.0001) %MON dynstat_sss_max              =   3.9464537350458E+01
(PID.TID 0000.0001) %MON dynstat_sss_min              =   1.6007524731465E+01
(PID.TID 0000.0001) %MON dynstat_sss_mean             =   3.4643110760974E+01
(PID.TID 0000.0001) %MON dynstat_sss_sd               =   1.2998381405821E+00
(PID.TID 0000.0001) %MON dynstat_sss_del2             =   1.4721554381885E-03
(PID.TID 0000.0001) %MON forcing_qnet_max             =   2.1254541760050E+03
(PID.TID 0000.0001) %MON forcing_qnet_min             =  -1.1309321215157E+03
(PID.TID 0000.0001) %MON forcing_qnet_mean            =   1.7357190675574E+01
(PID.TID 0000.0001) %MON forcing_qnet_sd              =   1.9224914394819E+02
(PID.TID 0000.0001) %MON forcing_qnet_del2            =   4.3003540348973E-01
(PID.TID 0000.0001) %MON forcing_qsw_max              =   0.0000000000000E+00
(PID.TID 0000.0001) %MON forcing_qsw_min              =  -1.1197744673532E+02
(PID.TID 0000.0001) %MON forcing_qsw_mean             =  -1.6997730743031E+01
(PID.TID 0000.0001) %MON forcing_qsw_sd               =   2.8546807050057E+01
(PID.TID 0000.0001) %MON forcing_qsw_del2             =   2.3254905919855E-02
(PID.TID 0000.0001) %MON forcing_empmr_max            =   1.9577637314796E-02
(PID.TID 0000.0001) %MON forcing_empmr_min            =  -3.7237551063299E-02
(PID.TID 0000.0001) %MON forcing_empmr_mean           =  -6.0486100978965E-07
(PID.TID 0000.0001) %MON forcing_empmr_sd             =   3.2415081505207E-04
(PID.TID 0000.0001) %MON forcing_empmr_del2           =   3.4601967514198E-06
(PID.TID 0000.0001) %MON forcing_fu_max               =   7.4533435702324E-01
(PID.TID 0000.0001) %MON forcing_fu_min               =  -1.1588527827161E+00
(PID.TID 0000.0001) %MON forcing_fu_mean              =   1.2155773568716E-02
(PID.TID 0000.0001) %MON forcing_fu_sd                =   1.2551069820501E-01
(PID.TID 0000.0001) %MON forcing_fu_del2              =   1.6126249446503E-04
(PID.TID 0000.0001) %MON forcing_fv_max               =   9.4588962197304E-01
(PID.TID 0000.0001) %MON forcing_fv_min               =  -1.2572535712017E+00
(PID.TID 0000.0001) %MON forcing_fv_mean              =  -1.3974897340939E-03
(PID.TID 0000.0001) %MON forcing_fv_sd                =   1.0949508567979E-01
(PID.TID 0000.0001) %MON forcing_fv_del2              =   1.4849628227753E-04
(PID.TID 0000.0001) %MON trAdv_CFL_u_max              =   2.6861171913143E-02
(PID.TID 0000.0001) %MON trAdv_CFL_v_max              =   1.9311449121574E-02
(PID.TID 0000.0001) %MON trAdv_CFL_w_max              =   9.3132407192672E-02
(PID.TID 0000.0001) %MON advcfl_uvel_max              =   2.7220477505242E-02
(PID.TID 0000.0001) %MON advcfl_vvel_max              =   1.9135595409306E-02
(PID.TID 0000.0001) %MON advcfl_wvel_max              =   8.7859094298675E-02
(PID.TID 0000.0001) %MON advcfl_W_hf_max              =   9.3132407192672E-02
(PID.TID 0000.0001) %MON pe_b_mean                    =   2.4775857510464E-03
(PID.TID 0000.0001) %MON ke_max                       =   2.3880139582740E+00
(PID.TID 0000.0001) %MON ke_mean                      =   1.0062472931027E-03
(PID.TID 0000.0001) %MON ke_vol                       =   1.3350064351420E+18
(PID.TID 0000.0001) %MON vort_r_min                   =  -9.1826480780871E-05
(PID.TID 0000.0001) %MON vort_r_max                   =   9.9024976357702E-05
(PID.TID 0000.0001) %MON vort_a_mean                  =  -1.9725077398963E-05
(PID.TID 0000.0001) %MON vort_a_sd                    =   7.4540031764817E-05
(PID.TID 0000.0001) %MON vort_p_mean                  =  -2.1669082410236E-05
(PID.TID 0000.0001) %MON vort_p_sd                    =   9.3612471333942E-05
(PID.TID 0000.0001) %MON surfExpan_theta_mean         =   2.3095930198864E-05
(PID.TID 0000.0001) %MON surfExpan_salt_mean          =   1.6199536614671E-05
(PID.TID 0000.0001) // =======================================================
(PID.TID 0000.0001) // End MONITOR dynamic field statistics
(PID.TID 0000.0001) // =======================================================
(PID.TID 0000.0001) // =======================================================
(PID.TID 0000.0001) // Begin MONITOR SEAICE statistics
(PID.TID 0000.0001) // =======================================================
(PID.TID 0000.0001) %MON seaice_tsnumber              =                174821
(PID.TID 0000.0001) %MON seaice_time_sec              =   7.8669450000000E+07
(PID.TID 0000.0001) %MON seaice_uice_max              =   1.3384747905521E+00
(PID.TID 0000.0001) %MON seaice_uice_min              =  -1.2484598426821E+00
(PID.TID 0000.0001) %MON seaice_uice_mean             =   4.6837366031680E-03
(PID.TID 0000.0001) %MON seaice_uice_sd               =   1.5450884502295E-01
(PID.TID 0000.0001) %MON seaice_uice_del2             =   3.4747756704869E-04
(PID.TID 0000.0001) %MON seaice_vice_max              =   9.2243876063033E-01
(PID.TID 0000.0001) %MON seaice_vice_min              =  -1.5005583546690E+00
(PID.TID 0000.0001) %MON seaice_vice_mean             =  -2.2396948631267E-02
(PID.TID 0000.0001) %MON seaice_vice_sd               =   1.6578966770491E-01
(PID.TID 0000.0001) %MON seaice_vice_del2             =   3.2547617754333E-04
(PID.TID 0000.0001) %MON seaice_area_max              =   1.0034650974330E+00
(PID.TID 0000.0001) %MON seaice_area_min              =   0.0000000000000E+00
(PID.TID 0000.0001) %MON seaice_area_mean             =   5.7484332506435E-02
(PID.TID 0000.0001) %MON seaice_area_sd               =   2.2097252870150E-01
(PID.TID 0000.0001) %MON seaice_area_del2             =   2.8955436316167E-04
(PID.TID 0000.0001) %MON seaice_heff_max              =   9.9479850885131E+00
(PID.TID 0000.0001) %MON seaice_heff_min              =   0.0000000000000E+00
(PID.TID 0000.0001) %MON seaice_heff_mean             =   1.4957970002065E-01
(PID.TID 0000.0001) %MON seaice_heff_sd               =   7.2017291739483E-01
(PID.TID 0000.0001) %MON seaice_heff_del2             =   1.3690824575576E-03
(PID.TID 0000.0001) %MON seaice_hsnow_max             =   3.2858467499247E+00
(PID.TID 0000.0001) %MON seaice_hsnow_min             =   0.0000000000000E+00
(PID.TID 0000.0001) %MON seaice_hsnow_mean            =   1.2637249826788E-02
(PID.TID 0000.0001) %MON seaice_hsnow_sd              =   6.8150649968211E-02
(PID.TID 0000.0001) %MON seaice_hsnow_del2            =   3.7411356664485E-04
(PID.TID 0000.0001) // =======================================================
(PID.TID 0000.0001) // End MONITOR SEAICE statistics
(PID.TID 0000.0001) // =======================================================
(PID.TID 0000.0001) // =======================================================
(PID.TID 0000.0001) // Begin MONITOR dynamic field statistics
(PID.TID 0000.0001) // =======================================================
(PID.TID 0000.0001) %MON time_tsnumber                =                174822
(PID.TID 0000.0001) %MON time_secondsf                =   7.8669900000000E+07
(PID.TID 0000.0001) %MON dynstat_eta_max              =   2.2995118385941E+00
(PID.TID 0000.0001) %MON dynstat_eta_min              =  -1.0390268029615E+01
(PID.TID 0000.0001) %MON dynstat_eta_mean             =   8.8273865848429E-02
(PID.TID 0000.0001) %MON dynstat_eta_sd               =   8.9959456862569E-01
(PID.TID 0000.0001) %MON dynstat_eta_del2             =   2.0111786783160E-03
(PID.TID 0000.0001) %MON dynstat_uvel_max             =   2.2226544568942E+00
(PID.TID 0000.0001) %MON dynstat_uvel_min             =  -2.5980685764191E+00
(PID.TID 0000.0001) %MON dynstat_uvel_mean            =   3.5976214195887E-03
(PID.TID 0000.0001) %MON dynstat_uvel_sd              =   3.2048311794337E-02
(PID.TID 0000.0001) %MON dynstat_uvel_del2            =   3.7414466622716E-05
(PID.TID 0000.0001) %MON dynstat_vvel_max             =   1.8728602610782E+00
(PID.TID 0000.0001) %MON dynstat_vvel_min             =  -2.1962741859414E+00
(PID.TID 0000.0001) %MON dynstat_vvel_mean            =   3.3825157937293E-03
(PID.TID 0000.0001) %MON dynstat_vvel_sd              =   3.2369328679280E-02
(PID.TID 0000.0001) %MON dynstat_vvel_del2            =   3.5615193918612E-05
(PID.TID 0000.0001) %MON dynstat_wvel_max             =   7.9127867849782E-03
(PID.TID 0000.0001) %MON dynstat_wvel_min             =  -7.6977189618377E-03
(PID.TID 0000.0001) %MON dynstat_wvel_mean            =   5.3254501814204E-07
(PID.TID 0000.0001) %MON dynstat_wvel_sd              =   1.2646173050687E-04
(PID.TID 0000.0001) %MON dynstat_wvel_del2            =   2.9028404345030E-07
(PID.TID 0000.0001) %MON dynstat_theta_max            =   3.2450175432000E+01
(PID.TID 0000.0001) %MON dynstat_theta_min            =  -2.0429996273839E+00
(PID.TID 0000.0001) %MON dynstat_theta_mean           =   3.5919853829490E+00
(PID.TID 0000.0001) %MON dynstat_theta_sd             =   4.4419537603519E+00
(PID.TID 0000.0001) %MON dynstat_theta_del2           =   1.2558551553891E-04
(PID.TID 0000.0001) %MON dynstat_salt_max             =   4.0655990155524E+01
(PID.TID 0000.0001) %MON dynstat_salt_min             =   1.6006105484523E+01
(PID.TID 0000.0001) %MON dynstat_salt_mean            =   3.4724798457696E+01
(PID.TID 0000.0001) %MON dynstat_salt_sd              =   3.7973981218035E-01
(PID.TID 0000.0001) %MON dynstat_salt_del2            =   6.5213782459533E-05
(PID.TID 0000.0001) %MON dynstat_sst_max              =   3.2450175432000E+01
(PID.TID 0000.0001) %MON dynstat_sst_min              =  -2.0429996273839E+00
(PID.TID 0000.0001) %MON dynstat_sst_mean             =   1.8183878854527E+01
(PID.TID 0000.0001) %MON dynstat_sst_sd               =   1.0195698343781E+01
(PID.TID 0000.0001) %MON dynstat_sst_del2             =   1.1003337378242E-03
(PID.TID 0000.0001) %MON dynstat_sss_max              =   3.9464553600702E+01
(PID.TID 0000.0001) %MON dynstat_sss_min              =   1.6006105484523E+01
(PID.TID 0000.0001) %MON dynstat_sss_mean             =   3.4643070547973E+01
(PID.TID 0000.0001) %MON dynstat_sss_sd               =   1.2999104017986E+00
(PID.TID 0000.0001) %MON dynstat_sss_del2             =   1.4720619474663E-03
(PID.TID 0000.0001) %MON forcing_qnet_max             =   2.6238149176348E+03
(PID.TID 0000.0001) %MON forcing_qnet_min             =  -1.2404238281250E+03
(PID.TID 0000.0001) %MON forcing_qnet_mean            =   1.7302676744294E+01
(PID.TID 0000.0001) %MON forcing_qnet_sd              =   1.9308912447801E+02
(PID.TID 0000.0001) %MON forcing_qnet_del2            =   4.4308860851522E-01
(PID.TID 0000.0001) %MON forcing_qsw_max              =   0.0000000000000E+00
(PID.TID 0000.0001) %MON forcing_qsw_min              =  -1.1207754383918E+02
(PID.TID 0000.0001) %MON forcing_qsw_mean             =  -1.6921808571288E+01
(PID.TID 0000.0001) %MON forcing_qsw_sd               =   2.8619209781760E+01
(PID.TID 0000.0001) %MON forcing_qsw_del2             =   2.3129310480502E-02
(PID.TID 0000.0001) %MON forcing_empmr_max            =   2.2895593196154E-02
(PID.TID 0000.0001) %MON forcing_empmr_min            =  -3.8596399128437E-02
(PID.TID 0000.0001) %MON forcing_empmr_mean           =  -9.3998819538503E-07
(PID.TID 0000.0001) %MON forcing_empmr_sd             =   3.3398004157497E-04
(PID.TID 0000.0001) %MON forcing_empmr_del2           =   3.5374846700269E-06
(PID.TID 0000.0001) %MON forcing_fu_max               =   7.4460926651954E-01
(PID.TID 0000.0001) %MON forcing_fu_min               =  -1.1626973333742E+00
(PID.TID 0000.0001) %MON forcing_fu_mean              =   1.2174371640348E-02
(PID.TID 0000.0001) %MON forcing_fu_sd                =   1.2553417531734E-01
(PID.TID 0000.0001) %MON forcing_fu_del2              =   1.6134950177026E-04
(PID.TID 0000.0001) %MON forcing_fv_max               =   9.4407522678375E-01
(PID.TID 0000.0001) %MON forcing_fv_min               =  -1.2526178223438E+00
(PID.TID 0000.0001) %MON forcing_fv_mean              =  -1.4061334308838E-03
(PID.TID 0000.0001) %MON forcing_fv_sd                =   1.0955561349258E-01
(PID.TID 0000.0001) %MON forcing_fv_del2              =   1.4836858563970E-04
(PID.TID 0000.0001) %MON trAdv_CFL_u_max              =   2.6798191254162E-02
(PID.TID 0000.0001) %MON trAdv_CFL_v_max              =   1.9226702362592E-02
(PID.TID 0000.0001) %MON trAdv_CFL_w_max              =   9.2452457427752E-02
(PID.TID 0000.0001) %MON advcfl_uvel_max              =   2.7156654392215E-02
(PID.TID 0000.0001) %MON advcfl_vvel_max              =   1.9099602275900E-02
(PID.TID 0000.0001) %MON advcfl_wvel_max              =   8.7198321602365E-02
(PID.TID 0000.0001) %MON advcfl_W_hf_max              =   9.2452457427752E-02
(PID.TID 0000.0001) %MON pe_b_mean                    =   2.4849383030684E-03
(PID.TID 0000.0001) %MON ke_max                       =   2.3755559073176E+00
(PID.TID 0000.0001) %MON ke_mean                      =   1.0122414165405E-03
(PID.TID 0000.0001) %MON ke_vol                       =   1.3350064351420E+18
(PID.TID 0000.0001) %MON vort_r_min                   =  -9.1642853182407E-05
(PID.TID 0000.0001) %MON vort_r_max                   =   9.8757505913610E-05
(PID.TID 0000.0001) %MON vort_a_mean                  =  -1.9725077482369E-05
(PID.TID 0000.0001) %MON vort_a_sd                    =   7.4540060183091E-05
(PID.TID 0000.0001) %MON vort_p_mean                  =  -2.1669082501862E-05
(PID.TID 0000.0001) %MON vort_p_sd                    =   9.3612618617432E-05
(PID.TID 0000.0001) %MON surfExpan_theta_mean         =   2.3093348723979E-05
(PID.TID 0000.0001) %MON surfExpan_salt_mean          =   1.5654986541301E-05
(PID.TID 0000.0001) // =======================================================
(PID.TID 0000.0001) // End MONITOR dynamic field statistics
(PID.TID 0000.0001) // =======================================================
(PID.TID 0000.0001) // =======================================================
(PID.TID 0000.0001) // Begin MONITOR SEAICE statistics
(PID.TID 0000.0001) // =======================================================
(PID.TID 0000.0001) %MON seaice_tsnumber              =                174822
(PID.TID 0000.0001) %MON seaice_time_sec              =   7.8669900000000E+07
(PID.TID 0000.0001) %MON seaice_uice_max              =   1.3377092662679E+00
(PID.TID 0000.0001) %MON seaice_uice_min              =  -1.2413716825575E+00
(PID.TID 0000.0001) %MON seaice_uice_mean             =   4.7562512624954E-03
(PID.TID 0000.0001) %MON seaice_uice_sd               =   1.5442630611921E-01
(PID.TID 0000.0001) %MON seaice_uice_del2             =   3.4761344422461E-04
(PID.TID 0000.0001) %MON seaice_vice_max              =   9.2363849071200E-01
(PID.TID 0000.0001) %MON seaice_vice_min              =  -1.5003911698564E+00
(PID.TID 0000.0001) %MON seaice_vice_mean             =  -2.2232685992987E-02
(PID.TID 0000.0001) %MON seaice_vice_sd               =   1.6552181536319E-01
(PID.TID 0000.0001) %MON seaice_vice_del2             =   3.2566325041521E-04
(PID.TID 0000.0001) %MON seaice_area_max              =   1.0035165358643E+00
(PID.TID 0000.0001) %MON seaice_area_min              =   0.0000000000000E+00
(PID.TID 0000.0001) %MON seaice_area_mean             =   5.7485741413632E-02
(PID.TID 0000.0001) %MON seaice_area_sd               =   2.2096829475489E-01
(PID.TID 0000.0001) %MON seaice_area_del2             =   2.8949937503090E-04
(PID.TID 0000.0001) %MON seaice_heff_max              =   9.9479936920439E+00
(PID.TID 0000.0001) %MON seaice_heff_min              =   0.0000000000000E+00
(PID.TID 0000.0001) %MON seaice_heff_mean             =   1.4957569902861E-01
(PID.TID 0000.0001) %MON seaice_heff_sd               =   7.2016154117969E-01
(PID.TID 0000.0001) %MON seaice_heff_del2             =   1.3685296423611E-03
(PID.TID 0000.0001) %MON seaice_hsnow_max             =   3.2858495391069E+00
(PID.TID 0000.0001) %MON seaice_hsnow_min             =   0.0000000000000E+00
(PID.TID 0000.0001) %MON seaice_hsnow_mean            =   1.2636621212048E-02
(PID.TID 0000.0001) %MON seaice_hsnow_sd              =   6.8143021233029E-02
(PID.TID 0000.0001) %MON seaice_hsnow_del2            =   3.7386821843771E-04
(PID.TID 0000.0001) // =======================================================
(PID.TID 0000.0001) // End MONITOR SEAICE statistics
(PID.TID 0000.0001) // =======================================================
(PID.TID 0000.0001) // =======================================================
(PID.TID 0000.0001) // Begin MONITOR dynamic field statistics
(PID.TID 0000.0001) // =======================================================
(PID.TID 0000.0001) %MON time_tsnumber                =                174823
(PID.TID 0000.0001) %MON time_secondsf                =   7.8670350000000E+07
(PID.TID 0000.0001) %MON dynstat_eta_max              =   2.3465043291860E+00
(PID.TID 0000.0001) %MON dynstat_eta_min              =  -1.0326800194453E+01
(PID.TID 0000.0001) %MON dynstat_eta_mean             =   8.8444964082491E-02
(PID.TID 0000.0001) %MON dynstat_eta_sd               =   9.0075826195006E-01
(PID.TID 0000.0001) %MON dynstat_eta_del2             =   2.0111965536641E-03
(PID.TID 0000.0001) %MON dynstat_uvel_max             =   2.2133105082739E+00
(PID.TID 0000.0001) %MON dynstat_uvel_min             =  -2.5919276848917E+00
(PID.TID 0000.0001) %MON dynstat_uvel_mean            =   3.6258560820768E-03
(PID.TID 0000.0001) %MON dynstat_uvel_sd              =   3.2169300368903E-02
(PID.TID 0000.0001) %MON dynstat_uvel_del2            =   3.7465794705021E-05
(PID.TID 0000.0001) %MON dynstat_vvel_max             =   1.8699714791834E+00
(PID.TID 0000.0001) %MON dynstat_vvel_min             =  -2.1909581315599E+00
(PID.TID 0000.0001) %MON dynstat_vvel_mean            =   3.4189982961746E-03
(PID.TID 0000.0001) %MON dynstat_vvel_sd              =   3.2440914564541E-02
(PID.TID 0000.0001) %MON dynstat_vvel_del2            =   3.5677845274917E-05
(PID.TID 0000.0001) %MON dynstat_wvel_max             =   7.9349346514579E-03
(PID.TID 0000.0001) %MON dynstat_wvel_min             =  -7.6939000768421E-03
(PID.TID 0000.0001) %MON dynstat_wvel_mean            =   5.2580804017188E-07
(PID.TID 0000.0001) %MON dynstat_wvel_sd              =   1.2710125923398E-04
(PID.TID 0000.0001) %MON dynstat_wvel_del2            =   2.9133427849154E-07
(PID.TID 0000.0001) %MON dynstat_theta_max            =   3.2450969803575E+01
(PID.TID 0000.0001) %MON dynstat_theta_min            =  -2.0430890330837E+00
(PID.TID 0000.0001) %MON dynstat_theta_mean           =   3.5919822297394E+00
(PID.TID 0000.0001) %MON dynstat_theta_sd             =   4.4419486914235E+00
(PID.TID 0000.0001) %MON dynstat_theta_del2           =   1.2562736173587E-04
(PID.TID 0000.0001) %MON dynstat_salt_max             =   4.0655990115349E+01
(PID.TID 0000.0001) %MON dynstat_salt_min             =   1.6004704999011E+01
(PID.TID 0000.0001) %MON dynstat_salt_mean            =   3.4724798154271E+01
(PID.TID 0000.0001) %MON dynstat_salt_sd              =   3.7974045873697E-01
(PID.TID 0000.0001) %MON dynstat_salt_del2            =   6.5175043478163E-05
(PID.TID 0000.0001) %MON dynstat_sst_max              =   3.2450969803575E+01
(PID.TID 0000.0001) %MON dynstat_sst_min              =  -2.0430890330837E+00
(PID.TID 0000.0001) %MON dynstat_sst_mean             =   1.8183552547925E+01
(PID.TID 0000.0001) %MON dynstat_sst_sd               =   1.0195863409884E+01
(PID.TID 0000.0001) %MON dynstat_sst_del2             =   1.1006788026440E-03
(PID.TID 0000.0001) %MON dynstat_sss_max              =   3.9464561564375E+01
(PID.TID 0000.0001) %MON dynstat_sss_min              =   1.6004704999011E+01
(PID.TID 0000.0001) %MON dynstat_sss_mean             =   3.4643030487735E+01
(PID.TID 0000.0001) %MON dynstat_sss_sd               =   1.2999836289148E+00
(PID.TID 0000.0001) %MON dynstat_sss_del2             =   1.4720655735629E-03
(PID.TID 0000.0001) %MON forcing_qnet_max             =   3.6721882851002E+03
(PID.TID 0000.0001) %MON forcing_qnet_min             =  -8.4357431640625E+03
(PID.TID 0000.0001) %MON forcing_qnet_mean            =   1.9047123353538E+01
(PID.TID 0000.0001) %MON forcing_qnet_sd              =   1.9959539076818E+02
(PID.TID 0000.0001) %MON forcing_qnet_del2            =   5.8344600815643E-01
(PID.TID 0000.0001) %MON forcing_qsw_max              =   0.0000000000000E+00
(PID.TID 0000.0001) %MON forcing_qsw_min              =  -1.1206179685337E+02
(PID.TID 0000.0001) %MON forcing_qsw_mean             =  -1.6833105384751E+01
(PID.TID 0000.0001) %MON forcing_qsw_sd               =   2.8680872436724E+01
(PID.TID 0000.0001) %MON forcing_qsw_del2             =   2.2992560712060E-02
(PID.TID 0000.0001) %MON forcing_empmr_max            =   3.1776066869497E-02
(PID.TID 0000.0001) %MON forcing_empmr_min            =  -3.7597905844450E-02
(PID.TID 0000.0001) %MON forcing_empmr_mean           =  -1.0310338076495E-06
(PID.TID 0000.0001) %MON forcing_empmr_sd             =   3.4667222693784E-04
(PID.TID 0000.0001) %MON forcing_empmr_del2           =   3.6284139508093E-06
(PID.TID 0000.0001) %MON forcing_fu_max               =   7.4562075734138E-01
(PID.TID 0000.0001) %MON forcing_fu_min               =  -1.1663944382773E+00
(PID.TID 0000.0001) %MON forcing_fu_mean              =   1.2185419211534E-02
(PID.TID 0000.0001) %MON forcing_fu_sd                =   1.2555585784418E-01
(PID.TID 0000.0001) %MON forcing_fu_del2              =   1.6144379520755E-04
(PID.TID 0000.0001) %MON forcing_fv_max               =   9.4277089834213E-01
(PID.TID 0000.0001) %MON forcing_fv_min               =  -1.2468909917313E+00
(PID.TID 0000.0001) %MON forcing_fv_mean              =  -1.4079296414996E-03
(PID.TID 0000.0001) %MON forcing_fv_sd                =   1.0965428500804E-01
(PID.TID 0000.0001) %MON forcing_fv_del2              =   1.4829007906134E-04
(PID.TID 0000.0001) %MON trAdv_CFL_u_max              =   2.6734850052503E-02
(PID.TID 0000.0001) %MON trAdv_CFL_v_max              =   1.9182791961636E-02
(PID.TID 0000.0001) %MON trAdv_CFL_w_max              =   9.1769713900794E-02
(PID.TID 0000.0001) %MON advcfl_uvel_max              =   2.7092465913749E-02
(PID.TID 0000.0001) %MON advcfl_vvel_max              =   1.9050617352467E-02
(PID.TID 0000.0001) %MON advcfl_wvel_max              =   8.6535056211535E-02
(PID.TID 0000.0001) %MON advcfl_W_hf_max              =   9.1769713900794E-02
(PID.TID 0000.0001) %MON pe_b_mean                    =   2.4920494953330E-03
(PID.TID 0000.0001) %MON ke_max                       =   2.3630708149137E+00
(PID.TID 0000.0001) %MON ke_mean                      =   1.0184427114592E-03
(PID.TID 0000.0001) %MON ke_vol                       =   1.3350064351420E+18
(PID.TID 0000.0001) %MON vort_r_min                   =  -9.1456792550865E-05
(PID.TID 0000.0001) %MON vort_r_max                   =   9.8488797299299E-05
(PID.TID 0000.0001) %MON vort_a_mean                  =  -1.9725077577594E-05
(PID.TID 0000.0001) %MON vort_a_sd                    =   7.4540089359050E-05
(PID.TID 0000.0001) %MON vort_p_mean                  =  -2.1669082606471E-05
(PID.TID 0000.0001) %MON vort_p_sd                    =   9.3612767500138E-05
(PID.TID 0000.0001) %MON surfExpan_theta_mean         =   2.3095547864893E-05
(PID.TID 0000.0001) %MON surfExpan_salt_mean          =   1.5129077361286E-05
(PID.TID 0000.0001) // =======================================================
(PID.TID 0000.0001) // End MONITOR dynamic field statistics
(PID.TID 0000.0001) // =======================================================
(PID.TID 0000.0001) // =======================================================
(PID.TID 0000.0001) // Begin MONITOR SEAICE statistics
(PID.TID 0000.0001) // =======================================================
(PID.TID 0000.0001) %MON seaice_tsnumber              =                174823
(PID.TID 0000.0001) %MON seaice_time_sec              =   7.8670350000000E+07
(PID.TID 0000.0001) %MON seaice_uice_max              =   1.3368377462060E+00
(PID.TID 0000.0001) %MON seaice_uice_min              =  -1.2337072968138E+00
(PID.TID 0000.0001) %MON seaice_uice_mean             =   4.8301461569762E-03
(PID.TID 0000.0001) %MON seaice_uice_sd               =   1.5435127204621E-01
(PID.TID 0000.0001) %MON seaice_uice_del2             =   3.4772280845734E-04
(PID.TID 0000.0001) %MON seaice_vice_max              =   9.2509779213158E-01
(PID.TID 0000.0001) %MON seaice_vice_min              =  -1.5005095249302E+00
(PID.TID 0000.0001) %MON seaice_vice_mean             =  -2.2106545662885E-02
(PID.TID 0000.0001) %MON seaice_vice_sd               =   1.6534489668026E-01
(PID.TID 0000.0001) %MON seaice_vice_del2             =   3.2586792429286E-04
(PID.TID 0000.0001) %MON seaice_area_max              =   1.0035608116891E+00
(PID.TID 0000.0001) %MON seaice_area_min              =   0.0000000000000E+00
(PID.TID 0000.0001) %MON seaice_area_mean             =   5.7487172533961E-02
(PID.TID 0000.0001) %MON seaice_area_sd               =   2.2096416687472E-01
(PID.TID 0000.0001) %MON seaice_area_del2             =   2.8944639005415E-04
(PID.TID 0000.0001) %MON seaice_heff_max              =   9.9479813151579E+00
(PID.TID 0000.0001) %MON seaice_heff_min              =   0.0000000000000E+00
(PID.TID 0000.0001) %MON seaice_heff_mean             =   1.4957170496892E-01
(PID.TID 0000.0001) %MON seaice_heff_sd               =   7.2015014535610E-01
(PID.TID 0000.0001) %MON seaice_heff_del2             =   1.3679797769392E-03
(PID.TID 0000.0001) %MON seaice_hsnow_max             =   3.2858451824589E+00
(PID.TID 0000.0001) %MON seaice_hsnow_min             =   0.0000000000000E+00
(PID.TID 0000.0001) %MON seaice_hsnow_mean            =   1.2635976093659E-02
(PID.TID 0000.0001) %MON seaice_hsnow_sd              =   6.8135300827084E-02
(PID.TID 0000.0001) %MON seaice_hsnow_del2            =   3.7362510046964E-04
(PID.TID 0000.0001) // =======================================================
(PID.TID 0000.0001) // End MONITOR SEAICE statistics
(PID.TID 0000.0001) // =======================================================
(PID.TID 0000.0001) // =======================================================
(PID.TID 0000.0001) // Begin MONITOR dynamic field statistics
(PID.TID 0000.0001) // =======================================================
(PID.TID 0000.0001) %MON time_tsnumber                =                174824
(PID.TID 0000.0001) %MON time_secondsf                =   7.8670800000000E+07
(PID.TID 0000.0001) %MON dynstat_eta_max              =   2.3862597688688E+00
(PID.TID 0000.0001) %MON dynstat_eta_min              =  -1.0264486658316E+01
(PID.TID 0000.0001) %MON dynstat_eta_mean             =   8.8609529953175E-02
(PID.TID 0000.0001) %MON dynstat_eta_sd               =   9.0189899443367E-01
(PID.TID 0000.0001) %MON dynstat_eta_del2             =   2.0112006445818E-03
(PID.TID 0000.0001) %MON dynstat_uvel_max             =   2.2037909039507E+00
(PID.TID 0000.0001) %MON dynstat_uvel_min             =  -2.5857452806609E+00
(PID.TID 0000.0001) %MON dynstat_uvel_mean            =   3.6592087859211E-03
(PID.TID 0000.0001) %MON dynstat_uvel_sd              =   3.2293029876761E-02
(PID.TID 0000.0001) %MON dynstat_uvel_del2            =   3.7518027307362E-05
(PID.TID 0000.0001) %MON dynstat_vvel_max             =   1.8661798681070E+00
(PID.TID 0000.0001) %MON dynstat_vvel_min             =  -2.1855106509028E+00
(PID.TID 0000.0001) %MON dynstat_vvel_mean            =   3.4549144110380E-03
(PID.TID 0000.0001) %MON dynstat_vvel_sd              =   3.2516906355499E-02
(PID.TID 0000.0001) %MON dynstat_vvel_del2            =   3.5741460272866E-05
(PID.TID 0000.0001) %MON dynstat_wvel_max             =   7.9569354890102E-03
(PID.TID 0000.0001) %MON dynstat_wvel_min             =  -7.6899669490703E-03
(PID.TID 0000.0001) %MON dynstat_wvel_mean            =   5.1950313554840E-07
(PID.TID 0000.0001) %MON dynstat_wvel_sd              =   1.2774677249734E-04
(PID.TID 0000.0001) %MON dynstat_wvel_del2            =   2.9239424383618E-07
(PID.TID 0000.0001) %MON dynstat_theta_max            =   3.2451671430240E+01
(PID.TID 0000.0001) %MON dynstat_theta_min            =  -2.0431793506639E+00
(PID.TID 0000.0001) %MON dynstat_theta_mean           =   3.5919790565206E+00
(PID.TID 0000.0001) %MON dynstat_theta_sd             =   4.4419434653952E+00
(PID.TID 0000.0001) %MON dynstat_theta_del2           =   1.2566439805750E-04
(PID.TID 0000.0001) %MON dynstat_salt_max             =   4.0655990076281E+01
(PID.TID 0000.0001) %MON dynstat_salt_min             =   1.6003321212385E+01
(PID.TID 0000.0001) %MON dynstat_salt_mean            =   3.4724797850247E+01
(PID.TID 0000.0001) %MON dynstat_salt_sd              =   3.7974102918779E-01
(PID.TID 0000.0001) %MON dynstat_salt_del2            =   6.5135318383407E-05
(PID.TID 0000.0001) %MON dynstat_sst_max              =   3.2451671430240E+01
(PID.TID 0000.0001) %MON dynstat_sst_min              =  -2.0431793506639E+00
(PID.TID 0000.0001) %MON dynstat_sst_mean             =   1.8183269409299E+01
(PID.TID 0000.0001) %MON dynstat_sst_sd               =   1.0196061682432E+01
(PID.TID 0000.0001) %MON dynstat_sst_del2             =   1.1005215861161E-03
(PID.TID 0000.0001) %MON dynstat_sss_max              =   3.9464527302795E+01
(PID.TID 0000.0001) %MON dynstat_sss_min              =   1.6003321212385E+01
(PID.TID 0000.0001) %MON dynstat_sss_mean             =   3.4642990749859E+01
(PID.TID 0000.0001) %MON dynstat_sss_sd               =   1.3000547719420E+00
(PID.TID 0000.0001) %MON dynstat_sss_del2             =   1.4719736813163E-03
(PID.TID 0000.0001) %MON forcing_qnet_max             =   6.2775703913001E+03
(PID.TID 0000.0001) %MON forcing_qnet_min             =  -2.4598344726562E+03
(PID.TID 0000.0001) %MON forcing_qnet_mean            =   1.9788549007000E+01
(PID.TID 0000.0001) %MON forcing_qnet_sd              =   1.9676695389260E+02
(PID.TID 0000.0001) %MON forcing_qnet_del2            =   5.6242450593841E-01
(PID.TID 0000.0001) %MON forcing_qsw_max              =   0.0000000000000E+00
(PID.TID 0000.0001) %MON forcing_qsw_min              =  -1.1193022872567E+02
(PID.TID 0000.0001) %MON forcing_qsw_mean             =  -1.6733327004113E+01
(PID.TID 0000.0001) %MON forcing_qsw_sd               =   2.8730520047346E+01
(PID.TID 0000.0001) %MON forcing_qsw_del2             =   2.2845163028040E-02
(PID.TID 0000.0001) %MON forcing_empmr_max            =   5.4203484207392E-02
(PID.TID 0000.0001) %MON forcing_empmr_min            =  -3.9212003350258E-02
(PID.TID 0000.0001) %MON forcing_empmr_mean           =  -8.8167688117492E-07
(PID.TID 0000.0001) %MON forcing_empmr_sd             =   4.0843782797939E-04
(PID.TID 0000.0001) %MON forcing_empmr_del2           =   4.1547570481889E-06
(PID.TID 0000.0001) %MON forcing_fu_max               =   7.4769487977028E-01
(PID.TID 0000.0001) %MON forcing_fu_min               =  -1.1712465620518E+00
(PID.TID 0000.0001) %MON forcing_fu_mean              =   1.2199212788423E-02
(PID.TID 0000.0001) %MON forcing_fu_sd                =   1.2556879495349E-01
(PID.TID 0000.0001) %MON forcing_fu_del2              =   1.6153721939305E-04
(PID.TID 0000.0001) %MON forcing_fv_max               =   9.4095093011856E-01
(PID.TID 0000.0001) %MON forcing_fv_min               =  -1.2399678985229E+00
(PID.TID 0000.0001) %MON forcing_fv_mean              =  -1.4033307660349E-03
(PID.TID 0000.0001) %MON forcing_fv_sd                =   1.0976836446191E-01
(PID.TID 0000.0001) %MON forcing_fv_del2              =   1.4816266857895E-04
(PID.TID 0000.0001) %MON trAdv_CFL_u_max              =   2.6671080661467E-02
(PID.TID 0000.0001) %MON trAdv_CFL_v_max              =   1.9153900663208E-02
(PID.TID 0000.0001) %MON trAdv_CFL_w_max              =   9.1086480693468E-02
(PID.TID 0000.0001) %MON advcfl_uvel_max              =   2.7027843518277E-02
(PID.TID 0000.0001) %MON advcfl_vvel_max              =   1.8988975716322E-02
(PID.TID 0000.0001) %MON advcfl_wvel_max              =   8.5871550663752E-02
(PID.TID 0000.0001) %MON advcfl_W_hf_max              =   9.1086480693468E-02
(PID.TID 0000.0001) %MON pe_b_mean                    =   2.4989192349253E-03
(PID.TID 0000.0001) %MON ke_max                       =   2.3505461981741E+00
(PID.TID 0000.0001) %MON ke_mean                      =   1.0249047918220E-03
(PID.TID 0000.0001) %MON ke_vol                       =   1.3350064351420E+18
(PID.TID 0000.0001) %MON vort_r_min                   =  -9.1267722512224E-05
(PID.TID 0000.0001) %MON vort_r_max                   =   9.8218572600647E-05
(PID.TID 0000.0001) %MON vort_a_mean                  =  -1.9725077683405E-05
(PID.TID 0000.0001) %MON vort_a_sd                    =   7.4540119277124E-05
(PID.TID 0000.0001) %MON vort_p_mean                  =  -2.1669082722711E-05
(PID.TID 0000.0001) %MON vort_p_sd                    =   9.3612917440777E-05
(PID.TID 0000.0001) %MON surfExpan_theta_mean         =   2.3109563045100E-05
(PID.TID 0000.0001) %MON surfExpan_salt_mean          =   1.4627559816112E-05
(PID.TID 0000.0001) // =======================================================
(PID.TID 0000.0001) // End MONITOR dynamic field statistics
(PID.TID 0000.0001) // =======================================================
(PID.TID 0000.0001) // =======================================================
(PID.TID 0000.0001) // Begin MONITOR SEAICE statistics
(PID.TID 0000.0001) // =======================================================
(PID.TID 0000.0001) %MON seaice_tsnumber              =                174824
(PID.TID 0000.0001) %MON seaice_time_sec              =   7.8670800000000E+07
(PID.TID 0000.0001) %MON seaice_uice_max              =   1.3358542218472E+00
(PID.TID 0000.0001) %MON seaice_uice_min              =  -1.2255262506570E+00
(PID.TID 0000.0001) %MON seaice_uice_mean             =   4.9113768884115E-03
(PID.TID 0000.0001) %MON seaice_uice_sd               =   1.5426675059450E-01
(PID.TID 0000.0001) %MON seaice_uice_del2             =   3.4786833188082E-04
(PID.TID 0000.0001) %MON seaice_vice_max              =   9.2682455843295E-01
(PID.TID 0000.0001) %MON seaice_vice_min              =  -1.5003072991212E+00
(PID.TID 0000.0001) %MON seaice_vice_mean             =  -2.1946965077357E-02
(PID.TID 0000.0001) %MON seaice_vice_sd               =   1.6510355916024E-01
(PID.TID 0000.0001) %MON seaice_vice_del2             =   3.2612986114989E-04
(PID.TID 0000.0001) %MON seaice_area_max              =   1.0035967293194E+00
(PID.TID 0000.0001) %MON seaice_area_min              =   0.0000000000000E+00
(PID.TID 0000.0001) %MON seaice_area_mean             =   5.7488627494591E-02
(PID.TID 0000.0001) %MON seaice_area_sd               =   2.2096013586766E-01
(PID.TID 0000.0001) %MON seaice_area_del2             =   2.8939522688763E-04
(PID.TID 0000.0001) %MON seaice_heff_max              =   9.9479679850255E+00
(PID.TID 0000.0001) %MON seaice_heff_min              =   0.0000000000000E+00
(PID.TID 0000.0001) %MON seaice_heff_mean             =   1.4956772809195E-01
(PID.TID 0000.0001) %MON seaice_heff_sd               =   7.2013876385821E-01
(PID.TID 0000.0001) %MON seaice_heff_del2             =   1.3674324043661E-03
(PID.TID 0000.0001) %MON seaice_hsnow_max             =   3.2858410608838E+00
(PID.TID 0000.0001) %MON seaice_hsnow_min             =   0.0000000000000E+00
(PID.TID 0000.0001) %MON seaice_hsnow_mean            =   1.2635372417584E-02
(PID.TID 0000.0001) %MON seaice_hsnow_sd              =   6.8127777919639E-02
(PID.TID 0000.0001) %MON seaice_hsnow_del2            =   3.7338379796007E-04
(PID.TID 0000.0001) // =======================================================
(PID.TID 0000.0001) // End MONITOR SEAICE statistics
(PID.TID 0000.0001) // =======================================================
(PID.TID 0000.0001) // =======================================================
(PID.TID 0000.0001) // Begin MONITOR dynamic field statistics
(PID.TID 0000.0001) // =======================================================
(PID.TID 0000.0001) %MON time_tsnumber                =                174825
(PID.TID 0000.0001) %MON time_secondsf                =   7.8671250000000E+07
(PID.TID 0000.0001) %MON dynstat_eta_max              =   2.4185468060277E+00
(PID.TID 0000.0001) %MON dynstat_eta_min              =  -1.0204067230763E+01
(PID.TID 0000.0001) %MON dynstat_eta_mean             =   8.8768183401663E-02
(PID.TID 0000.0001) %MON dynstat_eta_sd               =   9.0301446369572E-01
(PID.TID 0000.0001) %MON dynstat_eta_del2             =   2.0111929427490E-03
(PID.TID 0000.0001) %MON dynstat_uvel_max             =   2.1941223195750E+00
(PID.TID 0000.0001) %MON dynstat_uvel_min             =  -2.5795205528685E+00
(PID.TID 0000.0001) %MON dynstat_uvel_mean            =   3.6977156931458E-03
(PID.TID 0000.0001) %MON dynstat_uvel_sd              =   3.2419309798850E-02
(PID.TID 0000.0001) %MON dynstat_uvel_del2            =   3.7571651052745E-05
(PID.TID 0000.0001) %MON dynstat_vvel_max             =   1.8614808345837E+00
(PID.TID 0000.0001) %MON dynstat_vvel_min             =  -2.1799413264891E+00
(PID.TID 0000.0001) %MON dynstat_vvel_mean            =   3.4901142957063E-03
(PID.TID 0000.0001) %MON dynstat_vvel_sd              =   3.2596166340586E-02
(PID.TID 0000.0001) %MON dynstat_vvel_del2            =   3.5806812990163E-05
(PID.TID 0000.0001) %MON dynstat_wvel_max             =   7.9787848484168E-03
(PID.TID 0000.0001) %MON dynstat_wvel_min             =  -7.6859375389611E-03
(PID.TID 0000.0001) %MON dynstat_wvel_mean            =   5.1337532524336E-07
(PID.TID 0000.0001) %MON dynstat_wvel_sd              =   1.2839816879180E-04
(PID.TID 0000.0001) %MON dynstat_wvel_del2            =   2.9346391098236E-07
(PID.TID 0000.0001) %MON dynstat_theta_max            =   3.2452296216281E+01
(PID.TID 0000.0001) %MON dynstat_theta_min            =  -2.0432714710494E+00
(PID.TID 0000.0001) %MON dynstat_theta_mean           =   3.5919758359157E+00
(PID.TID 0000.0001) %MON dynstat_theta_sd             =   4.4419379172748E+00
(PID.TID 0000.0001) %MON dynstat_theta_del2           =   1.2570702168346E-04
(PID.TID 0000.0001) %MON dynstat_salt_max             =   4.0655990038396E+01
(PID.TID 0000.0001) %MON dynstat_salt_min             =   1.6001951825863E+01
(PID.TID 0000.0001) %MON dynstat_salt_mean            =   3.4724797550538E+01
(PID.TID 0000.0001) %MON dynstat_salt_sd              =   3.7974154632945E-01
(PID.TID 0000.0001) %MON dynstat_salt_del2            =   6.5096861729000E-05
(PID.TID 0000.0001) %MON dynstat_sst_max              =   3.2452296216281E+01
(PID.TID 0000.0001) %MON dynstat_sst_min              =  -2.0432714710494E+00
(PID.TID 0000.0001) %MON dynstat_sst_mean             =   1.8182951368059E+01
(PID.TID 0000.0001) %MON dynstat_sst_sd               =   1.0196229790184E+01
(PID.TID 0000.0001) %MON dynstat_sst_del2             =   1.1009403691504E-03
(PID.TID 0000.0001) %MON dynstat_sss_max              =   3.9464438356113E+01
(PID.TID 0000.0001) %MON dynstat_sss_min              =   1.6001951825863E+01
(PID.TID 0000.0001) %MON dynstat_sss_mean             =   3.4642952026505E+01
(PID.TID 0000.0001) %MON dynstat_sss_sd               =   1.3001261685073E+00
(PID.TID 0000.0001) %MON dynstat_sss_del2             =   1.4719512004280E-03
(PID.TID 0000.0001) %MON forcing_qnet_max             =   2.2936411494232E+03
(PID.TID 0000.0001) %MON forcing_qnet_min             =  -1.2365174061227E+03
(PID.TID 0000.0001) %MON forcing_qnet_mean            =   2.1417235027846E+01
(PID.TID 0000.0001) %MON forcing_qnet_sd              =   1.9413475312253E+02
(PID.TID 0000.0001) %MON forcing_qnet_del2            =   4.3096453969871E-01
(PID.TID 0000.0001) %MON forcing_qsw_max              =   0.0000000000000E+00
(PID.TID 0000.0001) %MON forcing_qsw_min              =  -1.1172092265295E+02
(PID.TID 0000.0001) %MON forcing_qsw_mean             =  -1.6624249619838E+01
(PID.TID 0000.0001) %MON forcing_qsw_sd               =   2.8766928833090E+01
(PID.TID 0000.0001) %MON forcing_qsw_del2             =   2.2687606301909E-02
(PID.TID 0000.0001) %MON forcing_empmr_max            =   2.1612143144011E-02
(PID.TID 0000.0001) %MON forcing_empmr_min            =  -3.7664256989956E-02
(PID.TID 0000.0001) %MON forcing_empmr_mean           =  -1.7258483811318E-06
(PID.TID 0000.0001) %MON forcing_empmr_sd             =   3.1417033286659E-04
(PID.TID 0000.0001) %MON forcing_empmr_del2           =   3.3015323097332E-06
(PID.TID 0000.0001) %MON forcing_fu_max               =   7.2534045577049E-01
(PID.TID 0000.0001) %MON forcing_fu_min               =  -1.1756765421041E+00
(PID.TID 0000.0001) %MON forcing_fu_mean              =   1.2213770977991E-02
(PID.TID 0000.0001) %MON forcing_fu_sd                =   1.2563500331287E-01
(PID.TID 0000.0001) %MON forcing_fu_del2              =   1.6176802838087E-04
(PID.TID 0000.0001) %MON forcing_fv_max               =   9.3994590640068E-01
(PID.TID 0000.0001) %MON forcing_fv_min               =  -1.2317320783485E+00
(PID.TID 0000.0001) %MON forcing_fv_mean              =  -1.3905327652136E-03
(PID.TID 0000.0001) %MON forcing_fv_sd                =   1.0989537049258E-01
(PID.TID 0000.0001) %MON forcing_fv_del2              =   1.4800775365093E-04
(PID.TID 0000.0001) %MON trAdv_CFL_u_max              =   2.6606874717329E-02
(PID.TID 0000.0001) %MON trAdv_CFL_v_max              =   1.9123370143897E-02
(PID.TID 0000.0001) %MON trAdv_CFL_w_max              =   9.0407884213909E-02
(PID.TID 0000.0001) %MON advcfl_uvel_max              =   2.6962778730197E-02
(PID.TID 0000.0001) %MON advcfl_vvel_max              =   1.8915110922314E-02
(PID.TID 0000.0001) %MON advcfl_wvel_max              =   8.5213073288582E-02
(PID.TID 0000.0001) %MON advcfl_W_hf_max              =   9.0407884213909E-02
(PID.TID 0000.0001) %MON pe_b_mean                    =   2.5055574316139E-03
(PID.TID 0000.0001) %MON ke_max                       =   2.3379802538896E+00
(PID.TID 0000.0001) %MON ke_mean                      =   1.0315879406776E-03
(PID.TID 0000.0001) %MON ke_vol                       =   1.3350064351420E+18
(PID.TID 0000.0001) %MON vort_r_min                   =  -9.1075353152376E-05
(PID.TID 0000.0001) %MON vort_r_max                   =   9.7946775426732E-05
(PID.TID 0000.0001) %MON vort_a_mean                  =  -1.9725077799868E-05
(PID.TID 0000.0001) %MON vort_a_sd                    =   7.4540149919670E-05
(PID.TID 0000.0001) %MON vort_p_mean                  =  -2.1669082850652E-05
(PID.TID 0000.0001) %MON vort_p_sd                    =   9.3613068451886E-05
(PID.TID 0000.0001) %MON surfExpan_theta_mean         =   2.3117817701956E-05
(PID.TID 0000.0001) %MON surfExpan_salt_mean          =   1.4135770146766E-05
(PID.TID 0000.0001) // =======================================================
(PID.TID 0000.0001) // End MONITOR dynamic field statistics
(PID.TID 0000.0001) // =======================================================
(PID.TID 0000.0001) // =======================================================
(PID.TID 0000.0001) // Begin MONITOR SEAICE statistics
(PID.TID 0000.0001) // =======================================================
(PID.TID 0000.0001) %MON seaice_tsnumber              =                174825
(PID.TID 0000.0001) %MON seaice_time_sec              =   7.8671250000000E+07
(PID.TID 0000.0001) %MON seaice_uice_max              =   1.3347761477860E+00
(PID.TID 0000.0001) %MON seaice_uice_min              =  -1.2168887595334E+00
(PID.TID 0000.0001) %MON seaice_uice_mean             =   4.9953776839015E-03
(PID.TID 0000.0001) %MON seaice_uice_sd               =   1.5418301032517E-01
(PID.TID 0000.0001) %MON seaice_uice_del2             =   3.4802491107579E-04
(PID.TID 0000.0001) %MON seaice_vice_max              =   9.2882264721844E-01
(PID.TID 0000.0001) %MON seaice_vice_min              =  -1.5003077777807E+00
(PID.TID 0000.0001) %MON seaice_vice_mean             =  -2.1814491601910E-02
(PID.TID 0000.0001) %MON seaice_vice_sd               =   1.6493641720411E-01
(PID.TID 0000.0001) %MON seaice_vice_del2             =   3.2640427709006E-04
(PID.TID 0000.0001) %MON seaice_area_max              =   1.0036220281115E+00
(PID.TID 0000.0001) %MON seaice_area_min              =   0.0000000000000E+00
(PID.TID 0000.0001) %MON seaice_area_mean             =   5.7490082167195E-02
(PID.TID 0000.0001) %MON seaice_area_sd               =   2.2095608175285E-01
(PID.TID 0000.0001) %MON seaice_area_del2             =   2.8934304042347E-04
(PID.TID 0000.0001) %MON seaice_heff_max              =   9.9479556088768E+00
(PID.TID 0000.0001) %MON seaice_heff_min              =   0.0000000000000E+00
(PID.TID 0000.0001) %MON seaice_heff_mean             =   1.4956376053367E-01
(PID.TID 0000.0001) %MON seaice_heff_sd               =   7.2012734374012E-01
(PID.TID 0000.0001) %MON seaice_heff_del2             =   1.3668853055759E-03
(PID.TID 0000.0001) %MON seaice_hsnow_max             =   3.2858362243930E+00
(PID.TID 0000.0001) %MON seaice_hsnow_min             =   0.0000000000000E+00
(PID.TID 0000.0001) %MON seaice_hsnow_mean            =   1.2634764135525E-02
(PID.TID 0000.0001) %MON seaice_hsnow_sd              =   6.8120112723043E-02
(PID.TID 0000.0001) %MON seaice_hsnow_del2            =   3.7314429195098E-04
(PID.TID 0000.0001) // =======================================================
(PID.TID 0000.0001) // End MONITOR SEAICE statistics
(PID.TID 0000.0001) // =======================================================
(PID.TID 0000.0001) // =======================================================
(PID.TID 0000.0001) // Begin MONITOR dynamic field statistics
(PID.TID 0000.0001) // =======================================================
(PID.TID 0000.0001) %MON time_tsnumber                =                174826
(PID.TID 0000.0001) %MON time_secondsf                =   7.8671700000000E+07
(PID.TID 0000.0001) %MON dynstat_eta_max              =   2.4431612618344E+00
(PID.TID 0000.0001) %MON dynstat_eta_min              =  -1.0191596144178E+01
(PID.TID 0000.0001) %MON dynstat_eta_mean             =   8.8920506712239E-02
(PID.TID 0000.0001) %MON dynstat_eta_sd               =   9.0410367116313E-01
(PID.TID 0000.0001) %MON dynstat_eta_del2             =   2.0111760103093E-03
(PID.TID 0000.0001) %MON dynstat_uvel_max             =   2.1843334844244E+00
(PID.TID 0000.0001) %MON dynstat_uvel_min             =  -2.5732511169128E+00
(PID.TID 0000.0001) %MON dynstat_uvel_mean            =   3.7413996556702E-03
(PID.TID 0000.0001) %MON dynstat_uvel_sd              =   3.2548174849477E-02
(PID.TID 0000.0001) %MON dynstat_uvel_del2            =   3.7625981417889E-05
(PID.TID 0000.0001) %MON dynstat_vvel_max             =   1.8558813962861E+00
(PID.TID 0000.0001) %MON dynstat_vvel_min             =  -2.1742576428804E+00
(PID.TID 0000.0001) %MON dynstat_vvel_mean            =   3.5244557148085E-03
(PID.TID 0000.0001) %MON dynstat_vvel_sd              =   3.2680156588306E-02
(PID.TID 0000.0001) %MON dynstat_vvel_del2            =   3.5872837980788E-05
(PID.TID 0000.0001) %MON dynstat_wvel_max             =   8.0004798513387E-03
(PID.TID 0000.0001) %MON dynstat_wvel_min             =  -7.6818263533962E-03
(PID.TID 0000.0001) %MON dynstat_wvel_mean            =   5.0715957781412E-07
(PID.TID 0000.0001) %MON dynstat_wvel_sd              =   1.2905577934060E-04
(PID.TID 0000.0001) %MON dynstat_wvel_del2            =   2.9454395455115E-07
(PID.TID 0000.0001) %MON dynstat_theta_max            =   3.2452851123578E+01
(PID.TID 0000.0001) %MON dynstat_theta_min            =  -2.0433660002673E+00
(PID.TID 0000.0001) %MON dynstat_theta_mean           =   3.5919725998096E+00
(PID.TID 0000.0001) %MON dynstat_theta_sd             =   4.4419321984981E+00
(PID.TID 0000.0001) %MON dynstat_theta_del2           =   1.2574478515855E-04
(PID.TID 0000.0001) %MON dynstat_salt_max             =   4.0655990001767E+01
(PID.TID 0000.0001) %MON dynstat_salt_min             =   1.6000595039664E+01
(PID.TID 0000.0001) %MON dynstat_salt_mean            =   3.4724797255244E+01
(PID.TID 0000.0001) %MON dynstat_salt_sd              =   3.7974200360648E-01
(PID.TID 0000.0001) %MON dynstat_salt_del2            =   6.5056881288536E-05
(PID.TID 0000.0001) %MON dynstat_sst_max              =   3.2452851123578E+01
(PID.TID 0000.0001) %MON dynstat_sst_min              =  -2.0433660002673E+00
(PID.TID 0000.0001) %MON dynstat_sst_mean             =   1.8182665565255E+01
(PID.TID 0000.0001) %MON dynstat_sst_sd               =   1.0196419108544E+01
(PID.TID 0000.0001) %MON dynstat_sst_del2             =   1.1008658159794E-03
(PID.TID 0000.0001) %MON dynstat_sss_max              =   3.9464492133586E+01
(PID.TID 0000.0001) %MON dynstat_sss_min              =   1.6000595039664E+01
(PID.TID 0000.0001) %MON dynstat_sss_mean             =   3.4642914542242E+01
(PID.TID 0000.0001) %MON dynstat_sss_sd               =   1.3001966231695E+00
(PID.TID 0000.0001) %MON dynstat_sss_del2             =   1.4718005608144E-03
(PID.TID 0000.0001) %MON forcing_qnet_max             =   1.5822666349329E+03
(PID.TID 0000.0001) %MON forcing_qnet_min             =  -1.5777239990234E+03
(PID.TID 0000.0001) %MON forcing_qnet_mean            =   2.2077417332698E+01
(PID.TID 0000.0001) %MON forcing_qnet_sd              =   1.9442928829875E+02
(PID.TID 0000.0001) %MON forcing_qnet_del2            =   4.4409684307642E-01
(PID.TID 0000.0001) %MON forcing_qsw_max              =   0.0000000000000E+00
(PID.TID 0000.0001) %MON forcing_qsw_min              =  -1.1142196503849E+02
(PID.TID 0000.0001) %MON forcing_qsw_mean             =  -1.6506461014810E+01
(PID.TID 0000.0001) %MON forcing_qsw_sd               =   2.8789613864189E+01
(PID.TID 0000.0001) %MON forcing_qsw_del2             =   2.2520485662210E-02
(PID.TID 0000.0001) %MON forcing_empmr_max            =   2.2127008065581E-02
(PID.TID 0000.0001) %MON forcing_empmr_min            =  -3.9173554629087E-02
(PID.TID 0000.0001) %MON forcing_empmr_mean           =  -1.7068397410790E-06
(PID.TID 0000.0001) %MON forcing_empmr_sd             =   3.1172524154774E-04
(PID.TID 0000.0001) %MON forcing_empmr_del2           =   3.2620494279420E-06
(PID.TID 0000.0001) %MON forcing_fu_max               =   7.5269085168838E-01
(PID.TID 0000.0001) %MON forcing_fu_min               =  -1.1815654021185E+00
(PID.TID 0000.0001) %MON forcing_fu_mean              =   1.2224986178852E-02
(PID.TID 0000.0001) %MON forcing_fu_sd                =   1.2569669489113E-01
(PID.TID 0000.0001) %MON forcing_fu_del2              =   1.6204463485671E-04
(PID.TID 0000.0001) %MON forcing_fv_max               =   9.3912014365196E-01
(PID.TID 0000.0001) %MON forcing_fv_min               =  -1.2220859396737E+00
(PID.TID 0000.0001) %MON forcing_fv_mean              =  -1.3715833240570E-03
(PID.TID 0000.0001) %MON forcing_fv_sd                =   1.1001701931747E-01
(PID.TID 0000.0001) %MON forcing_fv_del2              =   1.4791856712519E-04
(PID.TID 0000.0001) %MON trAdv_CFL_u_max              =   2.6542207623734E-02
(PID.TID 0000.0001) %MON trAdv_CFL_v_max              =   1.9091095010043E-02
(PID.TID 0000.0001) %MON trAdv_CFL_w_max              =   8.9736415747555E-02
(PID.TID 0000.0001) %MON advcfl_uvel_max              =   2.6897246624144E-02
(PID.TID 0000.0001) %MON advcfl_vvel_max              =   1.8831300557819E-02
(PID.TID 0000.0001) %MON advcfl_wvel_max              =   8.4562077982112E-02
(PID.TID 0000.0001) %MON advcfl_W_hf_max              =   8.9736415747555E-02
(PID.TID 0000.0001) %MON pe_b_mean                    =   2.5119480221751E-03
(PID.TID 0000.0001) %MON ke_max                       =   2.3253707721177E+00
(PID.TID 0000.0001) %MON ke_mean                      =   1.0385411136754E-03
(PID.TID 0000.0001) %MON ke_vol                       =   1.3350064351420E+18
(PID.TID 0000.0001) %MON vort_r_min                   =  -9.0879330858684E-05
(PID.TID 0000.0001) %MON vort_r_max                   =   9.7673357282915E-05
(PID.TID 0000.0001) %MON vort_a_mean                  =  -1.9725077925862E-05
(PID.TID 0000.0001) %MON vort_a_sd                    =   7.4540181262784E-05
(PID.TID 0000.0001) %MON vort_p_mean                  =  -2.1669082989064E-05
(PID.TID 0000.0001) %MON vort_p_sd                    =   9.3613220132155E-05
(PID.TID 0000.0001) %MON surfExpan_theta_mean         =   2.3105940658266E-05
(PID.TID 0000.0001) %MON surfExpan_salt_mean          =   1.3635716621812E-05
(PID.TID 0000.0001) // =======================================================
(PID.TID 0000.0001) // End MONITOR dynamic field statistics
(PID.TID 0000.0001) // =======================================================
(PID.TID 0000.0001) // =======================================================
(PID.TID 0000.0001) // Begin MONITOR SEAICE statistics
(PID.TID 0000.0001) // =======================================================
(PID.TID 0000.0001) %MON seaice_tsnumber              =                174826
(PID.TID 0000.0001) %MON seaice_time_sec              =   7.8671700000000E+07
(PID.TID 0000.0001) %MON seaice_uice_max              =   1.3335866668409E+00
(PID.TID 0000.0001) %MON seaice_uice_min              =  -1.2078553319741E+00
(PID.TID 0000.0001) %MON seaice_uice_mean             =   5.0861594130510E-03
(PID.TID 0000.0001) %MON seaice_uice_sd               =   1.5409396368348E-01
(PID.TID 0000.0001) %MON seaice_uice_del2             =   3.4821658545875E-04
(PID.TID 0000.0001) %MON seaice_vice_max              =   9.3109372320104E-01
(PID.TID 0000.0001) %MON seaice_vice_min              =  -1.5000324453940E+00
(PID.TID 0000.0001) %MON seaice_vice_mean             =  -2.1655713511422E-02
(PID.TID 0000.0001) %MON seaice_vice_sd               =   1.6471099801322E-01
(PID.TID 0000.0001) %MON seaice_vice_del2             =   3.2674704458053E-04
(PID.TID 0000.0001) %MON seaice_area_max              =   1.0036360817862E+00
(PID.TID 0000.0001) %MON seaice_area_min              =   0.0000000000000E+00
(PID.TID 0000.0001) %MON seaice_area_mean             =   5.7491529479819E-02
(PID.TID 0000.0001) %MON seaice_area_sd               =   2.2095194827078E-01
(PID.TID 0000.0001) %MON seaice_area_del2             =   2.8928649010633E-04
(PID.TID 0000.0001) %MON seaice_heff_max              =   9.9479432328928E+00
(PID.TID 0000.0001) %MON seaice_heff_min              =   0.0000000000000E+00
(PID.TID 0000.0001) %MON seaice_heff_mean             =   1.4955981149173E-01
(PID.TID 0000.0001) %MON seaice_heff_sd               =   7.2011594020046E-01
(PID.TID 0000.0001) %MON seaice_heff_del2             =   1.3663399056588E-03
(PID.TID 0000.0001) %MON seaice_hsnow_max             =   3.2858323420126E+00
(PID.TID 0000.0001) %MON seaice_hsnow_min             =   0.0000000000000E+00
(PID.TID 0000.0001) %MON seaice_hsnow_mean            =   1.2634169042308E-02
(PID.TID 0000.0001) %MON seaice_hsnow_sd              =   6.8112585987775E-02
(PID.TID 0000.0001) %MON seaice_hsnow_del2            =   3.7290620173595E-04
(PID.TID 0000.0001) // =======================================================
(PID.TID 0000.0001) // End MONITOR SEAICE statistics
(PID.TID 0000.0001) // =======================================================
(PID.TID 0000.0001) // =======================================================
(PID.TID 0000.0001) // Begin MONITOR dynamic field statistics
(PID.TID 0000.0001) // =======================================================
(PID.TID 0000.0001) %MON time_tsnumber                =                174827
(PID.TID 0000.0001) %MON time_secondsf                =   7.8672150000000E+07
(PID.TID 0000.0001) %MON dynstat_eta_max              =   2.4599342456361E+00
(PID.TID 0000.0001) %MON dynstat_eta_min              =  -1.0216640429124E+01
(PID.TID 0000.0001) %MON dynstat_eta_mean             =   8.9067092634825E-02
(PID.TID 0000.0001) %MON dynstat_eta_sd               =   9.0516571742962E-01
(PID.TID 0000.0001) %MON dynstat_eta_del2             =   2.0111586345678E-03
(PID.TID 0000.0001) %MON dynstat_uvel_max             =   2.1744498997985E+00
(PID.TID 0000.0001) %MON dynstat_uvel_min             =  -2.5669368520643E+00
(PID.TID 0000.0001) %MON dynstat_uvel_mean            =   3.7902707705528E-03
(PID.TID 0000.0001) %MON dynstat_uvel_sd              =   3.2679479541203E-02
(PID.TID 0000.0001) %MON dynstat_uvel_del2            =   3.7681817021759E-05
(PID.TID 0000.0001) %MON dynstat_vvel_max             =   1.8494008238184E+00
(PID.TID 0000.0001) %MON dynstat_vvel_min             =  -2.1684693174796E+00
(PID.TID 0000.0001) %MON dynstat_vvel_mean            =   3.5577991087877E-03
(PID.TID 0000.0001) %MON dynstat_vvel_sd              =   3.2767883529811E-02
(PID.TID 0000.0001) %MON dynstat_vvel_del2            =   3.5940510539211E-05
(PID.TID 0000.0001) %MON dynstat_wvel_max             =   8.0220307883601E-03
(PID.TID 0000.0001) %MON dynstat_wvel_min             =  -7.6776234893563E-03
(PID.TID 0000.0001) %MON dynstat_wvel_mean            =   5.0160781225327E-07
(PID.TID 0000.0001) %MON dynstat_wvel_sd              =   1.2971972524192E-04
(PID.TID 0000.0001) %MON dynstat_wvel_del2            =   2.9563406093215E-07
(PID.TID 0000.0001) %MON dynstat_theta_max            =   3.2453333059411E+01
(PID.TID 0000.0001) %MON dynstat_theta_min            =  -2.0434637325353E+00
(PID.TID 0000.0001) %MON dynstat_theta_mean           =   3.5919693188779E+00
(PID.TID 0000.0001) %MON dynstat_theta_sd             =   4.4419261530704E+00
(PID.TID 0000.0001) %MON dynstat_theta_del2           =   1.2578760234749E-04
(PID.TID 0000.0001) %MON dynstat_salt_max             =   4.0655989966470E+01
(PID.TID 0000.0001) %MON dynstat_salt_min             =   1.5999249113841E+01
(PID.TID 0000.0001) %MON dynstat_salt_mean            =   3.4724796962722E+01
(PID.TID 0000.0001) %MON dynstat_salt_sd              =   3.7974240375148E-01
(PID.TID 0000.0001) %MON dynstat_salt_del2            =   6.5019043700644E-05
(PID.TID 0000.0001) %MON dynstat_sst_max              =   3.2453333059411E+01
(PID.TID 0000.0001) %MON dynstat_sst_min              =  -2.0434637325353E+00
(PID.TID 0000.0001) %MON dynstat_sst_mean             =   1.8182356221657E+01
(PID.TID 0000.0001) %MON dynstat_sst_sd               =   1.0196587605289E+01
(PID.TID 0000.0001) %MON dynstat_sst_del2             =   1.1012466185118E-03
(PID.TID 0000.0001) %MON dynstat_sss_max              =   3.9464514370369E+01
(PID.TID 0000.0001) %MON dynstat_sss_min              =   1.5999249113841E+01
(PID.TID 0000.0001) %MON dynstat_sss_mean             =   3.4642877306285E+01
(PID.TID 0000.0001) %MON dynstat_sss_sd               =   1.3002669311330E+00
(PID.TID 0000.0001) %MON dynstat_sss_del2             =   1.4717818274356E-03
(PID.TID 0000.0001) %MON forcing_qnet_max             =   1.6135496315444E+03
(PID.TID 0000.0001) %MON forcing_qnet_min             =  -1.0868691649675E+03
(PID.TID 0000.0001) %MON forcing_qnet_mean            =   2.3740374220450E+01
(PID.TID 0000.0001) %MON forcing_qnet_sd              =   1.9462793487433E+02
(PID.TID 0000.0001) %MON forcing_qnet_del2            =   4.3281081284541E-01
(PID.TID 0000.0001) %MON forcing_qsw_max              =   0.0000000000000E+00
(PID.TID 0000.0001) %MON forcing_qsw_min              =  -1.1112599387071E+02
(PID.TID 0000.0001) %MON forcing_qsw_mean             =  -1.6380126131020E+01
(PID.TID 0000.0001) %MON forcing_qsw_sd               =   2.8798353187497E+01
(PID.TID 0000.0001) %MON forcing_qsw_del2             =   2.2344262562370E-02
(PID.TID 0000.0001) %MON forcing_empmr_max            =   2.2683648392558E-02
(PID.TID 0000.0001) %MON forcing_empmr_min            =  -3.9146456867456E-02
(PID.TID 0000.0001) %MON forcing_empmr_mean           =  -1.7925023609794E-06
(PID.TID 0000.0001) %MON forcing_empmr_sd             =   3.1257093359710E-04
(PID.TID 0000.0001) %MON forcing_empmr_del2           =   3.2412626969017E-06
(PID.TID 0000.0001) %MON forcing_fu_max               =   7.2496306896210E-01
(PID.TID 0000.0001) %MON forcing_fu_min               =  -1.1874797902398E+00
(PID.TID 0000.0001) %MON forcing_fu_mean              =   1.2231182738268E-02
(PID.TID 0000.0001) %MON forcing_fu_sd                =   1.2569454683221E-01
(PID.TID 0000.0001) %MON forcing_fu_del2              =   1.6222470665274E-04
(PID.TID 0000.0001) %MON forcing_fv_max               =   9.3746206164360E-01
(PID.TID 0000.0001) %MON forcing_fv_min               =  -1.2109248358855E+00
(PID.TID 0000.0001) %MON forcing_fv_mean              =  -1.3520900958785E-03
(PID.TID 0000.0001) %MON forcing_fv_sd                =   1.1013180086270E-01
(PID.TID 0000.0001) %MON forcing_fv_del2              =   1.4791427510338E-04
(PID.TID 0000.0001) %MON trAdv_CFL_u_max              =   2.6477078135400E-02
(PID.TID 0000.0001) %MON trAdv_CFL_v_max              =   1.9057072441965E-02
(PID.TID 0000.0001) %MON trAdv_CFL_w_max              =   8.9073758396663E-02
(PID.TID 0000.0001) %MON advcfl_uvel_max              =   2.6831245938177E-02
(PID.TID 0000.0001) %MON advcfl_vvel_max              =   1.8765543334232E-02
(PID.TID 0000.0001) %MON advcfl_wvel_max              =   8.3920182097862E-02
(PID.TID 0000.0001) %MON advcfl_W_hf_max              =   8.9073758396663E-02
(PID.TID 0000.0001) %MON pe_b_mean                    =   2.5181033717835E-03
(PID.TID 0000.0001) %MON ke_max                       =   2.3127186883392E+00
(PID.TID 0000.0001) %MON ke_mean                      =   1.0457305634521E-03
(PID.TID 0000.0001) %MON ke_vol                       =   1.3350064351420E+18
(PID.TID 0000.0001) %MON vort_r_min                   =  -9.0679571838452E-05
(PID.TID 0000.0001) %MON vort_r_max                   =   9.7398328379716E-05
(PID.TID 0000.0001) %MON vort_a_mean                  =  -1.9725078061119E-05
(PID.TID 0000.0001) %MON vort_a_sd                    =   7.4540213283649E-05
(PID.TID 0000.0001) %MON vort_p_mean                  =  -2.1669083137651E-05
(PID.TID 0000.0001) %MON vort_p_sd                    =   9.3613372360135E-05
(PID.TID 0000.0001) %MON surfExpan_theta_mean         =   2.3092508316207E-05
(PID.TID 0000.0001) %MON surfExpan_salt_mean          =   1.3171987799593E-05
(PID.TID 0000.0001) // =======================================================
(PID.TID 0000.0001) // End MONITOR dynamic field statistics
(PID.TID 0000.0001) // =======================================================
(PID.TID 0000.0001) // =======================================================
(PID.TID 0000.0001) // Begin MONITOR SEAICE statistics
(PID.TID 0000.0001) // =======================================================
(PID.TID 0000.0001) %MON seaice_tsnumber              =                174827
(PID.TID 0000.0001) %MON seaice_time_sec              =   7.8672150000000E+07
(PID.TID 0000.0001) %MON seaice_uice_max              =   1.3322857057308E+00
(PID.TID 0000.0001) %MON seaice_uice_min              =  -1.1984887273465E+00
(PID.TID 0000.0001) %MON seaice_uice_mean             =   5.1813679805815E-03
(PID.TID 0000.0001) %MON seaice_uice_sd               =   1.5400185545785E-01
(PID.TID 0000.0001) %MON seaice_uice_del2             =   3.4839954746379E-04
(PID.TID 0000.0001) %MON seaice_vice_max              =   9.3363727838514E-01
(PID.TID 0000.0001) %MON seaice_vice_min              =  -1.4999113012236E+00
(PID.TID 0000.0001) %MON seaice_vice_mean             =  -2.1513673486284E-02
(PID.TID 0000.0001) %MON seaice_vice_sd               =   1.6454917010175E-01
(PID.TID 0000.0001) %MON seaice_vice_del2             =   3.2708731223570E-04
(PID.TID 0000.0001) %MON seaice_area_max              =   1.0036376633772E+00
(PID.TID 0000.0001) %MON seaice_area_min              =   0.0000000000000E+00
(PID.TID 0000.0001) %MON seaice_area_mean             =   5.7493003651577E-02
(PID.TID 0000.0001) %MON seaice_area_sd               =   2.2094786810377E-01
(PID.TID 0000.0001) %MON seaice_area_del2             =   2.8922955217015E-04
(PID.TID 0000.0001) %MON seaice_heff_max              =   9.9479432551117E+00
(PID.TID 0000.0001) %MON seaice_heff_min              =   0.0000000000000E+00
(PID.TID 0000.0001) %MON seaice_heff_mean             =   1.4955588014770E-01
(PID.TID 0000.0001) %MON seaice_heff_sd               =   7.2010455795524E-01
(PID.TID 0000.0001) %MON seaice_heff_del2             =   1.3657946505766E-03
(PID.TID 0000.0001) %MON seaice_hsnow_max             =   3.2858323989027E+00
(PID.TID 0000.0001) %MON seaice_hsnow_min             =   0.0000000000000E+00
(PID.TID 0000.0001) %MON seaice_hsnow_mean            =   1.2633561472587E-02
(PID.TID 0000.0001) %MON seaice_hsnow_sd              =   6.8104913079994E-02
(PID.TID 0000.0001) %MON seaice_hsnow_del2            =   3.7266954093976E-04
(PID.TID 0000.0001) // =======================================================
(PID.TID 0000.0001) // End MONITOR SEAICE statistics
(PID.TID 0000.0001) // =======================================================
(PID.TID 0000.0001) // =======================================================
(PID.TID 0000.0001) // Begin MONITOR dynamic field statistics
(PID.TID 0000.0001) // =======================================================
(PID.TID 0000.0001) %MON time_tsnumber                =                174828
(PID.TID 0000.0001) %MON time_secondsf                =   7.8672600000000E+07
(PID.TID 0000.0001) %MON dynstat_eta_max              =   2.4687457690832E+00
(PID.TID 0000.0001) %MON dynstat_eta_min              =  -1.0241534197672E+01
(PID.TID 0000.0001) %MON dynstat_eta_mean             =   8.9208865790193E-02
(PID.TID 0000.0001) %MON dynstat_eta_sd               =   9.0620003707690E-01
(PID.TID 0000.0001) %MON dynstat_eta_del2             =   2.0111373654055E-03
(PID.TID 0000.0001) %MON dynstat_uvel_max             =   2.1644954812569E+00
(PID.TID 0000.0001) %MON dynstat_uvel_min             =  -2.5605799985827E+00
(PID.TID 0000.0001) %MON dynstat_uvel_mean            =   3.8443177456594E-03
(PID.TID 0000.0001) %MON dynstat_uvel_sd              =   3.2813226272139E-02
(PID.TID 0000.0001) %MON dynstat_uvel_del2            =   3.7738354598704E-05
(PID.TID 0000.0001) %MON dynstat_vvel_max             =   1.8420695559718E+00
(PID.TID 0000.0001) %MON dynstat_vvel_min             =  -2.1625864942003E+00
(PID.TID 0000.0001) %MON dynstat_vvel_mean            =   3.5900266918298E-03
(PID.TID 0000.0001) %MON dynstat_vvel_sd              =   3.2860463278534E-02
(PID.TID 0000.0001) %MON dynstat_vvel_del2            =   3.6008901136769E-05
(PID.TID 0000.0001) %MON dynstat_wvel_max             =   8.0434567673996E-03
(PID.TID 0000.0001) %MON dynstat_wvel_min             =  -7.6733639697200E-03
(PID.TID 0000.0001) %MON dynstat_wvel_mean            =   4.9714113199124E-07
(PID.TID 0000.0001) %MON dynstat_wvel_sd              =   1.3039011464450E-04
(PID.TID 0000.0001) %MON dynstat_wvel_del2            =   2.9673477930936E-07
(PID.TID 0000.0001) %MON dynstat_theta_max            =   3.2453735232069E+01
(PID.TID 0000.0001) %MON dynstat_theta_min            =  -2.0435653194845E+00
(PID.TID 0000.0001) %MON dynstat_theta_mean           =   3.5919660144231E+00
(PID.TID 0000.0001) %MON dynstat_theta_sd             =   4.4419198953444E+00
(PID.TID 0000.0001) %MON dynstat_theta_del2           =   1.2582646508016E-04
(PID.TID 0000.0001) %MON dynstat_salt_max             =   4.0655989932578E+01
(PID.TID 0000.0001) %MON dynstat_salt_min             =   1.5997911525414E+01
(PID.TID 0000.0001) %MON dynstat_salt_mean            =   3.4724796675073E+01
(PID.TID 0000.0001) %MON dynstat_salt_sd              =   3.7974274017002E-01
(PID.TID 0000.0001) %MON dynstat_salt_del2            =   6.4980033903515E-05
(PID.TID 0000.0001) %MON dynstat_sst_max              =   3.2453735232069E+01
(PID.TID 0000.0001) %MON dynstat_sst_min              =  -2.0435653194845E+00
(PID.TID 0000.0001) %MON dynstat_sst_mean             =   1.8182066529648E+01
(PID.TID 0000.0001) %MON dynstat_sst_sd               =   1.0196769212644E+01
(PID.TID 0000.0001) %MON dynstat_sst_del2             =   1.1012036624875E-03
(PID.TID 0000.0001) %MON dynstat_sss_max              =   3.9464524788813E+01
(PID.TID 0000.0001) %MON dynstat_sss_min              =   1.5997911525414E+01
(PID.TID 0000.0001) %MON dynstat_sss_mean             =   3.4642841142034E+01
(PID.TID 0000.0001) %MON dynstat_sss_sd               =   1.3003359206662E+00
(PID.TID 0000.0001) %MON dynstat_sss_del2             =   1.4716618043508E-03
(PID.TID 0000.0001) %MON forcing_qnet_max             =   1.6496980283066E+03
(PID.TID 0000.0001) %MON forcing_qnet_min             =  -3.8864562988281E+03
(PID.TID 0000.0001) %MON forcing_qnet_mean            =   2.4615458007490E+01
(PID.TID 0000.0001) %MON forcing_qnet_sd              =   1.9576872250079E+02
(PID.TID 0000.0001) %MON forcing_qnet_del2            =   4.8859478692532E-01
(PID.TID 0000.0001) %MON forcing_qsw_max              =   0.0000000000000E+00
(PID.TID 0000.0001) %MON forcing_qsw_min              =  -1.1145803449252E+02
(PID.TID 0000.0001) %MON forcing_qsw_mean             =  -1.6245281546264E+01
(PID.TID 0000.0001) %MON forcing_qsw_sd               =   2.8793033400397E+01
(PID.TID 0000.0001) %MON forcing_qsw_del2             =   2.2159379426439E-02
(PID.TID 0000.0001) %MON forcing_empmr_max            =   2.3242458701134E-02
(PID.TID 0000.0001) %MON forcing_empmr_min            =  -3.8260173052549E-02
(PID.TID 0000.0001) %MON forcing_empmr_mean           =  -1.9814901835126E-06
(PID.TID 0000.0001) %MON forcing_empmr_sd             =   3.1077810915272E-04
(PID.TID 0000.0001) %MON forcing_empmr_del2           =   3.2335312316671E-06
(PID.TID 0000.0001) %MON forcing_fu_max               =   7.2411805391312E-01
(PID.TID 0000.0001) %MON forcing_fu_min               =  -1.1920519785251E+00
(PID.TID 0000.0001) %MON forcing_fu_mean              =   1.2243067492961E-02
(PID.TID 0000.0001) %MON forcing_fu_sd                =   1.2574044208985E-01
(PID.TID 0000.0001) %MON forcing_fu_del2              =   1.6249691852518E-04
(PID.TID 0000.0001) %MON forcing_fv_max               =   9.3613970279694E-01
(PID.TID 0000.0001) %MON forcing_fv_min               =  -1.1981874909065E+00
(PID.TID 0000.0001) %MON forcing_fv_mean              =  -1.3355763807668E-03
(PID.TID 0000.0001) %MON forcing_fv_sd                =   1.1023238259845E-01
(PID.TID 0000.0001) %MON forcing_fv_del2              =   1.4781193723589E-04
(PID.TID 0000.0001) %MON trAdv_CFL_u_max              =   2.6411509359840E-02
(PID.TID 0000.0001) %MON trAdv_CFL_v_max              =   1.9021263183507E-02
(PID.TID 0000.0001) %MON trAdv_CFL_w_max              =   8.8422924340934E-02
(PID.TID 0000.0001) %MON advcfl_uvel_max              =   2.6764800088907E-02
(PID.TID 0000.0001) %MON advcfl_vvel_max              =   1.8691154254970E-02
(PID.TID 0000.0001) %MON advcfl_wvel_max              =   8.3290424639030E-02
(PID.TID 0000.0001) %MON advcfl_W_hf_max              =   8.8422924340934E-02
(PID.TID 0000.0001) %MON pe_b_mean                    =   2.5240442472429E-03
(PID.TID 0000.0001) %MON ke_max                       =   2.3000294379136E+00
(PID.TID 0000.0001) %MON ke_mean                      =   1.0531938029005E-03
(PID.TID 0000.0001) %MON ke_vol                       =   1.3350064351420E+18
(PID.TID 0000.0001) %MON vort_r_min                   =  -9.0475972521256E-05
(PID.TID 0000.0001) %MON vort_r_max                   =   9.7121795818366E-05
(PID.TID 0000.0001) %MON vort_a_mean                  =  -1.9725078203485E-05
(PID.TID 0000.0001) %MON vort_a_sd                    =   7.4540245957701E-05
(PID.TID 0000.0001) %MON vort_p_mean                  =  -2.1669083294047E-05
(PID.TID 0000.0001) %MON vort_p_sd                    =   9.3613524721999E-05
(PID.TID 0000.0001) %MON surfExpan_theta_mean         =   2.3095673597475E-05
(PID.TID 0000.0001) %MON surfExpan_salt_mean          =   1.2769796611078E-05
(PID.TID 0000.0001) // =======================================================
(PID.TID 0000.0001) // End MONITOR dynamic field statistics
(PID.TID 0000.0001) // =======================================================
(PID.TID 0000.0001) // =======================================================
(PID.TID 0000.0001) // Begin MONITOR SEAICE statistics
(PID.TID 0000.0001) // =======================================================
(PID.TID 0000.0001) %MON seaice_tsnumber              =                174828
(PID.TID 0000.0001) %MON seaice_time_sec              =   7.8672600000000E+07
(PID.TID 0000.0001) %MON seaice_uice_max              =   1.3308886437421E+00
(PID.TID 0000.0001) %MON seaice_uice_min              =  -1.1888511832765E+00
(PID.TID 0000.0001) %MON seaice_uice_mean             =   5.2824345663829E-03
(PID.TID 0000.0001) %MON seaice_uice_sd               =   1.5390514809653E-01
(PID.TID 0000.0001) %MON seaice_uice_del2             =   3.4865139244623E-04
(PID.TID 0000.0001) %MON seaice_vice_max              =   9.3645037113951E-01
(PID.TID 0000.0001) %MON seaice_vice_min              =  -1.4995087234944E+00
(PID.TID 0000.0001) %MON seaice_vice_mean             =  -2.1355196415845E-02
(PID.TID 0000.0001) %MON seaice_vice_sd               =   1.6434370769050E-01
(PID.TID 0000.0001) %MON seaice_vice_del2             =   3.2748751763190E-04
(PID.TID 0000.0001) %MON seaice_area_max              =   1.0036239295744E+00
(PID.TID 0000.0001) %MON seaice_area_min              =   0.0000000000000E+00
(PID.TID 0000.0001) %MON seaice_area_mean             =   5.7494512012057E-02
(PID.TID 0000.0001) %MON seaice_area_sd               =   2.2094386260238E-01
(PID.TID 0000.0001) %MON seaice_area_del2             =   2.8917212215319E-04
(PID.TID 0000.0001) %MON seaice_heff_max              =   9.9479394632495E+00
(PID.TID 0000.0001) %MON seaice_heff_min              =   0.0000000000000E+00
(PID.TID 0000.0001) %MON seaice_heff_mean             =   1.4955196927839E-01
(PID.TID 0000.0001) %MON seaice_heff_sd               =   7.2009320628307E-01
(PID.TID 0000.0001) %MON seaice_heff_del2             =   1.3652480806132E-03
(PID.TID 0000.0001) %MON seaice_hsnow_max             =   3.2858309741206E+00
(PID.TID 0000.0001) %MON seaice_hsnow_min             =   0.0000000000000E+00
(PID.TID 0000.0001) %MON seaice_hsnow_mean            =   1.2632968756995E-02
(PID.TID 0000.0001) %MON seaice_hsnow_sd              =   6.8097320329003E-02
(PID.TID 0000.0001) %MON seaice_hsnow_del2            =   3.7243392838881E-04
(PID.TID 0000.0001) // =======================================================
(PID.TID 0000.0001) // End MONITOR SEAICE statistics
(PID.TID 0000.0001) // =======================================================
(PID.TID 0000.0001) // =======================================================
(PID.TID 0000.0001) // Begin MONITOR dynamic field statistics
(PID.TID 0000.0001) // =======================================================
(PID.TID 0000.0001) %MON time_tsnumber                =                174829
(PID.TID 0000.0001) %MON time_secondsf                =   7.8673050000000E+07
(PID.TID 0000.0001) %MON dynstat_eta_max              =   2.4695420908925E+00
(PID.TID 0000.0001) %MON dynstat_eta_min              =  -1.0266154560078E+01
(PID.TID 0000.0001) %MON dynstat_eta_mean             =   8.9345363069137E-02
(PID.TID 0000.0001) %MON dynstat_eta_sd               =   9.0720620470556E-01
(PID.TID 0000.0001) %MON dynstat_eta_del2             =   2.0111114283715E-03
(PID.TID 0000.0001) %MON dynstat_uvel_max             =   2.1544925953733E+00
(PID.TID 0000.0001) %MON dynstat_uvel_min             =  -2.5541791205515E+00
(PID.TID 0000.0001) %MON dynstat_uvel_mean            =   3.9034912738272E-03
(PID.TID 0000.0001) %MON dynstat_uvel_sd              =   3.2949139363154E-02
(PID.TID 0000.0001) %MON dynstat_uvel_del2            =   3.7796096780859E-05
(PID.TID 0000.0001) %MON dynstat_vvel_max             =   1.8339279059139E+00
(PID.TID 0000.0001) %MON dynstat_vvel_min             =  -2.1566167961059E+00
(PID.TID 0000.0001) %MON dynstat_vvel_mean            =   3.6210065490986E-03
(PID.TID 0000.0001) %MON dynstat_vvel_sd              =   3.2956723858232E-02
(PID.TID 0000.0001) %MON dynstat_vvel_del2            =   3.6078756671088E-05
(PID.TID 0000.0001) %MON dynstat_wvel_max             =   8.0647724296402E-03
(PID.TID 0000.0001) %MON dynstat_wvel_min             =  -7.6691033254993E-03
(PID.TID 0000.0001) %MON dynstat_wvel_mean            =   4.9214904728979E-07
(PID.TID 0000.0001) %MON dynstat_wvel_sd              =   1.3106693020871E-04
(PID.TID 0000.0001) %MON dynstat_wvel_del2            =   2.9784653500225E-07
(PID.TID 0000.0001) %MON dynstat_theta_max            =   3.2454046051463E+01
(PID.TID 0000.0001) %MON dynstat_theta_min            =  -2.0436713176664E+00
(PID.TID 0000.0001) %MON dynstat_theta_mean           =   3.5919626292949E+00
(PID.TID 0000.0001) %MON dynstat_theta_sd             =   4.4419131093277E+00
(PID.TID 0000.0001) %MON dynstat_theta_del2           =   1.2586938091388E-04
(PID.TID 0000.0001) %MON dynstat_salt_max             =   4.0655989900162E+01
(PID.TID 0000.0001) %MON dynstat_salt_min             =   1.5996577160082E+01
(PID.TID 0000.0001) %MON dynstat_salt_mean            =   3.4724796391867E+01
(PID.TID 0000.0001) %MON dynstat_salt_sd              =   3.7974303166625E-01
(PID.TID 0000.0001) %MON dynstat_salt_del2            =   6.4942509379169E-05
(PID.TID 0000.0001) %MON dynstat_sst_max              =   3.2454046051463E+01
(PID.TID 0000.0001) %MON dynstat_sst_min              =  -2.0436713176664E+00
(PID.TID 0000.0001) %MON dynstat_sst_mean             =   1.8181736527024E+01
(PID.TID 0000.0001) %MON dynstat_sst_sd               =   1.0196912510334E+01
(PID.TID 0000.0001) %MON dynstat_sst_del2             =   1.1015899483479E-03
(PID.TID 0000.0001) %MON dynstat_sss_max              =   3.9464490936469E+01
(PID.TID 0000.0001) %MON dynstat_sss_min              =   1.5996577160082E+01
(PID.TID 0000.0001) %MON dynstat_sss_mean             =   3.4642805541571E+01
(PID.TID 0000.0001) %MON dynstat_sss_sd               =   1.3004053493582E+00
(PID.TID 0000.0001) %MON dynstat_sss_del2             =   1.4716389416133E-03
(PID.TID 0000.0001) %MON forcing_qnet_max             =   1.6733669060035E+03
(PID.TID 0000.0001) %MON forcing_qnet_min             =  -1.0762939144973E+03
(PID.TID 0000.0001) %MON forcing_qnet_mean            =   2.7561099168037E+01
(PID.TID 0000.0001) %MON forcing_qnet_sd              =   1.9629885688598E+02
(PID.TID 0000.0001) %MON forcing_qnet_del2            =   4.3437273898703E-01
(PID.TID 0000.0001) %MON forcing_qsw_max              =   0.0000000000000E+00
(PID.TID 0000.0001) %MON forcing_qsw_min              =  -1.1221948075158E+02
(PID.TID 0000.0001) %MON forcing_qsw_mean             =  -1.5854625163164E+01
(PID.TID 0000.0001) %MON forcing_qsw_sd               =   2.8852997512077E+01
(PID.TID 0000.0001) %MON forcing_qsw_del2             =   2.1602862076001E-02
(PID.TID 0000.0001) %MON forcing_empmr_max            =   2.3814018815756E-02
(PID.TID 0000.0001) %MON forcing_empmr_min            =  -3.8224119693041E-02
(PID.TID 0000.0001) %MON forcing_empmr_mean           =  -1.8582238179564E-06
(PID.TID 0000.0001) %MON forcing_empmr_sd             =   3.1082430836608E-04
(PID.TID 0000.0001) %MON forcing_empmr_del2           =   3.2370075752024E-06
(PID.TID 0000.0001) %MON forcing_fu_max               =   7.2068977355957E-01
(PID.TID 0000.0001) %MON forcing_fu_min               =  -1.1987727355838E+00
(PID.TID 0000.0001) %MON forcing_fu_mean              =   1.2248204812040E-02
(PID.TID 0000.0001) %MON forcing_fu_sd                =   1.2578582817000E-01
(PID.TID 0000.0001) %MON forcing_fu_del2              =   1.6287940437798E-04
(PID.TID 0000.0001) %MON forcing_fv_max               =   9.3535849452019E-01
(PID.TID 0000.0001) %MON forcing_fv_min               =  -1.1838566026613E+00
(PID.TID 0000.0001) %MON forcing_fv_mean              =  -1.3251353337517E-03
(PID.TID 0000.0001) %MON forcing_fv_sd                =   1.1032207976005E-01
(PID.TID 0000.0001) %MON forcing_fv_del2              =   1.4789566641624E-04
(PID.TID 0000.0001) %MON trAdv_CFL_u_max              =   2.6345486486068E-02
(PID.TID 0000.0001) %MON trAdv_CFL_v_max              =   1.8983707614609E-02
(PID.TID 0000.0001) %MON trAdv_CFL_w_max              =   8.7786692377171E-02
(PID.TID 0000.0001) %MON advcfl_uvel_max              =   2.6697894067228E-02
(PID.TID 0000.0001) %MON advcfl_vvel_max              =   1.8651746647428E-02
(PID.TID 0000.0001) %MON advcfl_wvel_max              =   8.2675591643279E-02
(PID.TID 0000.0001) %MON advcfl_W_hf_max              =   8.7786692377171E-02
(PID.TID 0000.0001) %MON pe_b_mean                    =   2.5297565107219E-03
(PID.TID 0000.0001) %MON ke_max                       =   2.2873056361861E+00
(PID.TID 0000.0001) %MON ke_mean                      =   1.0608871215816E-03
(PID.TID 0000.0001) %MON ke_vol                       =   1.3350064351420E+18
(PID.TID 0000.0001) %MON vort_r_min                   =  -9.0268504785526E-05
(PID.TID 0000.0001) %MON vort_r_max                   =   9.6843835696904E-05
(PID.TID 0000.0001) %MON vort_a_mean                  =  -1.9725078354436E-05
(PID.TID 0000.0001) %MON vort_a_sd                    =   7.4540279251092E-05
(PID.TID 0000.0001) %MON vort_p_mean                  =  -2.1669083459876E-05
(PID.TID 0000.0001) %MON vort_p_sd                    =   9.3613677122462E-05
(PID.TID 0000.0001) %MON surfExpan_theta_mean         =   2.3066862955468E-05
(PID.TID 0000.0001) %MON surfExpan_salt_mean          =   1.2336071724145E-05
(PID.TID 0000.0001) // =======================================================
(PID.TID 0000.0001) // End MONITOR dynamic field statistics
(PID.TID 0000.0001) // =======================================================
(PID.TID 0000.0001) // =======================================================
(PID.TID 0000.0001) // Begin MONITOR SEAICE statistics
(PID.TID 0000.0001) // =======================================================
(PID.TID 0000.0001) %MON seaice_tsnumber              =                174829
(PID.TID 0000.0001) %MON seaice_time_sec              =   7.8673050000000E+07
(PID.TID 0000.0001) %MON seaice_uice_max              =   1.3293756166394E+00
(PID.TID 0000.0001) %MON seaice_uice_min              =  -1.1790070070691E+00
(PID.TID 0000.0001) %MON seaice_uice_mean             =   5.3865598347390E-03
(PID.TID 0000.0001) %MON seaice_uice_sd               =   1.5380535480975E-01
(PID.TID 0000.0001) %MON seaice_uice_del2             =   3.4887460157217E-04
(PID.TID 0000.0001) %MON seaice_vice_max              =   9.3952613655192E-01
(PID.TID 0000.0001) %MON seaice_vice_min              =  -1.4992375613740E+00
(PID.TID 0000.0001) %MON seaice_vice_mean             =  -2.1208001842797E-02
(PID.TID 0000.0001) %MON seaice_vice_sd               =   1.6418397603993E-01
(PID.TID 0000.0001) %MON seaice_vice_del2             =   3.2787470969127E-04
(PID.TID 0000.0001) %MON seaice_area_max              =   1.0036010788746E+00
(PID.TID 0000.0001) %MON seaice_area_min              =   0.0000000000000E+00
(PID.TID 0000.0001) %MON seaice_area_mean             =   5.7496052534478E-02
(PID.TID 0000.0001) %MON seaice_area_sd               =   2.2093991693539E-01
(PID.TID 0000.0001) %MON seaice_area_del2             =   2.8911528765660E-04
(PID.TID 0000.0001) %MON seaice_heff_max              =   9.9479270885242E+00
(PID.TID 0000.0001) %MON seaice_heff_min              =   0.0000000000000E+00
(PID.TID 0000.0001) %MON seaice_heff_mean             =   1.4954807165616E-01
(PID.TID 0000.0001) %MON seaice_heff_sd               =   7.2008183791958E-01
(PID.TID 0000.0001) %MON seaice_heff_del2             =   1.3646998421587E-03
(PID.TID 0000.0001) %MON seaice_hsnow_max             =   3.2858270925590E+00
(PID.TID 0000.0001) %MON seaice_hsnow_min             =   0.0000000000000E+00
(PID.TID 0000.0001) %MON seaice_hsnow_mean            =   1.2632385667865E-02
(PID.TID 0000.0001) %MON seaice_hsnow_sd              =   6.8089713954093E-02
(PID.TID 0000.0001) %MON seaice_hsnow_del2            =   3.7219915079355E-04
(PID.TID 0000.0001) // =======================================================
(PID.TID 0000.0001) // End MONITOR SEAICE statistics
(PID.TID 0000.0001) // =======================================================
(PID.TID 0000.0001) // =======================================================
(PID.TID 0000.0001) // Begin MONITOR dynamic field statistics
(PID.TID 0000.0001) // =======================================================
(PID.TID 0000.0001) %MON time_tsnumber                =                174830
(PID.TID 0000.0001) %MON time_secondsf                =   7.8673500000000E+07
(PID.TID 0000.0001) %MON dynstat_eta_max              =   2.4623438780853E+00
(PID.TID 0000.0001) %MON dynstat_eta_min              =  -1.0290365568257E+01
(PID.TID 0000.0001) %MON dynstat_eta_mean             =   8.9476218201718E-02
(PID.TID 0000.0001) %MON dynstat_eta_sd               =   9.0818346973497E-01
(PID.TID 0000.0001) %MON dynstat_eta_del2             =   2.0110827367678E-03
(PID.TID 0000.0001) %MON dynstat_uvel_max             =   2.1444612362953E+00
(PID.TID 0000.0001) %MON dynstat_uvel_min             =  -2.5477474079882E+00
(PID.TID 0000.0001) %MON dynstat_uvel_mean            =   3.9677200349089E-03
(PID.TID 0000.0001) %MON dynstat_uvel_sd              =   3.3087389046970E-02
(PID.TID 0000.0001) %MON dynstat_uvel_del2            =   3.7854435790601E-05
(PID.TID 0000.0001) %MON dynstat_vvel_max             =   1.8250248119052E+00
(PID.TID 0000.0001) %MON dynstat_vvel_min             =  -2.1505671839650E+00
(PID.TID 0000.0001) %MON dynstat_vvel_mean            =   3.6506054123995E-03
(PID.TID 0000.0001) %MON dynstat_vvel_sd              =   3.3058296301688E-02
(PID.TID 0000.0001) %MON dynstat_vvel_del2            =   3.6149100389780E-05
(PID.TID 0000.0001) %MON dynstat_wvel_max             =   8.0859891944601E-03
(PID.TID 0000.0001) %MON dynstat_wvel_min             =  -7.6648496531886E-03
(PID.TID 0000.0001) %MON dynstat_wvel_mean            =   4.8648962871401E-07
(PID.TID 0000.0001) %MON dynstat_wvel_sd              =   1.3174993203842E-04
(PID.TID 0000.0001) %MON dynstat_wvel_del2            =   2.9896889364626E-07
(PID.TID 0000.0001) %MON dynstat_theta_max            =   3.2454248465885E+01
(PID.TID 0000.0001) %MON dynstat_theta_min            =  -2.0437821346949E+00
(PID.TID 0000.0001) %MON dynstat_theta_mean           =   3.5919592477010E+00
(PID.TID 0000.0001) %MON dynstat_theta_sd             =   4.4419062071473E+00
(PID.TID 0000.0001) %MON dynstat_theta_del2           =   1.2590826510273E-04
(PID.TID 0000.0001) %MON dynstat_salt_max             =   4.0655989869290E+01
(PID.TID 0000.0001) %MON dynstat_salt_min             =   1.5995244076212E+01
(PID.TID 0000.0001) %MON dynstat_salt_mean            =   3.4724796114364E+01
(PID.TID 0000.0001) %MON dynstat_salt_sd              =   3.7974326945454E-01
(PID.TID 0000.0001) %MON dynstat_salt_del2            =   6.4905004503503E-05
(PID.TID 0000.0001) %MON dynstat_sst_max              =   3.2454248465885E+01
(PID.TID 0000.0001) %MON dynstat_sst_min              =  -2.0437821346949E+00
(PID.TID 0000.0001) %MON dynstat_sst_mean             =   1.8181443502624E+01
(PID.TID 0000.0001) %MON dynstat_sst_sd               =   1.0197081521702E+01
(PID.TID 0000.0001) %MON dynstat_sst_del2             =   1.1016102406641E-03
(PID.TID 0000.0001) %MON dynstat_sss_max              =   3.9464454240908E+01
(PID.TID 0000.0001) %MON dynstat_sss_min              =   1.5995244076212E+01
(PID.TID 0000.0001) %MON dynstat_sss_mean             =   3.4642770580189E+01
(PID.TID 0000.0001) %MON dynstat_sss_sd               =   1.3004745726465E+00
(PID.TID 0000.0001) %MON dynstat_sss_del2             =   1.4715967597019E-03
(PID.TID 0000.0001) %MON forcing_qnet_max             =   1.6891623494704E+03
(PID.TID 0000.0001) %MON forcing_qnet_min             =  -1.1277632209031E+03
(PID.TID 0000.0001) %MON forcing_qnet_mean            =   2.7826717810264E+01
(PID.TID 0000.0001) %MON forcing_qnet_sd              =   1.9691596516194E+02
(PID.TID 0000.0001) %MON forcing_qnet_del2            =   4.2902618396633E-01
(PID.TID 0000.0001) %MON forcing_qsw_max              =   0.0000000000000E+00
(PID.TID 0000.0001) %MON forcing_qsw_min              =  -1.1238446169637E+02
(PID.TID 0000.0001) %MON forcing_qsw_mean             =  -1.5784560437326E+01
(PID.TID 0000.0001) %MON forcing_qsw_sd               =   2.8884428886779E+01
(PID.TID 0000.0001) %MON forcing_qsw_del2             =   2.1475157898636E-02
(PID.TID 0000.0001) %MON forcing_empmr_max            =   2.4407010525465E-02
(PID.TID 0000.0001) %MON forcing_empmr_min            =  -4.0305528789759E-02
(PID.TID 0000.0001) %MON forcing_empmr_mean           =  -1.8240513942471E-06
(PID.TID 0000.0001) %MON forcing_empmr_sd             =   3.1438608315641E-04
(PID.TID 0000.0001) %MON forcing_empmr_del2           =   3.2780526847648E-06
(PID.TID 0000.0001) %MON forcing_fu_max               =   7.2161719202995E-01
(PID.TID 0000.0001) %MON forcing_fu_min               =  -1.2026641809989E+00
(PID.TID 0000.0001) %MON forcing_fu_mean              =   1.2244952240783E-02
(PID.TID 0000.0001) %MON forcing_fu_sd                =   1.2584582504210E-01
(PID.TID 0000.0001) %MON forcing_fu_del2              =   1.6319615814686E-04
(PID.TID 0000.0001) %MON forcing_fv_max               =   9.3483370542526E-01
(PID.TID 0000.0001) %MON forcing_fv_min               =  -1.1679360631927E+00
(PID.TID 0000.0001) %MON forcing_fv_mean              =  -1.3077283047980E-03
(PID.TID 0000.0001) %MON forcing_fv_sd                =   1.1043215434743E-01
(PID.TID 0000.0001) %MON forcing_fv_del2              =   1.4792841648196E-04
(PID.TID 0000.0001) %MON trAdv_CFL_u_max              =   2.6279145564612E-02
(PID.TID 0000.0001) %MON trAdv_CFL_v_max              =   1.8944475207699E-02
(PID.TID 0000.0001) %MON trAdv_CFL_w_max              =   8.7167182988295E-02
(PID.TID 0000.0001) %MON advcfl_uvel_max              =   2.6630665743534E-02
(PID.TID 0000.0001) %MON advcfl_vvel_max              =   1.8613200282887E-02
(PID.TID 0000.0001) %MON advcfl_wvel_max              =   8.2077784066477E-02
(PID.TID 0000.0001) %MON advcfl_W_hf_max              =   8.7167182988295E-02
(PID.TID 0000.0001) %MON pe_b_mean                    =   2.5352268446396E-03
(PID.TID 0000.0001) %MON ke_max                       =   2.2745714775782E+00
(PID.TID 0000.0001) %MON ke_mean                      =   1.0688698567524E-03
(PID.TID 0000.0001) %MON ke_vol                       =   1.3350064351420E+18
(PID.TID 0000.0001) %MON vort_r_min                   =  -9.0057559794640E-05
(PID.TID 0000.0001) %MON vort_r_max                   =   9.6564950080611E-05
(PID.TID 0000.0001) %MON vort_a_mean                  =  -1.9725078511639E-05
(PID.TID 0000.0001) %MON vort_a_sd                    =   7.4540313127474E-05
(PID.TID 0000.0001) %MON vort_p_mean                  =  -2.1669083632572E-05
(PID.TID 0000.0001) %MON vort_p_sd                    =   9.3613829095792E-05
(PID.TID 0000.0001) %MON surfExpan_theta_mean         =   2.2983090054062E-05
(PID.TID 0000.0001) %MON surfExpan_salt_mean          =   1.1863876354660E-05
(PID.TID 0000.0001) // =======================================================
(PID.TID 0000.0001) // End MONITOR dynamic field statistics
(PID.TID 0000.0001) // =======================================================
(PID.TID 0000.0001) // =======================================================
(PID.TID 0000.0001) // Begin MONITOR SEAICE statistics
(PID.TID 0000.0001) // =======================================================
(PID.TID 0000.0001) %MON seaice_tsnumber              =                174830
(PID.TID 0000.0001) %MON seaice_time_sec              =   7.8673500000000E+07
(PID.TID 0000.0001) %MON seaice_uice_max              =   1.3276240693113E+00
(PID.TID 0000.0001) %MON seaice_uice_min              =  -1.1690219657410E+00
(PID.TID 0000.0001) %MON seaice_uice_mean             =   5.4998228028228E-03
(PID.TID 0000.0001) %MON seaice_uice_sd               =   1.5368735148763E-01
(PID.TID 0000.0001) %MON seaice_uice_del2             =   3.4909952352976E-04
(PID.TID 0000.0001) %MON seaice_vice_max              =   9.4286149490741E-01
(PID.TID 0000.0001) %MON seaice_vice_min              =  -1.4986529222760E+00
(PID.TID 0000.0001) %MON seaice_vice_mean             =  -2.1032812499762E-02
(PID.TID 0000.0001) %MON seaice_vice_sd               =   1.6395539201361E-01
(PID.TID 0000.0001) %MON seaice_vice_del2             =   3.2828847095737E-04
(PID.TID 0000.0001) %MON seaice_area_max              =   1.0035628649383E+00
(PID.TID 0000.0001) %MON seaice_area_min              =   0.0000000000000E+00
(PID.TID 0000.0001) %MON seaice_area_mean             =   5.7497615551239E-02
(PID.TID 0000.0001) %MON seaice_area_sd               =   2.2093599853554E-01
(PID.TID 0000.0001) %MON seaice_area_del2             =   2.8905905500554E-04
(PID.TID 0000.0001) %MON seaice_heff_max              =   9.9479156670128E+00
(PID.TID 0000.0001) %MON seaice_heff_min              =   0.0000000000000E+00
(PID.TID 0000.0001) %MON seaice_heff_mean             =   1.4954418303745E-01
(PID.TID 0000.0001) %MON seaice_heff_sd               =   7.2007044807374E-01
(PID.TID 0000.0001) %MON seaice_heff_del2             =   1.3641497750715E-03
(PID.TID 0000.0001) %MON seaice_hsnow_max             =   3.2858229704686E+00
(PID.TID 0000.0001) %MON seaice_hsnow_min             =   0.0000000000000E+00
(PID.TID 0000.0001) %MON seaice_hsnow_mean            =   1.2631800088983E-02
(PID.TID 0000.0001) %MON seaice_hsnow_sd              =   6.8082060889146E-02
(PID.TID 0000.0001) %MON seaice_hsnow_del2            =   3.7196511179457E-04
(PID.TID 0000.0001) // =======================================================
(PID.TID 0000.0001) // End MONITOR SEAICE statistics
(PID.TID 0000.0001) // =======================================================
(PID.TID 0000.0001) // =======================================================
(PID.TID 0000.0001) // Begin MONITOR dynamic field statistics
(PID.TID 0000.0001) // =======================================================
(PID.TID 0000.0001) %MON time_tsnumber                =                174831
(PID.TID 0000.0001) %MON time_secondsf                =   7.8673950000000E+07
(PID.TID 0000.0001) %MON dynstat_eta_max              =   2.4472478134256E+00
(PID.TID 0000.0001) %MON dynstat_eta_min              =  -1.0314033373646E+01
(PID.TID 0000.0001) %MON dynstat_eta_mean             =   8.9601771166563E-02
(PID.TID 0000.0001) %MON dynstat_eta_sd               =   9.0913178331141E-01
(PID.TID 0000.0001) %MON dynstat_eta_del2             =   2.0110535545749E-03
(PID.TID 0000.0001) %MON dynstat_uvel_max             =   2.1344206914921E+00
(PID.TID 0000.0001) %MON dynstat_uvel_min             =  -2.5412909000601E+00
(PID.TID 0000.0001) %MON dynstat_uvel_mean            =   4.0369105496933E-03
(PID.TID 0000.0001) %MON dynstat_uvel_sd              =   3.3227775877019E-02
(PID.TID 0000.0001) %MON dynstat_uvel_del2            =   3.7913846197090E-05
(PID.TID 0000.0001) %MON dynstat_vvel_max             =   1.8154167517180E+00
(PID.TID 0000.0001) %MON dynstat_vvel_min             =  -2.1444441901519E+00
(PID.TID 0000.0001) %MON dynstat_vvel_mean            =   3.6787177209004E-03
(PID.TID 0000.0001) %MON dynstat_vvel_sd              =   3.3164042379675E-02
(PID.TID 0000.0001) %MON dynstat_vvel_del2            =   3.6220735853964E-05
(PID.TID 0000.0001) %MON dynstat_wvel_max             =   8.1071216703321E-03
(PID.TID 0000.0001) %MON dynstat_wvel_min             =  -7.6606572160706E-03
(PID.TID 0000.0001) %MON dynstat_wvel_mean            =   4.8103758610651E-07
(PID.TID 0000.0001) %MON dynstat_wvel_sd              =   1.3243924714786E-04
(PID.TID 0000.0001) %MON dynstat_wvel_del2            =   3.0010233285544E-07
(PID.TID 0000.0001) %MON dynstat_theta_max            =   3.2454238751100E+01
(PID.TID 0000.0001) %MON dynstat_theta_min            =  -2.0438980598605E+00
(PID.TID 0000.0001) %MON dynstat_theta_mean           =   3.5919558385732E+00
(PID.TID 0000.0001) %MON dynstat_theta_sd             =   4.4418990164896E+00
(PID.TID 0000.0001) %MON dynstat_theta_del2           =   1.2595088698587E-04
(PID.TID 0000.0001) %MON dynstat_salt_max             =   4.0655989840026E+01
(PID.TID 0000.0001) %MON dynstat_salt_min             =   1.5993908296480E+01
(PID.TID 0000.0001) %MON dynstat_salt_mean            =   3.4724795843236E+01
(PID.TID 0000.0001) %MON dynstat_salt_sd              =   3.7974344979676E-01
(PID.TID 0000.0001) %MON dynstat_salt_del2            =   6.4867770946627E-05
(PID.TID 0000.0001) %MON dynstat_sst_max              =   3.2454238751100E+01
(PID.TID 0000.0001) %MON dynstat_sst_min              =  -2.0438980598605E+00
(PID.TID 0000.0001) %MON dynstat_sst_mean             =   1.8181134828347E+01
(PID.TID 0000.0001) %MON dynstat_sst_sd               =   1.0197235657282E+01
(PID.TID 0000.0001) %MON dynstat_sst_del2             =   1.1019618853577E-03
(PID.TID 0000.0001) %MON dynstat_sss_max              =   3.9464404502620E+01
(PID.TID 0000.0001) %MON dynstat_sss_min              =   1.5993908296480E+01
(PID.TID 0000.0001) %MON dynstat_sss_mean             =   3.4642736194455E+01
(PID.TID 0000.0001) %MON dynstat_sss_sd               =   1.3005423154725E+00
(PID.TID 0000.0001) %MON dynstat_sss_del2             =   1.4715636776375E-03
(PID.TID 0000.0001) %MON forcing_qnet_max             =   1.7027722824853E+03
(PID.TID 0000.0001) %MON forcing_qnet_min             =  -2.0531296386719E+03
(PID.TID 0000.0001) %MON forcing_qnet_mean            =   2.9202012811006E+01
(PID.TID 0000.0001) %MON forcing_qnet_sd              =   1.9756966746450E+02
(PID.TID 0000.0001) %MON forcing_qnet_del2            =   4.4020846036283E-01
(PID.TID 0000.0001) %MON forcing_qsw_max              =   0.0000000000000E+00
(PID.TID 0000.0001) %MON forcing_qsw_min              =  -1.1243290772585E+02
(PID.TID 0000.0001) %MON forcing_qsw_mean             =  -1.5706684741783E+01
(PID.TID 0000.0001) %MON forcing_qsw_sd               =   2.8897954707503E+01
(PID.TID 0000.0001) %MON forcing_qsw_del2             =   2.1340929467869E-02
(PID.TID 0000.0001) %MON forcing_empmr_max            =   2.5068359449506E-02
(PID.TID 0000.0001) %MON forcing_empmr_min            =  -3.9693459868431E-02
(PID.TID 0000.0001) %MON forcing_empmr_mean           =  -2.0019127727077E-06
(PID.TID 0000.0001) %MON forcing_empmr_sd             =   3.1278769605034E-04
(PID.TID 0000.0001) %MON forcing_empmr_del2           =   3.2985764872913E-06
(PID.TID 0000.0001) %MON forcing_fu_max               =   7.2588804364204E-01
(PID.TID 0000.0001) %MON forcing_fu_min               =  -1.2106093460011E+00
(PID.TID 0000.0001) %MON forcing_fu_mean              =   1.2242310972045E-02
(PID.TID 0000.0001) %MON forcing_fu_sd                =   1.2590673936895E-01
(PID.TID 0000.0001) %MON forcing_fu_del2              =   1.6359312836811E-04
(PID.TID 0000.0001) %MON forcing_fv_max               =   9.3340143561363E-01
(PID.TID 0000.0001) %MON forcing_fv_min               =  -1.1505066665888E+00
(PID.TID 0000.0001) %MON forcing_fv_mean              =  -1.2913583987446E-03
(PID.TID 0000.0001) %MON forcing_fv_sd                =   1.1054309860485E-01
(PID.TID 0000.0001) %MON forcing_fv_del2              =   1.4807327164911E-04
(PID.TID 0000.0001) %MON trAdv_CFL_u_max              =   2.6212548887426E-02
(PID.TID 0000.0001) %MON trAdv_CFL_v_max              =   1.8903521869385E-02
(PID.TID 0000.0001) %MON trAdv_CFL_w_max              =   8.6566891297843E-02
(PID.TID 0000.0001) %MON advcfl_uvel_max              =   2.6563178243021E-02
(PID.TID 0000.0001) %MON advcfl_vvel_max              =   1.8572963080223E-02
(PID.TID 0000.0001) %MON advcfl_wvel_max              =   8.1499514859052E-02
(PID.TID 0000.0001) %MON advcfl_W_hf_max              =   8.6566891297843E-02
(PID.TID 0000.0001) %MON pe_b_mean                    =   2.5404629809081E-03
(PID.TID 0000.0001) %MON ke_max                       =   2.2618420530167E+00
(PID.TID 0000.0001) %MON ke_mean                      =   1.0771017861793E-03
(PID.TID 0000.0001) %MON ke_vol                       =   1.3350064351420E+18
(PID.TID 0000.0001) %MON vort_r_min                   =  -8.9843111287368E-05
(PID.TID 0000.0001) %MON vort_r_max                   =   9.6285481306299E-05
(PID.TID 0000.0001) %MON vort_a_mean                  =  -1.9725078673580E-05
(PID.TID 0000.0001) %MON vort_a_sd                    =   7.4540347551083E-05
(PID.TID 0000.0001) %MON vort_p_mean                  =  -2.1669083810472E-05
(PID.TID 0000.0001) %MON vort_p_sd                    =   9.3613980562099E-05
(PID.TID 0000.0001) %MON surfExpan_theta_mean         =   2.2880065960338E-05
(PID.TID 0000.0001) %MON surfExpan_salt_mean          =   1.1403340425955E-05
(PID.TID 0000.0001) // =======================================================
(PID.TID 0000.0001) // End MONITOR dynamic field statistics
(PID.TID 0000.0001) // =======================================================
(PID.TID 0000.0001) // =======================================================
(PID.TID 0000.0001) // Begin MONITOR SEAICE statistics
(PID.TID 0000.0001) // =======================================================
(PID.TID 0000.0001) %MON seaice_tsnumber              =                174831
(PID.TID 0000.0001) %MON seaice_time_sec              =   7.8673950000000E+07
(PID.TID 0000.0001) %MON seaice_uice_max              =   1.3257969614453E+00
(PID.TID 0000.0001) %MON seaice_uice_min              =  -1.1589603313522E+00
(PID.TID 0000.0001) %MON seaice_uice_mean             =   5.6155748822715E-03
(PID.TID 0000.0001) %MON seaice_uice_sd               =   1.5357354965867E-01
(PID.TID 0000.0001) %MON seaice_uice_del2             =   3.4936454370014E-04
(PID.TID 0000.0001) %MON seaice_vice_max              =   9.4644708010975E-01
(PID.TID 0000.0001) %MON seaice_vice_min              =  -1.4982477399469E+00
(PID.TID 0000.0001) %MON seaice_vice_mean             =  -2.0876093288497E-02
(PID.TID 0000.0001) %MON seaice_vice_sd               =   1.6378790095480E-01
(PID.TID 0000.0001) %MON seaice_vice_del2             =   3.2872435957023E-04
(PID.TID 0000.0001) %MON seaice_area_max              =   1.0035155138168E+00
(PID.TID 0000.0001) %MON seaice_area_min              =   0.0000000000000E+00
(PID.TID 0000.0001) %MON seaice_area_mean             =   5.7499210028496E-02
(PID.TID 0000.0001) %MON seaice_area_sd               =   2.2093217857410E-01
(PID.TID 0000.0001) %MON seaice_area_del2             =   2.8900213715579E-04
(PID.TID 0000.0001) %MON seaice_heff_max              =   9.9479023384496E+00
(PID.TID 0000.0001) %MON seaice_heff_min              =   0.0000000000000E+00
(PID.TID 0000.0001) %MON seaice_heff_mean             =   1.4954030616055E-01
(PID.TID 0000.0001) %MON seaice_heff_sd               =   7.2005905403578E-01
(PID.TID 0000.0001) %MON seaice_heff_del2             =   1.3635967366608E-03
(PID.TID 0000.0001) %MON seaice_hsnow_max             =   3.2858190868888E+00
(PID.TID 0000.0001) %MON seaice_hsnow_min             =   0.0000000000000E+00
(PID.TID 0000.0001) %MON seaice_hsnow_mean            =   1.2631224142006E-02
(PID.TID 0000.0001) %MON seaice_hsnow_sd              =   6.8074423187589E-02
(PID.TID 0000.0001) %MON seaice_hsnow_del2            =   3.7173142983637E-04
(PID.TID 0000.0001) // =======================================================
(PID.TID 0000.0001) // End MONITOR SEAICE statistics
(PID.TID 0000.0001) // =======================================================
(PID.TID 0000.0001) // =======================================================
(PID.TID 0000.0001) // Begin MONITOR dynamic field statistics
(PID.TID 0000.0001) // =======================================================
(PID.TID 0000.0001) %MON time_tsnumber                =                174832
(PID.TID 0000.0001) %MON time_secondsf                =   7.8674400000000E+07
(PID.TID 0000.0001) %MON dynstat_eta_max              =   2.4244236759479E+00
(PID.TID 0000.0001) %MON dynstat_eta_min              =  -1.0337032930307E+01
(PID.TID 0000.0001) %MON dynstat_eta_mean             =   8.9722428793641E-02
(PID.TID 0000.0001) %MON dynstat_eta_sd               =   9.1005124712016E-01
(PID.TID 0000.0001) %MON dynstat_eta_del2             =   2.0110295173646E-03
(PID.TID 0000.0001) %MON dynstat_uvel_max             =   2.1243878658193E+00
(PID.TID 0000.0001) %MON dynstat_uvel_min             =  -2.5348152606494E+00
(PID.TID 0000.0001) %MON dynstat_uvel_mean            =   4.1109379520884E-03
(PID.TID 0000.0001) %MON dynstat_uvel_sd              =   3.3370302434938E-02
(PID.TID 0000.0001) %MON dynstat_uvel_del2            =   3.7973860399630E-05
(PID.TID 0000.0001) %MON dynstat_vvel_max             =   1.8051669469835E+00
(PID.TID 0000.0001) %MON dynstat_vvel_min             =  -2.1382565686767E+00
(PID.TID 0000.0001) %MON dynstat_vvel_mean            =   3.7052650136673E-03
(PID.TID 0000.0001) %MON dynstat_vvel_sd              =   3.3275066661779E-02
(PID.TID 0000.0001) %MON dynstat_vvel_del2            =   3.6292934474856E-05
(PID.TID 0000.0001) %MON dynstat_wvel_max             =   8.1281884323016E-03
(PID.TID 0000.0001) %MON dynstat_wvel_min             =  -7.6565677434401E-03
(PID.TID 0000.0001) %MON dynstat_wvel_mean            =   4.7601931891343E-07
(PID.TID 0000.0001) %MON dynstat_wvel_sd              =   1.3313509986886E-04
(PID.TID 0000.0001) %MON dynstat_wvel_del2            =   3.0124696443637E-07
(PID.TID 0000.0001) %MON dynstat_theta_max            =   3.2454031247085E+01
(PID.TID 0000.0001) %MON dynstat_theta_min            =  -2.0440162740887E+00
(PID.TID 0000.0001) %MON dynstat_theta_mean           =   3.5919524236557E+00
(PID.TID 0000.0001) %MON dynstat_theta_sd             =   4.4418916382040E+00
(PID.TID 0000.0001) %MON dynstat_theta_del2           =   1.2599047749607E-04
(PID.TID 0000.0001) %MON dynstat_salt_max             =   4.0655989812428E+01
(PID.TID 0000.0001) %MON dynstat_salt_min             =   1.5992567276358E+01
(PID.TID 0000.0001) %MON dynstat_salt_mean            =   3.4724795579243E+01
(PID.TID 0000.0001) %MON dynstat_salt_sd              =   3.7974357988454E-01
(PID.TID 0000.0001) %MON dynstat_salt_del2            =   6.4830663089227E-05
(PID.TID 0000.0001) %MON dynstat_sst_max              =   3.2454031247085E+01
(PID.TID 0000.0001) %MON dynstat_sst_min              =  -2.0440162740887E+00
(PID.TID 0000.0001) %MON dynstat_sst_mean             =   1.8180846985697E+01
(PID.TID 0000.0001) %MON dynstat_sst_sd               =   1.0197402248566E+01
(PID.TID 0000.0001) %MON dynstat_sst_del2             =   1.1020810615257E-03
(PID.TID 0000.0001) %MON dynstat_sss_max              =   3.9464344076943E+01
(PID.TID 0000.0001) %MON dynstat_sss_min              =   1.5992567276358E+01
(PID.TID 0000.0001) %MON dynstat_sss_mean             =   3.4642702293859E+01
(PID.TID 0000.0001) %MON dynstat_sss_sd               =   1.3006096752985E+00
(PID.TID 0000.0001) %MON dynstat_sss_del2             =   1.4715222638893E-03
(PID.TID 0000.0001) %MON forcing_qnet_max             =   1.7223376657830E+03
(PID.TID 0000.0001) %MON forcing_qnet_min             =  -1.3119889739142E+03
(PID.TID 0000.0001) %MON forcing_qnet_mean            =   2.9916299145817E+01
(PID.TID 0000.0001) %MON forcing_qnet_sd              =   1.9778543435354E+02
(PID.TID 0000.0001) %MON forcing_qnet_del2            =   4.2748063091285E-01
(PID.TID 0000.0001) %MON forcing_qsw_max              =   0.0000000000000E+00
(PID.TID 0000.0001) %MON forcing_qsw_min              =  -1.1236477282489E+02
(PID.TID 0000.0001) %MON forcing_qsw_mean             =  -1.5621826345071E+01
(PID.TID 0000.0001) %MON forcing_qsw_sd               =   2.8893220169275E+01
(PID.TID 0000.0001) %MON forcing_qsw_del2             =   2.1200699642196E-02
(PID.TID 0000.0001) %MON forcing_empmr_max            =   2.5659993290901E-02
(PID.TID 0000.0001) %MON forcing_empmr_min            =  -3.9937760680914E-02
(PID.TID 0000.0001) %MON forcing_empmr_mean           =  -1.9626374199477E-06
(PID.TID 0000.0001) %MON forcing_empmr_sd             =   3.1164235465596E-04
(PID.TID 0000.0001) %MON forcing_empmr_del2           =   3.2992564344931E-06
(PID.TID 0000.0001) %MON forcing_fu_max               =   7.3387193679810E-01
(PID.TID 0000.0001) %MON forcing_fu_min               =  -1.2151146298345E+00
(PID.TID 0000.0001) %MON forcing_fu_mean              =   1.2235637472779E-02
(PID.TID 0000.0001) %MON forcing_fu_sd                =   1.2595342058658E-01
(PID.TID 0000.0001) %MON forcing_fu_del2              =   1.6396159125966E-04
(PID.TID 0000.0001) %MON forcing_fv_max               =   9.3187829852104E-01
(PID.TID 0000.0001) %MON forcing_fv_min               =  -1.1316700121971E+00
(PID.TID 0000.0001) %MON forcing_fv_mean              =  -1.2793338013475E-03
(PID.TID 0000.0001) %MON forcing_fv_sd                =   1.1063755934868E-01
(PID.TID 0000.0001) %MON forcing_fv_del2              =   1.4817226333564E-04
(PID.TID 0000.0001) %MON trAdv_CFL_u_max              =   2.6145754875523E-02
(PID.TID 0000.0001) %MON trAdv_CFL_v_max              =   1.8860957111688E-02
(PID.TID 0000.0001) %MON trAdv_CFL_w_max              =   8.5988006272428E-02
(PID.TID 0000.0001) %MON advcfl_uvel_max              =   2.6495490768164E-02
(PID.TID 0000.0001) %MON advcfl_vvel_max              =   1.8531142636462E-02
(PID.TID 0000.0001) %MON advcfl_wvel_max              =   8.0942976833442E-02
(PID.TID 0000.0001) %MON advcfl_W_hf_max              =   8.5988006272428E-02
(PID.TID 0000.0001) %MON pe_b_mean                    =   2.5454743418193E-03
(PID.TID 0000.0001) %MON ke_max                       =   2.2491300470018E+00
(PID.TID 0000.0001) %MON ke_mean                      =   1.0856206851327E-03
(PID.TID 0000.0001) %MON ke_vol                       =   1.3350064351420E+18
(PID.TID 0000.0001) %MON vort_r_min                   =  -8.9625442258623E-05
(PID.TID 0000.0001) %MON vort_r_max                   =   9.6005712575018E-05
(PID.TID 0000.0001) %MON vort_a_mean                  =  -1.9725078840113E-05
(PID.TID 0000.0001) %MON vort_a_sd                    =   7.4540382477895E-05
(PID.TID 0000.0001) %MON vort_p_mean                  =  -2.1669083993419E-05
(PID.TID 0000.0001) %MON vort_p_sd                    =   9.3614131092892E-05
(PID.TID 0000.0001) %MON surfExpan_theta_mean         =   2.2758597978178E-05
(PID.TID 0000.0001) %MON surfExpan_salt_mean          =   1.0973511320948E-05
(PID.TID 0000.0001) // =======================================================
(PID.TID 0000.0001) // End MONITOR dynamic field statistics
(PID.TID 0000.0001) // =======================================================
(PID.TID 0000.0001) // =======================================================
(PID.TID 0000.0001) // Begin MONITOR SEAICE statistics
(PID.TID 0000.0001) // =======================================================
(PID.TID 0000.0001) %MON seaice_tsnumber              =                174832
(PID.TID 0000.0001) %MON seaice_time_sec              =   7.8674400000000E+07
(PID.TID 0000.0001) %MON seaice_uice_max              =   1.3239252442112E+00
(PID.TID 0000.0001) %MON seaice_uice_min              =  -1.1488879270167E+00
(PID.TID 0000.0001) %MON seaice_uice_mean             =   5.7361947813069E-03
(PID.TID 0000.0001) %MON seaice_uice_sd               =   1.5345502206626E-01
(PID.TID 0000.0001) %MON seaice_uice_del2             =   3.4964283058958E-04
(PID.TID 0000.0001) %MON seaice_vice_max              =   9.5026590813888E-01
(PID.TID 0000.0001) %MON seaice_vice_min              =  -1.4974649398085E+00
(PID.TID 0000.0001) %MON seaice_vice_mean             =  -2.0704751056335E-02
(PID.TID 0000.0001) %MON seaice_vice_sd               =   1.6358712122996E-01
(PID.TID 0000.0001) %MON seaice_vice_del2             =   3.2921894743675E-04
(PID.TID 0000.0001) %MON seaice_area_max              =   1.0034576867834E+00
(PID.TID 0000.0001) %MON seaice_area_min              =   0.0000000000000E+00
(PID.TID 0000.0001) %MON seaice_area_mean             =   5.7500828211857E-02
(PID.TID 0000.0001) %MON seaice_area_sd               =   2.2092843865870E-01
(PID.TID 0000.0001) %MON seaice_area_del2             =   2.8894344735715E-04
(PID.TID 0000.0001) %MON seaice_heff_max              =   9.9478890099785E+00
(PID.TID 0000.0001) %MON seaice_heff_min              =   0.0000000000000E+00
(PID.TID 0000.0001) %MON seaice_heff_mean             =   1.4953644533987E-01
(PID.TID 0000.0001) %MON seaice_heff_sd               =   7.2004766905647E-01
(PID.TID 0000.0001) %MON seaice_heff_del2             =   1.3630406247953E-03
(PID.TID 0000.0001) %MON seaice_hsnow_max             =   3.2858147265108E+00
(PID.TID 0000.0001) %MON seaice_hsnow_min             =   0.0000000000000E+00
(PID.TID 0000.0001) %MON seaice_hsnow_mean            =   1.2630658974954E-02
(PID.TID 0000.0001) %MON seaice_hsnow_sd              =   6.8066822384933E-02
(PID.TID 0000.0001) %MON seaice_hsnow_del2            =   3.7149800885865E-04
(PID.TID 0000.0001) // =======================================================
(PID.TID 0000.0001) // End MONITOR SEAICE statistics
(PID.TID 0000.0001) // =======================================================
(PID.TID 0000.0001) // =======================================================
(PID.TID 0000.0001) // Begin MONITOR dynamic field statistics
(PID.TID 0000.0001) // =======================================================
(PID.TID 0000.0001) %MON time_tsnumber                =                174833
(PID.TID 0000.0001) %MON time_secondsf                =   7.8674850000000E+07
(PID.TID 0000.0001) %MON dynstat_eta_max              =   2.3941099018960E+00
(PID.TID 0000.0001) %MON dynstat_eta_min              =  -1.0359250196231E+01
(PID.TID 0000.0001) %MON dynstat_eta_mean             =   8.9838433453778E-02
(PID.TID 0000.0001) %MON dynstat_eta_sd               =   9.1094200303448E-01
(PID.TID 0000.0001) %MON dynstat_eta_del2             =   2.0110102160092E-03
(PID.TID 0000.0001) %MON dynstat_uvel_max             =   2.1143732537094E+00
(PID.TID 0000.0001) %MON dynstat_uvel_min             =  -2.5283334448929E+00
(PID.TID 0000.0001) %MON dynstat_uvel_mean            =   4.1896559578146E-03
(PID.TID 0000.0001) %MON dynstat_uvel_sd              =   3.3514816624073E-02
(PID.TID 0000.0001) %MON dynstat_uvel_del2            =   3.8035107349443E-05
(PID.TID 0000.0001) %MON dynstat_vvel_max             =   1.7943445507076E+00
(PID.TID 0000.0001) %MON dynstat_vvel_min             =  -2.1320147710463E+00
(PID.TID 0000.0001) %MON dynstat_vvel_mean            =   3.7301745439955E-03
(PID.TID 0000.0001) %MON dynstat_vvel_sd              =   3.3390502945176E-02
(PID.TID 0000.0001) %MON dynstat_vvel_del2            =   3.6366252213315E-05
(PID.TID 0000.0001) %MON dynstat_wvel_max             =   8.1492111508115E-03
(PID.TID 0000.0001) %MON dynstat_wvel_min             =  -7.6526357583397E-03
(PID.TID 0000.0001) %MON dynstat_wvel_mean            =   4.7109619390016E-07
(PID.TID 0000.0001) %MON dynstat_wvel_sd              =   1.3383731630030E-04
(PID.TID 0000.0001) %MON dynstat_wvel_del2            =   3.0240263546478E-07
(PID.TID 0000.0001) %MON dynstat_theta_max            =   3.2453641284693E+01
(PID.TID 0000.0001) %MON dynstat_theta_min            =  -2.0441327021161E+00
(PID.TID 0000.0001) %MON dynstat_theta_mean           =   3.5919489895772E+00
(PID.TID 0000.0001) %MON dynstat_theta_sd             =   4.4418839943004E+00
(PID.TID 0000.0001) %MON dynstat_theta_del2           =   1.2603246963223E-04
(PID.TID 0000.0001) %MON dynstat_salt_max             =   4.0655989786552E+01
(PID.TID 0000.0001) %MON dynstat_salt_min             =   1.5991219587690E+01
(PID.TID 0000.0001) %MON dynstat_salt_mean            =   3.4724795322942E+01
(PID.TID 0000.0001) %MON dynstat_salt_sd              =   3.7974366262753E-01
(PID.TID 0000.0001) %MON dynstat_salt_del2            =   6.4793242230195E-05
(PID.TID 0000.0001) %MON dynstat_sst_max              =   3.2453641284693E+01
(PID.TID 0000.0001) %MON dynstat_sst_min              =  -2.0441327021161E+00
(PID.TID 0000.0001) %MON dynstat_sst_mean             =   1.8180551224261E+01
(PID.TID 0000.0001) %MON dynstat_sst_sd               =   1.0197559724731E+01
(PID.TID 0000.0001) %MON dynstat_sst_del2             =   1.1023430859084E-03
(PID.TID 0000.0001) %MON dynstat_sss_max              =   3.9464276134284E+01
(PID.TID 0000.0001) %MON dynstat_sss_min              =   1.5991219587690E+01
(PID.TID 0000.0001) %MON dynstat_sss_mean             =   3.4642668977449E+01
(PID.TID 0000.0001) %MON dynstat_sss_sd               =   1.3006767938121E+00
(PID.TID 0000.0001) %MON dynstat_sss_del2             =   1.4714669168369E-03
(PID.TID 0000.0001) %MON forcing_qnet_max             =   1.7429705706888E+03
(PID.TID 0000.0001) %MON forcing_qnet_min             =  -1.2367360402776E+03
(PID.TID 0000.0001) %MON forcing_qnet_mean            =   3.1170153106449E+01
(PID.TID 0000.0001) %MON forcing_qnet_sd              =   1.9822746918868E+02
(PID.TID 0000.0001) %MON forcing_qnet_del2            =   4.2045594428697E-01
(PID.TID 0000.0001) %MON forcing_qsw_max              =   0.0000000000000E+00
(PID.TID 0000.0001) %MON forcing_qsw_min              =  -1.1230931930373E+02
(PID.TID 0000.0001) %MON forcing_qsw_mean             =  -1.5530229611406E+01
(PID.TID 0000.0001) %MON forcing_qsw_sd               =   2.8870173182146E+01
(PID.TID 0000.0001) %MON forcing_qsw_del2             =   2.1054891776900E-02
(PID.TID 0000.0001) %MON forcing_empmr_max            =   2.6304796338081E-02
(PID.TID 0000.0001) %MON forcing_empmr_min            =  -3.9078257977962E-02
(PID.TID 0000.0001) %MON forcing_empmr_mean           =  -2.0397305041056E-06
(PID.TID 0000.0001) %MON forcing_empmr_sd             =   3.1123376190916E-04
(PID.TID 0000.0001) %MON forcing_empmr_del2           =   3.2944570366869E-06
(PID.TID 0000.0001) %MON forcing_fu_max               =   7.4158024787903E-01
(PID.TID 0000.0001) %MON forcing_fu_min               =  -1.2217155320009E+00
(PID.TID 0000.0001) %MON forcing_fu_mean              =   1.2218659241546E-02
(PID.TID 0000.0001) %MON forcing_fu_sd                =   1.2597960791873E-01
(PID.TID 0000.0001) %MON forcing_fu_del2              =   1.6439277995156E-04
(PID.TID 0000.0001) %MON forcing_fv_max               =   9.3059852719307E-01
(PID.TID 0000.0001) %MON forcing_fv_min               =  -1.1115885309994E+00
(PID.TID 0000.0001) %MON forcing_fv_mean              =  -1.2657201887571E-03
(PID.TID 0000.0001) %MON forcing_fv_sd                =   1.1075248315175E-01
(PID.TID 0000.0001) %MON forcing_fv_del2              =   1.4830597825856E-04
(PID.TID 0000.0001) %MON trAdv_CFL_u_max              =   2.6078897156718E-02
(PID.TID 0000.0001) %MON trAdv_CFL_v_max              =   1.8816905558960E-02
(PID.TID 0000.0001) %MON trAdv_CFL_w_max              =   8.5431983051741E-02
(PID.TID 0000.0001) %MON advcfl_uvel_max              =   2.6427738734237E-02
(PID.TID 0000.0001) %MON advcfl_vvel_max              =   1.8487861396696E-02
(PID.TID 0000.0001) %MON advcfl_wvel_max              =   8.0409642684584E-02
(PID.TID 0000.0001) %MON advcfl_W_hf_max              =   8.5431983051741E-02
(PID.TID 0000.0001) %MON pe_b_mean                    =   2.5502670440575E-03
(PID.TID 0000.0001) %MON ke_max                       =   2.2364607570823E+00
(PID.TID 0000.0001) %MON ke_mean                      =   1.0943963815397E-03
(PID.TID 0000.0001) %MON ke_vol                       =   1.3350064351420E+18
(PID.TID 0000.0001) %MON vort_r_min                   =  -8.9405046473020E-05
(PID.TID 0000.0001) %MON vort_r_max                   =   9.5726199123824E-05
(PID.TID 0000.0001) %MON vort_a_mean                  =  -1.9725079010077E-05
(PID.TID 0000.0001) %MON vort_a_sd                    =   7.4540417868836E-05
(PID.TID 0000.0001) %MON vort_p_mean                  =  -2.1669084180133E-05
(PID.TID 0000.0001) %MON vort_p_sd                    =   9.3614280595897E-05
(PID.TID 0000.0001) %MON surfExpan_theta_mean         =   2.2612890382070E-05
(PID.TID 0000.0001) %MON surfExpan_salt_mean          =   1.0552338684271E-05
(PID.TID 0000.0001) // =======================================================
(PID.TID 0000.0001) // End MONITOR dynamic field statistics
(PID.TID 0000.0001) // =======================================================
(PID.TID 0000.0001) // =======================================================
(PID.TID 0000.0001) // Begin MONITOR SEAICE statistics
(PID.TID 0000.0001) // =======================================================
(PID.TID 0000.0001) %MON seaice_tsnumber              =                174833
(PID.TID 0000.0001) %MON seaice_time_sec              =   7.8674850000000E+07
(PID.TID 0000.0001) %MON seaice_uice_max              =   1.3220023332280E+00
(PID.TID 0000.0001) %MON seaice_uice_min              =  -1.1388710858098E+00
(PID.TID 0000.0001) %MON seaice_uice_mean             =   5.8618690886287E-03
(PID.TID 0000.0001) %MON seaice_uice_sd               =   1.5333225625526E-01
(PID.TID 0000.0001) %MON seaice_uice_del2             =   3.4991630375498E-04
(PID.TID 0000.0001) %MON seaice_vice_max              =   9.5430691277467E-01
(PID.TID 0000.0001) %MON seaice_vice_min              =  -1.4968925964221E+00
(PID.TID 0000.0001) %MON seaice_vice_mean             =  -2.0545980473196E-02
(PID.TID 0000.0001) %MON seaice_vice_sd               =   1.6342964033806E-01
(PID.TID 0000.0001) %MON seaice_vice_del2             =   3.2970451191027E-04
(PID.TID 0000.0001) %MON seaice_area_max              =   1.0033907886700E+00
(PID.TID 0000.0001) %MON seaice_area_min              =   0.0000000000000E+00
(PID.TID 0000.0001) %MON seaice_area_mean             =   5.7502471186474E-02
(PID.TID 0000.0001) %MON seaice_area_sd               =   2.2092475360408E-01
(PID.TID 0000.0001) %MON seaice_area_del2             =   2.8888104521571E-04
(PID.TID 0000.0001) %MON seaice_heff_max              =   9.9478766352113E+00
(PID.TID 0000.0001) %MON seaice_heff_min              =   0.0000000000000E+00
(PID.TID 0000.0001) %MON seaice_heff_mean             =   1.4953259104969E-01
(PID.TID 0000.0001) %MON seaice_heff_sd               =   7.2003624813042E-01
(PID.TID 0000.0001) %MON seaice_heff_del2             =   1.3624810408587E-03
(PID.TID 0000.0001) %MON seaice_hsnow_max             =   3.2858103662602E+00
(PID.TID 0000.0001) %MON seaice_hsnow_min             =   0.0000000000000E+00
(PID.TID 0000.0001) %MON seaice_hsnow_mean            =   1.2630095469603E-02
(PID.TID 0000.0001) %MON seaice_hsnow_sd              =   6.8059181869992E-02
(PID.TID 0000.0001) %MON seaice_hsnow_del2            =   3.7126426609867E-04
(PID.TID 0000.0001) // =======================================================
(PID.TID 0000.0001) // End MONITOR SEAICE statistics
(PID.TID 0000.0001) // =======================================================
(PID.TID 0000.0001) // =======================================================
(PID.TID 0000.0001) // Begin MONITOR dynamic field statistics
(PID.TID 0000.0001) // =======================================================
(PID.TID 0000.0001) %MON time_tsnumber                =                174834
(PID.TID 0000.0001) %MON time_secondsf                =   7.8675300000000E+07
(PID.TID 0000.0001) %MON dynstat_eta_max              =   2.3566067469840E+00
(PID.TID 0000.0001) %MON dynstat_eta_min              =  -1.0380585712097E+01
(PID.TID 0000.0001) %MON dynstat_eta_mean             =   8.9950030908036E-02
(PID.TID 0000.0001) %MON dynstat_eta_sd               =   9.1180428029040E-01
(PID.TID 0000.0001) %MON dynstat_eta_del2             =   2.0109964391500E-03
(PID.TID 0000.0001) %MON dynstat_uvel_max             =   2.1043878588683E+00
(PID.TID 0000.0001) %MON dynstat_uvel_min             =  -2.5218586336219E+00
(PID.TID 0000.0001) %MON dynstat_uvel_mean            =   4.2728959214511E-03
(PID.TID 0000.0001) %MON dynstat_uvel_sd              =   3.3661272645414E-02
(PID.TID 0000.0001) %MON dynstat_uvel_del2            =   3.8096671741005E-05
(PID.TID 0000.0001) %MON dynstat_vvel_max             =   1.7830242334959E+00
(PID.TID 0000.0001) %MON dynstat_vvel_min             =  -2.1272631522728E+00
(PID.TID 0000.0001) %MON dynstat_vvel_mean            =   3.7533838052761E-03
(PID.TID 0000.0001) %MON dynstat_vvel_sd              =   3.3511170016621E-02
(PID.TID 0000.0001) %MON dynstat_vvel_del2            =   3.6439889469214E-05
(PID.TID 0000.0001) %MON dynstat_wvel_max             =   8.1702163147760E-03
(PID.TID 0000.0001) %MON dynstat_wvel_min             =  -7.6489260163224E-03
(PID.TID 0000.0001) %MON dynstat_wvel_mean            =   4.6643970120266E-07
(PID.TID 0000.0001) %MON dynstat_wvel_sd              =   1.3454623477485E-04
(PID.TID 0000.0001) %MON dynstat_wvel_del2            =   3.0356944217133E-07
(PID.TID 0000.0001) %MON dynstat_theta_max            =   3.2453050846505E+01
(PID.TID 0000.0001) %MON dynstat_theta_min            =  -2.0442474673747E+00
(PID.TID 0000.0001) %MON dynstat_theta_mean           =   3.5919455515668E+00
(PID.TID 0000.0001) %MON dynstat_theta_sd             =   4.4418761556248E+00
(PID.TID 0000.0001) %MON dynstat_theta_del2           =   1.2607197901776E-04
(PID.TID 0000.0001) %MON dynstat_salt_max             =   4.0655989762443E+01
(PID.TID 0000.0001) %MON dynstat_salt_min             =   1.5989864323480E+01
(PID.TID 0000.0001) %MON dynstat_salt_mean            =   3.4724795075218E+01
(PID.TID 0000.0001) %MON dynstat_salt_sd              =   3.7974369555421E-01
(PID.TID 0000.0001) %MON dynstat_salt_del2            =   6.4756105621746E-05
(PID.TID 0000.0001) %MON dynstat_sst_max              =   3.2453050846505E+01
(PID.TID 0000.0001) %MON dynstat_sst_min              =  -2.0442474673747E+00
(PID.TID 0000.0001) %MON dynstat_sst_mean             =   1.8180269766672E+01
(PID.TID 0000.0001) %MON dynstat_sst_sd               =   1.0197726317119E+01
(PID.TID 0000.0001) %MON dynstat_sst_del2             =   1.1024184217774E-03
(PID.TID 0000.0001) %MON dynstat_sss_max              =   3.9464204167406E+01
(PID.TID 0000.0001) %MON dynstat_sss_min              =   1.5989864323480E+01
(PID.TID 0000.0001) %MON dynstat_sss_mean             =   3.4642636080750E+01
(PID.TID 0000.0001) %MON dynstat_sss_sd               =   1.3007430129703E+00
(PID.TID 0000.0001) %MON dynstat_sss_del2             =   1.4714015473719E-03
(PID.TID 0000.0001) %MON forcing_qnet_max             =   1.7624953104300E+03
(PID.TID 0000.0001) %MON forcing_qnet_min             =  -1.2223127266372E+03
(PID.TID 0000.0001) %MON forcing_qnet_mean            =   3.1975829476890E+01
(PID.TID 0000.0001) %MON forcing_qnet_sd              =   1.9866323994247E+02
(PID.TID 0000.0001) %MON forcing_qnet_del2            =   4.2496551313272E-01
(PID.TID 0000.0001) %MON forcing_qsw_max              =   0.0000000000000E+00
(PID.TID 0000.0001) %MON forcing_qsw_min              =  -1.1229009127048E+02
(PID.TID 0000.0001) %MON forcing_qsw_mean             =  -1.5432009939757E+01
(PID.TID 0000.0001) %MON forcing_qsw_sd               =   2.8828829084740E+01
(PID.TID 0000.0001) %MON forcing_qsw_del2             =   2.0904055793860E-02
(PID.TID 0000.0001) %MON forcing_empmr_max            =   2.6981066912413E-02
(PID.TID 0000.0001) %MON forcing_empmr_min            =  -3.8762874901295E-02
(PID.TID 0000.0001) %MON forcing_empmr_mean           =  -1.9884865569522E-06
(PID.TID 0000.0001) %MON forcing_empmr_sd             =   3.1230086227654E-04
(PID.TID 0000.0001) %MON forcing_empmr_del2           =   3.3191122397061E-06
(PID.TID 0000.0001) %MON forcing_fu_max               =   7.8398531675339E-01
(PID.TID 0000.0001) %MON forcing_fu_min               =  -1.2247460494032E+00
(PID.TID 0000.0001) %MON forcing_fu_mean              =   1.2198528270614E-02
(PID.TID 0000.0001) %MON forcing_fu_sd                =   1.2603353654554E-01
(PID.TID 0000.0001) %MON forcing_fu_del2              =   1.6462368080402E-04
(PID.TID 0000.0001) %MON forcing_fv_max               =   9.2862376570702E-01
(PID.TID 0000.0001) %MON forcing_fv_min               =  -1.0904259423487E+00
(PID.TID 0000.0001) %MON forcing_fv_mean              =  -1.2409361433054E-03
(PID.TID 0000.0001) %MON forcing_fv_sd                =   1.1088297844598E-01
(PID.TID 0000.0001) %MON forcing_fv_del2              =   1.4846150186041E-04
(PID.TID 0000.0001) %MON trAdv_CFL_u_max              =   2.6012111686793E-02
(PID.TID 0000.0001) %MON trAdv_CFL_v_max              =   1.8771507843199E-02
(PID.TID 0000.0001) %MON trAdv_CFL_w_max              =   8.4899054140778E-02
(PID.TID 0000.0001) %MON advcfl_uvel_max              =   2.6360059915619E-02
(PID.TID 0000.0001) %MON advcfl_vvel_max              =   1.8443257533746E-02
(PID.TID 0000.0001) %MON advcfl_wvel_max              =   7.9899681101675E-02
(PID.TID 0000.0001) %MON advcfl_W_hf_max              =   8.4899054140778E-02
(PID.TID 0000.0001) %MON pe_b_mean                    =   2.5548465951380E-03
(PID.TID 0000.0001) %MON ke_max                       =   2.2238619918995E+00
(PID.TID 0000.0001) %MON ke_mean                      =   1.1034561874151E-03
(PID.TID 0000.0001) %MON ke_vol                       =   1.3350064351420E+18
(PID.TID 0000.0001) %MON vort_r_min                   =  -8.9182457144518E-05
(PID.TID 0000.0001) %MON vort_r_max                   =   9.5447574208910E-05
(PID.TID 0000.0001) %MON vort_a_mean                  =  -1.9725079182914E-05
(PID.TID 0000.0001) %MON vort_a_sd                    =   7.4540453671889E-05
(PID.TID 0000.0001) %MON vort_p_mean                  =  -2.1669084370004E-05
(PID.TID 0000.0001) %MON vort_p_sd                    =   9.3614428674064E-05
(PID.TID 0000.0001) %MON surfExpan_theta_mean         =   2.2446898564258E-05
(PID.TID 0000.0001) %MON surfExpan_salt_mean          =   1.0149352850159E-05
(PID.TID 0000.0001) // =======================================================
(PID.TID 0000.0001) // End MONITOR dynamic field statistics
(PID.TID 0000.0001) // =======================================================
(PID.TID 0000.0001) // =======================================================
(PID.TID 0000.0001) // Begin MONITOR SEAICE statistics
(PID.TID 0000.0001) // =======================================================
(PID.TID 0000.0001) %MON seaice_tsnumber              =                174834
(PID.TID 0000.0001) %MON seaice_time_sec              =   7.8675300000000E+07
(PID.TID 0000.0001) %MON seaice_uice_max              =   1.3200398535762E+00
(PID.TID 0000.0001) %MON seaice_uice_min              =  -1.1289757493869E+00
(PID.TID 0000.0001) %MON seaice_uice_mean             =   5.9913825847072E-03
(PID.TID 0000.0001) %MON seaice_uice_sd               =   1.5320607392024E-01
(PID.TID 0000.0001) %MON seaice_uice_del2             =   3.5020914999096E-04
(PID.TID 0000.0001) %MON seaice_vice_max              =   9.5854901744403E-01
(PID.TID 0000.0001) %MON seaice_vice_min              =  -1.4959459916557E+00
(PID.TID 0000.0001) %MON seaice_vice_mean             =  -2.0376576375342E-02
(PID.TID 0000.0001) %MON seaice_vice_sd               =   1.6324970545265E-01
(PID.TID 0000.0001) %MON seaice_vice_del2             =   3.3024037644709E-04
(PID.TID 0000.0001) %MON seaice_area_max              =   1.0033156927464E+00
(PID.TID 0000.0001) %MON seaice_area_min              =   0.0000000000000E+00
(PID.TID 0000.0001) %MON seaice_area_mean             =   5.7504135084338E-02
(PID.TID 0000.0001) %MON seaice_area_sd               =   2.2092112838388E-01
(PID.TID 0000.0001) %MON seaice_area_del2             =   2.8881497327453E-04
(PID.TID 0000.0001) %MON seaice_heff_max              =   9.9478652139721E+00
(PID.TID 0000.0001) %MON seaice_heff_min              =   0.0000000000000E+00
(PID.TID 0000.0001) %MON seaice_heff_mean             =   1.4952874654590E-01
(PID.TID 0000.0001) %MON seaice_heff_sd               =   7.2002480468182E-01
(PID.TID 0000.0001) %MON seaice_heff_del2             =   1.3619171711592E-03
(PID.TID 0000.0001) %MON seaice_hsnow_max             =   3.2858060059499E+00
(PID.TID 0000.0001) %MON seaice_hsnow_min             =   0.0000000000000E+00
(PID.TID 0000.0001) %MON seaice_hsnow_mean            =   1.2629534599172E-02
(PID.TID 0000.0001) %MON seaice_hsnow_sd              =   6.8051514262689E-02
(PID.TID 0000.0001) %MON seaice_hsnow_del2            =   3.7102997203877E-04
(PID.TID 0000.0001) // =======================================================
(PID.TID 0000.0001) // End MONITOR SEAICE statistics
(PID.TID 0000.0001) // =======================================================
(PID.TID 0000.0001) // =======================================================
(PID.TID 0000.0001) // Begin MONITOR dynamic field statistics
(PID.TID 0000.0001) // =======================================================
(PID.TID 0000.0001) %MON time_tsnumber                =                174835
(PID.TID 0000.0001) %MON time_secondsf                =   7.8675750000000E+07
(PID.TID 0000.0001) %MON dynstat_eta_max              =   2.3122691672293E+00
(PID.TID 0000.0001) %MON dynstat_eta_min              =  -1.0400956827540E+01
(PID.TID 0000.0001) %MON dynstat_eta_mean             =   9.0057614160832E-02
(PID.TID 0000.0001) %MON dynstat_eta_sd               =   9.1263870374285E-01
(PID.TID 0000.0001) %MON dynstat_eta_del2             =   2.0109877955378E-03
(PID.TID 0000.0001) %MON dynstat_uvel_max             =   2.0944362833163E+00
(PID.TID 0000.0001) %MON dynstat_uvel_min             =  -2.5154047114961E+00
(PID.TID 0000.0001) %MON dynstat_uvel_mean            =   4.3604591260177E-03
(PID.TID 0000.0001) %MON dynstat_uvel_sd              =   3.3809552561032E-02
(PID.TID 0000.0001) %MON dynstat_uvel_del2            =   3.8159335031507E-05
(PID.TID 0000.0001) %MON dynstat_vvel_max             =   1.7712855654642E+00
(PID.TID 0000.0001) %MON dynstat_vvel_min             =  -2.1244876754828E+00
(PID.TID 0000.0001) %MON dynstat_vvel_mean            =   3.7748530345232E-03
(PID.TID 0000.0001) %MON dynstat_vvel_sd              =   3.3636348121188E-02
(PID.TID 0000.0001) %MON dynstat_vvel_del2            =   3.6514622856215E-05
(PID.TID 0000.0001) %MON dynstat_wvel_max             =   8.1912287276736E-03
(PID.TID 0000.0001) %MON dynstat_wvel_min             =  -7.6454716067154E-03
(PID.TID 0000.0001) %MON dynstat_wvel_mean            =   4.6220851908818E-07
(PID.TID 0000.0001) %MON dynstat_wvel_sd              =   1.3526243850198E-04
(PID.TID 0000.0001) %MON dynstat_wvel_del2            =   3.0474727464940E-07
(PID.TID 0000.0001) %MON dynstat_theta_max            =   3.2452332519582E+01
(PID.TID 0000.0001) %MON dynstat_theta_min            =  -2.0443607133130E+00
(PID.TID 0000.0001) %MON dynstat_theta_mean           =   3.5919421033186E+00
(PID.TID 0000.0001) %MON dynstat_theta_sd             =   4.4418680766207E+00
(PID.TID 0000.0001) %MON dynstat_theta_del2           =   1.2611390930075E-04
(PID.TID 0000.0001) %MON dynstat_salt_max             =   4.0655989740141E+01
(PID.TID 0000.0001) %MON dynstat_salt_min             =   1.5988506049440E+01
(PID.TID 0000.0001) %MON dynstat_salt_mean            =   3.4724794837150E+01
(PID.TID 0000.0001) %MON dynstat_salt_sd              =   3.7974368771225E-01
(PID.TID 0000.0001) %MON dynstat_salt_del2            =   6.4718576837185E-05
(PID.TID 0000.0001) %MON dynstat_sst_max              =   3.2452332519582E+01
(PID.TID 0000.0001) %MON dynstat_sst_min              =  -2.0443607133130E+00
(PID.TID 0000.0001) %MON dynstat_sst_mean             =   1.8179985307684E+01
(PID.TID 0000.0001) %MON dynstat_sst_sd               =   1.0197887762915E+01
(PID.TID 0000.0001) %MON dynstat_sst_del2             =   1.1026803632726E-03
(PID.TID 0000.0001) %MON dynstat_sss_max              =   3.9464126491261E+01
(PID.TID 0000.0001) %MON dynstat_sss_min              =   1.5988506049440E+01
(PID.TID 0000.0001) %MON dynstat_sss_mean             =   3.4642603648925E+01
(PID.TID 0000.0001) %MON dynstat_sss_sd               =   1.3008095249249E+00
(PID.TID 0000.0001) %MON dynstat_sss_del2             =   1.4713216695826E-03
(PID.TID 0000.0001) %MON forcing_qnet_max             =   1.7895885878301E+03
(PID.TID 0000.0001) %MON forcing_qnet_min             =  -1.8607879289652E+03
(PID.TID 0000.0001) %MON forcing_qnet_mean            =   3.3070863189830E+01
(PID.TID 0000.0001) %MON forcing_qnet_sd              =   1.9907111441242E+02
(PID.TID 0000.0001) %MON forcing_qnet_del2            =   4.2659688694362E-01
(PID.TID 0000.0001) %MON forcing_qsw_max              =   0.0000000000000E+00
(PID.TID 0000.0001) %MON forcing_qsw_min              =  -1.1230477698720E+02
(PID.TID 0000.0001) %MON forcing_qsw_mean             =  -1.5327456899763E+01
(PID.TID 0000.0001) %MON forcing_qsw_sd               =   2.8769111987220E+01
(PID.TID 0000.0001) %MON forcing_qsw_del2             =   2.0748726454204E-02
(PID.TID 0000.0001) %MON forcing_empmr_max            =   2.7680121362209E-02
(PID.TID 0000.0001) %MON forcing_empmr_min            =  -3.9184991270304E-02
(PID.TID 0000.0001) %MON forcing_empmr_mean           =  -1.9457581484228E-06
(PID.TID 0000.0001) %MON forcing_empmr_sd             =   3.1277183856629E-04
(PID.TID 0000.0001) %MON forcing_empmr_del2           =   3.3440600468876E-06
(PID.TID 0000.0001) %MON forcing_fu_max               =   7.8654682636261E-01
(PID.TID 0000.0001) %MON forcing_fu_min               =  -1.2315460036601E+00
(PID.TID 0000.0001) %MON forcing_fu_mean              =   1.2192154233326E-02
(PID.TID 0000.0001) %MON forcing_fu_sd                =   1.2610969938953E-01
(PID.TID 0000.0001) %MON forcing_fu_del2              =   1.6502530813574E-04
(PID.TID 0000.0001) %MON forcing_fv_max               =   9.2872184514999E-01
(PID.TID 0000.0001) %MON forcing_fv_min               =  -1.0683800362148E+00
(PID.TID 0000.0001) %MON forcing_fv_mean              =  -1.2116407218015E-03
(PID.TID 0000.0001) %MON forcing_fv_sd                =   1.1103977043306E-01
(PID.TID 0000.0001) %MON forcing_fv_del2              =   1.4861368155502E-04
(PID.TID 0000.0001) %MON trAdv_CFL_u_max              =   2.5945541681275E-02
(PID.TID 0000.0001) %MON trAdv_CFL_v_max              =   1.8724886069568E-02
(PID.TID 0000.0001) %MON trAdv_CFL_w_max              =   8.4387325753016E-02
(PID.TID 0000.0001) %MON advcfl_uvel_max              =   2.6292599443545E-02
(PID.TID 0000.0001) %MON advcfl_vvel_max              =   1.8397451017565E-02
(PID.TID 0000.0001) %MON advcfl_wvel_max              =   7.9411096920428E-02
(PID.TID 0000.0001) %MON advcfl_W_hf_max              =   8.4387325753016E-02
(PID.TID 0000.0001) %MON pe_b_mean                    =   2.5592236501817E-03
(PID.TID 0000.0001) %MON ke_max                       =   2.2113616432345E+00
(PID.TID 0000.0001) %MON ke_mean                      =   1.1127755497545E-03
(PID.TID 0000.0001) %MON ke_vol                       =   1.3350064351420E+18
(PID.TID 0000.0001) %MON vort_r_min                   =  -8.8958182017402E-05
(PID.TID 0000.0001) %MON vort_r_max                   =   9.5170473719589E-05
(PID.TID 0000.0001) %MON vort_a_mean                  =  -1.9725079357370E-05
(PID.TID 0000.0001) %MON vort_a_sd                    =   7.4540489847922E-05
(PID.TID 0000.0001) %MON vort_p_mean                  =  -2.1669084561653E-05
(PID.TID 0000.0001) %MON vort_p_sd                    =   9.3614575293088E-05
(PID.TID 0000.0001) %MON surfExpan_theta_mean         =   2.2259885797951E-05
(PID.TID 0000.0001) %MON surfExpan_salt_mean          =   9.7694757133608E-06
(PID.TID 0000.0001) // =======================================================
(PID.TID 0000.0001) // End MONITOR dynamic field statistics
(PID.TID 0000.0001) // =======================================================
(PID.TID 0000.0001) // =======================================================
(PID.TID 0000.0001) // Begin MONITOR SEAICE statistics
(PID.TID 0000.0001) // =======================================================
(PID.TID 0000.0001) %MON seaice_tsnumber              =                174835
(PID.TID 0000.0001) %MON seaice_time_sec              =   7.8675750000000E+07
(PID.TID 0000.0001) %MON seaice_uice_max              =   1.3180262022222E+00
(PID.TID 0000.0001) %MON seaice_uice_min              =  -1.1192676582984E+00
(PID.TID 0000.0001) %MON seaice_uice_mean             =   6.1260302657578E-03
(PID.TID 0000.0001) %MON seaice_uice_sd               =   1.5307493354983E-01
(PID.TID 0000.0001) %MON seaice_uice_del2             =   3.5050129343991E-04
(PID.TID 0000.0001) %MON seaice_vice_max              =   9.6297719481816E-01
(PID.TID 0000.0001) %MON seaice_vice_min              =  -1.4952470699958E+00
(PID.TID 0000.0001) %MON seaice_vice_mean             =  -2.0217184743014E-02
(PID.TID 0000.0001) %MON seaice_vice_sd               =   1.6310332357012E-01
(PID.TID 0000.0001) %MON seaice_vice_del2             =   3.3076459592681E-04
(PID.TID 0000.0001) %MON seaice_area_max              =   1.0032339252787E+00
(PID.TID 0000.0001) %MON seaice_area_min              =   0.0000000000000E+00
(PID.TID 0000.0001) %MON seaice_area_mean             =   5.7505809575775E-02
(PID.TID 0000.0001) %MON seaice_area_sd               =   2.2091753393159E-01
(PID.TID 0000.0001) %MON seaice_area_del2             =   2.8874632593497E-04
(PID.TID 0000.0001) %MON seaice_heff_max              =   9.9478528389758E+00
(PID.TID 0000.0001) %MON seaice_heff_min              =   0.0000000000000E+00
(PID.TID 0000.0001) %MON seaice_heff_mean             =   1.4952491322628E-01
(PID.TID 0000.0001) %MON seaice_heff_sd               =   7.2001336309480E-01
(PID.TID 0000.0001) %MON seaice_heff_del2             =   1.3613500704776E-03
(PID.TID 0000.0001) %MON seaice_hsnow_max             =   3.2858021225179E+00
(PID.TID 0000.0001) %MON seaice_hsnow_min             =   0.0000000000000E+00
(PID.TID 0000.0001) %MON seaice_hsnow_mean            =   1.2628968762398E-02
(PID.TID 0000.0001) %MON seaice_hsnow_sd              =   6.8043745302573E-02
(PID.TID 0000.0001) %MON seaice_hsnow_del2            =   3.7079498666489E-04
(PID.TID 0000.0001) // =======================================================
(PID.TID 0000.0001) // End MONITOR SEAICE statistics
(PID.TID 0000.0001) // =======================================================
(PID.TID 0000.0001) // =======================================================
(PID.TID 0000.0001) // Begin MONITOR dynamic field statistics
(PID.TID 0000.0001) // =======================================================
(PID.TID 0000.0001) %MON time_tsnumber                =                174836
(PID.TID 0000.0001) %MON time_secondsf                =   7.8676200000000E+07
(PID.TID 0000.0001) %MON dynstat_eta_max              =   2.2615001624633E+00
(PID.TID 0000.0001) %MON dynstat_eta_min              =  -1.0420293612708E+01
(PID.TID 0000.0001) %MON dynstat_eta_mean             =   9.0161425666164E-02
(PID.TID 0000.0001) %MON dynstat_eta_sd               =   9.1344613036356E-01
(PID.TID 0000.0001) %MON dynstat_eta_del2             =   2.0109846169396E-03
(PID.TID 0000.0001) %MON dynstat_uvel_max             =   2.0845208905903E+00
(PID.TID 0000.0001) %MON dynstat_uvel_min             =  -2.5089839667271E+00
(PID.TID 0000.0001) %MON dynstat_uvel_mean            =   4.4521210463551E-03
(PID.TID 0000.0001) %MON dynstat_uvel_sd              =   3.3959638783333E-02
(PID.TID 0000.0001) %MON dynstat_uvel_del2            =   3.8222343726724E-05
(PID.TID 0000.0001) %MON dynstat_vvel_max             =   1.7592122845913E+00
(PID.TID 0000.0001) %MON dynstat_vvel_min             =  -2.1216236964582E+00
(PID.TID 0000.0001) %MON dynstat_vvel_mean            =   3.7945456870920E-03
(PID.TID 0000.0001) %MON dynstat_vvel_sd              =   3.3766699811327E-02
(PID.TID 0000.0001) %MON dynstat_vvel_del2            =   3.6589627604444E-05
(PID.TID 0000.0001) %MON dynstat_wvel_max             =   8.2122723093407E-03
(PID.TID 0000.0001) %MON dynstat_wvel_min             =  -7.6423399414802E-03
(PID.TID 0000.0001) %MON dynstat_wvel_mean            =   4.5802722789774E-07
(PID.TID 0000.0001) %MON dynstat_wvel_sd              =   1.3598597417889E-04
(PID.TID 0000.0001) %MON dynstat_wvel_del2            =   3.0593571791823E-07
(PID.TID 0000.0001) %MON dynstat_theta_max            =   3.2451488406661E+01
(PID.TID 0000.0001) %MON dynstat_theta_min            =  -2.0444726221957E+00
(PID.TID 0000.0001) %MON dynstat_theta_mean           =   3.5919386512270E+00
(PID.TID 0000.0001) %MON dynstat_theta_sd             =   4.4418597815304E+00
(PID.TID 0000.0001) %MON dynstat_theta_del2           =   1.2615402598315E-04
(PID.TID 0000.0001) %MON dynstat_salt_max             =   4.0655989719678E+01
(PID.TID 0000.0001) %MON dynstat_salt_min             =   1.5987149389804E+01
(PID.TID 0000.0001) %MON dynstat_salt_mean            =   3.4724794608589E+01
(PID.TID 0000.0001) %MON dynstat_salt_sd              =   3.7974363809163E-01
(PID.TID 0000.0001) %MON dynstat_salt_del2            =   6.4681126162506E-05
(PID.TID 0000.0001) %MON dynstat_sst_max              =   3.2451488406661E+01
(PID.TID 0000.0001) %MON dynstat_sst_min              =  -2.0444726221957E+00
(PID.TID 0000.0001) %MON dynstat_sst_mean             =   1.8179708659204E+01
(PID.TID 0000.0001) %MON dynstat_sst_sd               =   1.0198052750134E+01
(PID.TID 0000.0001) %MON dynstat_sst_del2             =   1.1027859285821E-03
(PID.TID 0000.0001) %MON dynstat_sss_max              =   3.9464046915784E+01
(PID.TID 0000.0001) %MON dynstat_sss_min              =   1.5987149389804E+01
(PID.TID 0000.0001) %MON dynstat_sss_mean             =   3.4642571375097E+01
(PID.TID 0000.0001) %MON dynstat_sss_sd               =   1.3008748547401E+00
(PID.TID 0000.0001) %MON dynstat_sss_del2             =   1.4712337534584E-03
(PID.TID 0000.0001) %MON forcing_qnet_max             =   1.8377965545720E+03
(PID.TID 0000.0001) %MON forcing_qnet_min             =  -1.3859982872603E+03
(PID.TID 0000.0001) %MON forcing_qnet_mean            =   3.4034659060198E+01
(PID.TID 0000.0001) %MON forcing_qnet_sd              =   1.9926536056456E+02
(PID.TID 0000.0001) %MON forcing_qnet_del2            =   4.1713529745772E-01
(PID.TID 0000.0001) %MON forcing_qsw_max              =   0.0000000000000E+00
(PID.TID 0000.0001) %MON forcing_qsw_min              =  -1.1220442541225E+02
(PID.TID 0000.0001) %MON forcing_qsw_mean             =  -1.5216883612863E+01
(PID.TID 0000.0001) %MON forcing_qsw_sd               =   2.8690943012433E+01
(PID.TID 0000.0001) %MON forcing_qsw_del2             =   2.0589341495637E-02
(PID.TID 0000.0001) %MON forcing_empmr_max            =   2.8379449620843E-02
(PID.TID 0000.0001) %MON forcing_empmr_min            =  -4.0468100458384E-02
(PID.TID 0000.0001) %MON forcing_empmr_mean           =  -2.1462700620153E-06
(PID.TID 0000.0001) %MON forcing_empmr_sd             =   3.1569618667026E-04
(PID.TID 0000.0001) %MON forcing_empmr_del2           =   3.4088594251513E-06
(PID.TID 0000.0001) %MON forcing_fu_max               =   7.8855636715889E-01
(PID.TID 0000.0001) %MON forcing_fu_min               =  -1.2360091712772E+00
(PID.TID 0000.0001) %MON forcing_fu_mean              =   1.2177138590086E-02
(PID.TID 0000.0001) %MON forcing_fu_sd                =   1.2614025423519E-01
(PID.TID 0000.0001) %MON forcing_fu_del2              =   1.6521739498610E-04
(PID.TID 0000.0001) %MON forcing_fv_max               =   9.2699465155601E-01
(PID.TID 0000.0001) %MON forcing_fv_min               =  -1.0455655237763E+00
(PID.TID 0000.0001) %MON forcing_fv_mean              =  -1.1903618030405E-03
(PID.TID 0000.0001) %MON forcing_fv_sd                =   1.1117838956765E-01
(PID.TID 0000.0001) %MON forcing_fv_del2              =   1.4881138987293E-04
(PID.TID 0000.0001) %MON trAdv_CFL_u_max              =   2.5879313888877E-02
(PID.TID 0000.0001) %MON trAdv_CFL_v_max              =   1.8677184655647E-02
(PID.TID 0000.0001) %MON trAdv_CFL_w_max              =   8.3895301821392E-02
(PID.TID 0000.0001) %MON advcfl_uvel_max              =   2.6225485762168E-02
(PID.TID 0000.0001) %MON advcfl_vvel_max              =   1.8350583740359E-02
(PID.TID 0000.0001) %MON advcfl_wvel_max              =   7.8942384637537E-02
(PID.TID 0000.0001) %MON advcfl_W_hf_max              =   8.3895301821392E-02
(PID.TID 0000.0001) %MON pe_b_mean                    =   2.5634052126258E-03
(PID.TID 0000.0001) %MON ke_max                       =   2.1989849316036E+00
(PID.TID 0000.0001) %MON ke_mean                      =   1.1223777767825E-03
(PID.TID 0000.0001) %MON ke_vol                       =   1.3350064351420E+18
(PID.TID 0000.0001) %MON vort_r_min                   =  -8.8732733058867E-05
(PID.TID 0000.0001) %MON vort_r_max                   =   9.4895486351484E-05
(PID.TID 0000.0001) %MON vort_a_mean                  =  -1.9725079532407E-05
(PID.TID 0000.0001) %MON vort_a_sd                    =   7.4540526342512E-05
(PID.TID 0000.0001) %MON vort_p_mean                  =  -2.1669084753941E-05
(PID.TID 0000.0001) %MON vort_p_sd                    =   9.3614720140707E-05
(PID.TID 0000.0001) %MON surfExpan_theta_mean         =   2.2040408030599E-05
(PID.TID 0000.0001) %MON surfExpan_salt_mean          =   9.3930267136883E-06
(PID.TID 0000.0001) // =======================================================
(PID.TID 0000.0001) // End MONITOR dynamic field statistics
(PID.TID 0000.0001) // =======================================================
(PID.TID 0000.0001) // =======================================================
(PID.TID 0000.0001) // Begin MONITOR SEAICE statistics
(PID.TID 0000.0001) // =======================================================
(PID.TID 0000.0001) %MON seaice_tsnumber              =                174836
(PID.TID 0000.0001) %MON seaice_time_sec              =   7.8676200000000E+07
(PID.TID 0000.0001) %MON seaice_uice_max              =   1.3159741024065E+00
(PID.TID 0000.0001) %MON seaice_uice_min              =  -1.1098120263939E+00
(PID.TID 0000.0001) %MON seaice_uice_mean             =   6.2663138683590E-03
(PID.TID 0000.0001) %MON seaice_uice_sd               =   1.5293862297123E-01
(PID.TID 0000.0001) %MON seaice_uice_del2             =   3.5082071330862E-04
(PID.TID 0000.0001) %MON seaice_vice_max              =   9.6757173652116E-01
(PID.TID 0000.0001) %MON seaice_vice_min              =  -1.4941237249556E+00
(PID.TID 0000.0001) %MON seaice_vice_mean             =  -2.0051387028248E-02
(PID.TID 0000.0001) %MON seaice_vice_sd               =   1.6294089362409E-01
(PID.TID 0000.0001) %MON seaice_vice_del2             =   3.3132443687407E-04
(PID.TID 0000.0001) %MON seaice_area_max              =   1.0031457876204E+00
(PID.TID 0000.0001) %MON seaice_area_min              =   0.0000000000000E+00
(PID.TID 0000.0001) %MON seaice_area_mean             =   5.7507501849449E-02
(PID.TID 0000.0001) %MON seaice_area_sd               =   2.2091398617882E-01
(PID.TID 0000.0001) %MON seaice_area_del2             =   2.8867513513785E-04
(PID.TID 0000.0001) %MON seaice_heff_max              =   9.9478414176121E+00
(PID.TID 0000.0001) %MON seaice_heff_min              =   0.0000000000000E+00
(PID.TID 0000.0001) %MON seaice_heff_mean             =   1.4952108991641E-01
(PID.TID 0000.0001) %MON seaice_heff_sd               =   7.2000190356353E-01
(PID.TID 0000.0001) %MON seaice_heff_del2             =   1.3607759079077E-03
(PID.TID 0000.0001) %MON seaice_hsnow_max             =   3.2857982391931E+00
(PID.TID 0000.0001) %MON seaice_hsnow_min             =   0.0000000000000E+00
(PID.TID 0000.0001) %MON seaice_hsnow_mean            =   1.2628413646823E-02
(PID.TID 0000.0001) %MON seaice_hsnow_sd              =   6.8035912256453E-02
(PID.TID 0000.0001) %MON seaice_hsnow_del2            =   3.7055818295150E-04
(PID.TID 0000.0001) // =======================================================
(PID.TID 0000.0001) // End MONITOR SEAICE statistics
(PID.TID 0000.0001) // =======================================================
(PID.TID 0000.0001) // =======================================================
(PID.TID 0000.0001) // Begin MONITOR dynamic field statistics
(PID.TID 0000.0001) // =======================================================
(PID.TID 0000.0001) %MON time_tsnumber                =                174837
(PID.TID 0000.0001) %MON time_secondsf                =   7.8676650000000E+07
(PID.TID 0000.0001) %MON dynstat_eta_max              =   2.2047423372338E+00
(PID.TID 0000.0001) %MON dynstat_eta_min              =  -1.0438528739663E+01
(PID.TID 0000.0001) %MON dynstat_eta_mean             =   9.0261889449138E-02
(PID.TID 0000.0001) %MON dynstat_eta_sd               =   9.1422713817655E-01
(PID.TID 0000.0001) %MON dynstat_eta_del2             =   2.0109872730955E-03
(PID.TID 0000.0001) %MON dynstat_uvel_max             =   2.0746405094867E+00
(PID.TID 0000.0001) %MON dynstat_uvel_min             =  -2.5026122252144E+00
(PID.TID 0000.0001) %MON dynstat_uvel_mean            =   4.5476440808058E-03
(PID.TID 0000.0001) %MON dynstat_uvel_sd              =   3.4111243869306E-02
(PID.TID 0000.0001) %MON dynstat_uvel_del2            =   3.8286435965326E-05
(PID.TID 0000.0001) %MON dynstat_vvel_max             =   1.7468914048189E+00
(PID.TID 0000.0001) %MON dynstat_vvel_min             =  -2.1186713030229E+00
(PID.TID 0000.0001) %MON dynstat_vvel_mean            =   3.8124462084335E-03
(PID.TID 0000.0001) %MON dynstat_vvel_sd              =   3.3901437167010E-02
(PID.TID 0000.0001) %MON dynstat_vvel_del2            =   3.6665444537978E-05
(PID.TID 0000.0001) %MON dynstat_wvel_max             =   8.2333744883339E-03
(PID.TID 0000.0001) %MON dynstat_wvel_min             =  -7.6395732800837E-03
(PID.TID 0000.0001) %MON dynstat_wvel_mean            =   4.5449679587798E-07
(PID.TID 0000.0001) %MON dynstat_wvel_sd              =   1.3671669598398E-04
(PID.TID 0000.0001) %MON dynstat_wvel_del2            =   3.0713535180413E-07
(PID.TID 0000.0001) %MON dynstat_theta_max            =   3.2450500609683E+01
(PID.TID 0000.0001) %MON dynstat_theta_min            =  -2.0445834075788E+00
(PID.TID 0000.0001) %MON dynstat_theta_mean           =   3.5919351743055E+00
(PID.TID 0000.0001) %MON dynstat_theta_sd             =   4.4418511212682E+00
(PID.TID 0000.0001) %MON dynstat_theta_del2           =   1.2619595403276E-04
(PID.TID 0000.0001) %MON dynstat_salt_max             =   4.0655989701077E+01
(PID.TID 0000.0001) %MON dynstat_salt_min             =   1.5985795353308E+01
(PID.TID 0000.0001) %MON dynstat_salt_mean            =   3.4724794391163E+01
(PID.TID 0000.0001) %MON dynstat_salt_sd              =   3.7974354264343E-01
(PID.TID 0000.0001) %MON dynstat_salt_del2            =   6.4643941087541E-05
(PID.TID 0000.0001) %MON dynstat_sst_max              =   3.2450500609683E+01
(PID.TID 0000.0001) %MON dynstat_sst_min              =  -2.0445834075788E+00
(PID.TID 0000.0001) %MON dynstat_sst_mean             =   1.8179420499876E+01
(PID.TID 0000.0001) %MON dynstat_sst_sd               =   1.0198201639119E+01
(PID.TID 0000.0001) %MON dynstat_sst_del2             =   1.1030328151406E-03
(PID.TID 0000.0001) %MON dynstat_sss_max              =   3.9463964548775E+01
(PID.TID 0000.0001) %MON dynstat_sss_min              =   1.5985795353308E+01
(PID.TID 0000.0001) %MON dynstat_sss_mean             =   3.4642540565780E+01
(PID.TID 0000.0001) %MON dynstat_sss_sd               =   1.3009395031520E+00
(PID.TID 0000.0001) %MON dynstat_sss_del2             =   1.4711440388039E-03
(PID.TID 0000.0001) %MON forcing_qnet_max             =   1.8752437704312E+03
(PID.TID 0000.0001) %MON forcing_qnet_min             =  -1.6842326660156E+03
(PID.TID 0000.0001) %MON forcing_qnet_mean            =   3.5833218477808E+01
(PID.TID 0000.0001) %MON forcing_qnet_sd              =   2.0035795401038E+02
(PID.TID 0000.0001) %MON forcing_qnet_del2            =   4.2192729984098E-01
(PID.TID 0000.0001) %MON forcing_qsw_max              =   0.0000000000000E+00
(PID.TID 0000.0001) %MON forcing_qsw_min              =  -1.1183197755157E+02
(PID.TID 0000.0001) %MON forcing_qsw_mean             =  -1.4934237145400E+01
(PID.TID 0000.0001) %MON forcing_qsw_sd               =   2.8473460590380E+01
(PID.TID 0000.0001) %MON forcing_qsw_del2             =   2.0257201314978E-02
(PID.TID 0000.0001) %MON forcing_empmr_max            =   2.9054092243314E-02
(PID.TID 0000.0001) %MON forcing_empmr_min            =  -4.0924333035946E-02
(PID.TID 0000.0001) %MON forcing_empmr_mean           =  -2.0297567963331E-06
(PID.TID 0000.0001) %MON forcing_empmr_sd             =   3.1677495479781E-04
(PID.TID 0000.0001) %MON forcing_empmr_del2           =   3.4406987816223E-06
(PID.TID 0000.0001) %MON forcing_fu_max               =   7.9079893231392E-01
(PID.TID 0000.0001) %MON forcing_fu_min               =  -1.2422764898012E+00
(PID.TID 0000.0001) %MON forcing_fu_mean              =   1.2161881019000E-02
(PID.TID 0000.0001) %MON forcing_fu_sd                =   1.2614298584593E-01
(PID.TID 0000.0001) %MON forcing_fu_del2              =   1.6545955793479E-04
(PID.TID 0000.0001) %MON forcing_fv_max               =   9.2584109306335E-01
(PID.TID 0000.0001) %MON forcing_fv_min               =  -1.0386260166508E+00
(PID.TID 0000.0001) %MON forcing_fv_mean              =  -1.1711313429258E-03
(PID.TID 0000.0001) %MON forcing_fv_sd                =   1.1131218929023E-01
(PID.TID 0000.0001) %MON forcing_fv_del2              =   1.4897531070911E-04
(PID.TID 0000.0001) %MON trAdv_CFL_u_max              =   2.5813591548355E-02
(PID.TID 0000.0001) %MON trAdv_CFL_v_max              =   1.8628630358753E-02
(PID.TID 0000.0001) %MON trAdv_CFL_w_max              =   8.3422754235716E-02
(PID.TID 0000.0001) %MON advcfl_uvel_max              =   2.6158884293790E-02
(PID.TID 0000.0001) %MON advcfl_vvel_max              =   1.8302878494223E-02
(PID.TID 0000.0001) %MON advcfl_wvel_max              =   7.8493402548328E-02
(PID.TID 0000.0001) %MON advcfl_W_hf_max              =   8.3422754235716E-02
(PID.TID 0000.0001) %MON pe_b_mean                    =   2.5674025592117E-03
(PID.TID 0000.0001) %MON ke_max                       =   2.1867622000898E+00
(PID.TID 0000.0001) %MON ke_mean                      =   1.1322302714431E-03
(PID.TID 0000.0001) %MON ke_vol                       =   1.3350064351420E+18
(PID.TID 0000.0001) %MON vort_r_min                   =  -8.8506881663620E-05
(PID.TID 0000.0001) %MON vort_r_max                   =   9.4623312233477E-05
(PID.TID 0000.0001) %MON vort_a_mean                  =  -1.9725079707751E-05
(PID.TID 0000.0001) %MON vort_a_sd                    =   7.4540563108465E-05
(PID.TID 0000.0001) %MON vort_p_mean                  =  -2.1669084946567E-05
(PID.TID 0000.0001) %MON vort_p_sd                    =   9.3614862930093E-05
(PID.TID 0000.0001) %MON surfExpan_theta_mean         =   2.1797686275438E-05
(PID.TID 0000.0001) %MON surfExpan_salt_mean          =   9.0541348435949E-06
(PID.TID 0000.0001) // =======================================================
(PID.TID 0000.0001) // End MONITOR dynamic field statistics
(PID.TID 0000.0001) // =======================================================
(PID.TID 0000.0001) // =======================================================
(PID.TID 0000.0001) // Begin MONITOR SEAICE statistics
(PID.TID 0000.0001) // =======================================================
(PID.TID 0000.0001) %MON seaice_tsnumber              =                174837
(PID.TID 0000.0001) %MON seaice_time_sec              =   7.8676650000000E+07
(PID.TID 0000.0001) %MON seaice_uice_max              =   1.3138880768951E+00
(PID.TID 0000.0001) %MON seaice_uice_min              =  -1.1006718414248E+00
(PID.TID 0000.0001) %MON seaice_uice_mean             =   6.4107039634763E-03
(PID.TID 0000.0001) %MON seaice_uice_sd               =   1.5279701502790E-01
(PID.TID 0000.0001) %MON seaice_uice_del2             =   3.5109956151533E-04
(PID.TID 0000.0001) %MON seaice_vice_max              =   9.7230755220932E-01
(PID.TID 0000.0001) %MON seaice_vice_min              =  -1.4933115081277E+00
(PID.TID 0000.0001) %MON seaice_vice_mean             =  -1.9892409010298E-02
(PID.TID 0000.0001) %MON seaice_vice_sd               =   1.6280350289887E-01
(PID.TID 0000.0001) %MON seaice_vice_del2             =   3.3186309383310E-04
(PID.TID 0000.0001) %MON seaice_area_max              =   1.0030516853637E+00
(PID.TID 0000.0001) %MON seaice_area_min              =   0.0000000000000E+00
(PID.TID 0000.0001) %MON seaice_area_mean             =   5.7509219567018E-02
(PID.TID 0000.0001) %MON seaice_area_sd               =   2.2091049626084E-01
(PID.TID 0000.0001) %MON seaice_area_del2             =   2.8860151245014E-04
(PID.TID 0000.0001) %MON seaice_heff_max              =   9.9478299964311E+00
(PID.TID 0000.0001) %MON seaice_heff_min              =   0.0000000000000E+00
(PID.TID 0000.0001) %MON seaice_heff_mean             =   1.4951727553232E-01
(PID.TID 0000.0001) %MON seaice_heff_sd               =   7.1999042357057E-01
(PID.TID 0000.0001) %MON seaice_heff_del2             =   1.3601939947928E-03
(PID.TID 0000.0001) %MON seaice_hsnow_max             =   3.2857943558444E+00
(PID.TID 0000.0001) %MON seaice_hsnow_min             =   0.0000000000000E+00
(PID.TID 0000.0001) %MON seaice_hsnow_mean            =   1.2627857253519E-02
(PID.TID 0000.0001) %MON seaice_hsnow_sd              =   6.8028041297006E-02
(PID.TID 0000.0001) %MON seaice_hsnow_del2            =   3.7031946870602E-04
(PID.TID 0000.0001) // =======================================================
(PID.TID 0000.0001) // End MONITOR SEAICE statistics
(PID.TID 0000.0001) // =======================================================
(PID.TID 0000.0001) // =======================================================
(PID.TID 0000.0001) // Begin MONITOR dynamic field statistics
(PID.TID 0000.0001) // =======================================================
(PID.TID 0000.0001) %MON time_tsnumber                =                174838
(PID.TID 0000.0001) %MON time_secondsf                =   7.8677100000000E+07
(PID.TID 0000.0001) %MON dynstat_eta_max              =   2.1424697531018E+00
(PID.TID 0000.0001) %MON dynstat_eta_min              =  -1.0455601657218E+01
(PID.TID 0000.0001) %MON dynstat_eta_mean             =   9.0359211771336E-02
(PID.TID 0000.0001) %MON dynstat_eta_sd               =   9.1498248702561E-01
(PID.TID 0000.0001) %MON dynstat_eta_del2             =   2.0109957896685E-03
(PID.TID 0000.0001) %MON dynstat_uvel_max             =   2.0647916421534E+00
(PID.TID 0000.0001) %MON dynstat_uvel_min             =  -2.4962984976598E+00
(PID.TID 0000.0001) %MON dynstat_uvel_mean            =   4.6467693504168E-03
(PID.TID 0000.0001) %MON dynstat_uvel_sd              =   3.4264619035765E-02
(PID.TID 0000.0001) %MON dynstat_uvel_del2            =   3.8350919649427E-05
(PID.TID 0000.0001) %MON dynstat_vvel_max             =   1.7357831459405E+00
(PID.TID 0000.0001) %MON dynstat_vvel_min             =  -2.1156301502438E+00
(PID.TID 0000.0001) %MON dynstat_vvel_mean            =   3.8285436605675E-03
(PID.TID 0000.0001) %MON dynstat_vvel_sd              =   3.4041336948690E-02
(PID.TID 0000.0001) %MON dynstat_vvel_del2            =   3.6741661408520E-05
(PID.TID 0000.0001) %MON dynstat_wvel_max             =   8.2545623529160E-03
(PID.TID 0000.0001) %MON dynstat_wvel_min             =  -7.6372416283828E-03
(PID.TID 0000.0001) %MON dynstat_wvel_mean            =   4.5096773222384E-07
(PID.TID 0000.0001) %MON dynstat_wvel_sd              =   1.3745466149279E-04
(PID.TID 0000.0001) %MON dynstat_wvel_del2            =   3.0834521344339E-07
(PID.TID 0000.0001) %MON dynstat_theta_max            =   3.2449402197832E+01
(PID.TID 0000.0001) %MON dynstat_theta_min            =  -2.0446932488772E+00
(PID.TID 0000.0001) %MON dynstat_theta_mean           =   3.5919317187413E+00
(PID.TID 0000.0001) %MON dynstat_theta_sd             =   4.4418423460442E+00
(PID.TID 0000.0001) %MON dynstat_theta_del2           =   1.2623584120901E-04
(PID.TID 0000.0001) %MON dynstat_salt_max             =   4.0655989684349E+01
(PID.TID 0000.0001) %MON dynstat_salt_min             =   1.5984443604518E+01
(PID.TID 0000.0001) %MON dynstat_salt_mean            =   3.4724794185457E+01
(PID.TID 0000.0001) %MON dynstat_salt_sd              =   3.7974341510647E-01
(PID.TID 0000.0001) %MON dynstat_salt_del2            =   6.4606831336859E-05
(PID.TID 0000.0001) %MON dynstat_sst_max              =   3.2449402197832E+01
(PID.TID 0000.0001) %MON dynstat_sst_min              =  -2.0446932488772E+00
(PID.TID 0000.0001) %MON dynstat_sst_mean             =   1.8179150276228E+01
(PID.TID 0000.0001) %MON dynstat_sst_sd               =   1.0198360526785E+01
(PID.TID 0000.0001) %MON dynstat_sst_del2             =   1.1030871420013E-03
(PID.TID 0000.0001) %MON dynstat_sss_max              =   3.9463882225992E+01
(PID.TID 0000.0001) %MON dynstat_sss_min              =   1.5984443604518E+01
(PID.TID 0000.0001) %MON dynstat_sss_mean             =   3.4642509935753E+01
(PID.TID 0000.0001) %MON dynstat_sss_sd               =   1.3010037007698E+00
(PID.TID 0000.0001) %MON dynstat_sss_del2             =   1.4710536246581E-03
(PID.TID 0000.0001) %MON forcing_qnet_max             =   1.8874383434031E+03
(PID.TID 0000.0001) %MON forcing_qnet_min             =  -1.8809415283203E+03
(PID.TID 0000.0001) %MON forcing_qnet_mean            =   3.6184257785245E+01
(PID.TID 0000.0001) %MON forcing_qnet_sd              =   2.0101399336092E+02
(PID.TID 0000.0001) %MON forcing_qnet_del2            =   4.4075686215920E-01
(PID.TID 0000.0001) %MON forcing_qsw_max              =   0.0000000000000E+00
(PID.TID 0000.0001) %MON forcing_qsw_min              =  -1.1181311433040E+02
(PID.TID 0000.0001) %MON forcing_qsw_mean             =  -1.4898146852688E+01
(PID.TID 0000.0001) %MON forcing_qsw_sd               =   2.8411562908474E+01
(PID.TID 0000.0001) %MON forcing_qsw_del2             =   2.0189506866070E-02
(PID.TID 0000.0001) %MON forcing_empmr_max            =   2.9690485447645E-02
(PID.TID 0000.0001) %MON forcing_empmr_min            =  -4.1357152163982E-02
(PID.TID 0000.0001) %MON forcing_empmr_mean           =  -1.9264842090345E-06
(PID.TID 0000.0001) %MON forcing_empmr_sd             =   3.1800468149257E-04
(PID.TID 0000.0001) %MON forcing_empmr_del2           =   3.4754924686077E-06
(PID.TID 0000.0001) %MON forcing_fu_max               =   7.8723323345184E-01
(PID.TID 0000.0001) %MON forcing_fu_min               =  -1.2499646923817E+00
(PID.TID 0000.0001) %MON forcing_fu_mean              =   1.2136788131223E-02
(PID.TID 0000.0001) %MON forcing_fu_sd                =   1.2614429010480E-01
(PID.TID 0000.0001) %MON forcing_fu_del2              =   1.6571289796085E-04
(PID.TID 0000.0001) %MON forcing_fv_max               =   9.2513865232468E-01
(PID.TID 0000.0001) %MON forcing_fv_min               =  -1.0372818915998E+00
(PID.TID 0000.0001) %MON forcing_fv_mean              =  -1.1415240808714E-03
(PID.TID 0000.0001) %MON forcing_fv_sd                =   1.1145336045938E-01
(PID.TID 0000.0001) %MON forcing_fv_del2              =   1.4910854531555E-04
(PID.TID 0000.0001) %MON trAdv_CFL_u_max              =   2.5748467602025E-02
(PID.TID 0000.0001) %MON trAdv_CFL_v_max              =   1.8579375064823E-02
(PID.TID 0000.0001) %MON trAdv_CFL_w_max              =   8.2968858828191E-02
(PID.TID 0000.0001) %MON advcfl_uvel_max              =   2.6092889223959E-02
(PID.TID 0000.0001) %MON advcfl_vvel_max              =   1.8254484509124E-02
(PID.TID 0000.0001) %MON advcfl_wvel_max              =   7.8063380377432E-02
(PID.TID 0000.0001) %MON advcfl_W_hf_max              =   8.2968858828191E-02
(PID.TID 0000.0001) %MON pe_b_mean                    =   2.5712212578811E-03
(PID.TID 0000.0001) %MON ke_max                       =   2.1747155118375E+00
(PID.TID 0000.0001) %MON ke_mean                      =   1.1423689874415E-03
(PID.TID 0000.0001) %MON ke_vol                       =   1.3350064351420E+18
(PID.TID 0000.0001) %MON vort_r_min                   =  -8.8281072000745E-05
(PID.TID 0000.0001) %MON vort_r_max                   =   9.4354509404899E-05
(PID.TID 0000.0001) %MON vort_a_mean                  =  -1.9725079881244E-05
(PID.TID 0000.0001) %MON vort_a_sd                    =   7.4540600095360E-05
(PID.TID 0000.0001) %MON vort_p_mean                  =  -2.1669085137158E-05
(PID.TID 0000.0001) %MON vort_p_sd                    =   9.3615003653227E-05
(PID.TID 0000.0001) %MON surfExpan_theta_mean         =   2.1521977194639E-05
(PID.TID 0000.0001) %MON surfExpan_salt_mean          =   8.7249631151487E-06
(PID.TID 0000.0001) // =======================================================
(PID.TID 0000.0001) // End MONITOR dynamic field statistics
(PID.TID 0000.0001) // =======================================================
(PID.TID 0000.0001) // =======================================================
(PID.TID 0000.0001) // Begin MONITOR SEAICE statistics
(PID.TID 0000.0001) // =======================================================
(PID.TID 0000.0001) %MON seaice_tsnumber              =                174838
(PID.TID 0000.0001) %MON seaice_time_sec              =   7.8677100000000E+07
(PID.TID 0000.0001) %MON seaice_uice_max              =   1.3118613420859E+00
(PID.TID 0000.0001) %MON seaice_uice_min              =  -1.0919097381189E+00
(PID.TID 0000.0001) %MON seaice_uice_mean             =   6.5595047913246E-03
(PID.TID 0000.0001) %MON seaice_uice_sd               =   1.5263427608902E-01
(PID.TID 0000.0001) %MON seaice_uice_del2             =   3.5144578047798E-04
(PID.TID 0000.0001) %MON seaice_vice_max              =   9.7716782663533E-01
(PID.TID 0000.0001) %MON seaice_vice_min              =  -1.4921033110648E+00
(PID.TID 0000.0001) %MON seaice_vice_mean             =  -1.9728855032204E-02
(PID.TID 0000.0001) %MON seaice_vice_sd               =   1.6263706226817E-01
(PID.TID 0000.0001) %MON seaice_vice_del2             =   3.3245991816859E-04
(PID.TID 0000.0001) %MON seaice_area_max              =   1.0029513467035E+00
(PID.TID 0000.0001) %MON seaice_area_min              =   0.0000000000000E+00
(PID.TID 0000.0001) %MON seaice_area_mean             =   5.7510956269756E-02
(PID.TID 0000.0001) %MON seaice_area_sd               =   2.2090707239276E-01
(PID.TID 0000.0001) %MON seaice_area_del2             =   2.8852619465446E-04
(PID.TID 0000.0001) %MON seaice_heff_max              =   9.9478185749313E+00
(PID.TID 0000.0001) %MON seaice_heff_min              =   0.0000000000000E+00
(PID.TID 0000.0001) %MON seaice_heff_mean             =   1.4951347322791E-01
(PID.TID 0000.0001) %MON seaice_heff_sd               =   7.1997895078180E-01
(PID.TID 0000.0001) %MON seaice_heff_del2             =   1.3596045237420E-03
(PID.TID 0000.0001) %MON seaice_hsnow_max             =   3.2857904725696E+00
(PID.TID 0000.0001) %MON seaice_hsnow_min             =   0.0000000000000E+00
(PID.TID 0000.0001) %MON seaice_hsnow_mean            =   1.2627299458434E-02
(PID.TID 0000.0001) %MON seaice_hsnow_sd              =   6.8020112867892E-02
(PID.TID 0000.0001) %MON seaice_hsnow_del2            =   3.7007867858262E-04
(PID.TID 0000.0001) // =======================================================
(PID.TID 0000.0001) // End MONITOR SEAICE statistics
(PID.TID 0000.0001) // =======================================================
(PID.TID 0000.0001) // =======================================================
(PID.TID 0000.0001) // Begin MONITOR dynamic field statistics
(PID.TID 0000.0001) // =======================================================
(PID.TID 0000.0001) %MON time_tsnumber                =                174839
(PID.TID 0000.0001) %MON time_secondsf                =   7.8677550000000E+07
(PID.TID 0000.0001) %MON dynstat_eta_max              =   2.0751798545190E+00
(PID.TID 0000.0001) %MON dynstat_eta_min              =  -1.0471457369624E+01
(PID.TID 0000.0001) %MON dynstat_eta_mean             =   9.0453579105057E-02
(PID.TID 0000.0001) %MON dynstat_eta_sd               =   9.1571306780429E-01
(PID.TID 0000.0001) %MON dynstat_eta_del2             =   2.0110094557316E-03
(PID.TID 0000.0001) %MON dynstat_uvel_max             =   2.0549693234975E+00
(PID.TID 0000.0001) %MON dynstat_uvel_min             =  -2.4900583542420E+00
(PID.TID 0000.0001) %MON dynstat_uvel_mean            =   4.7492185249602E-03
(PID.TID 0000.0001) %MON dynstat_uvel_sd              =   3.4419588568859E-02
(PID.TID 0000.0001) %MON dynstat_uvel_del2            =   3.8416383073546E-05
(PID.TID 0000.0001) %MON dynstat_vvel_max             =   1.7254328547734E+00
(PID.TID 0000.0001) %MON dynstat_vvel_min             =  -2.1124982055953E+00
(PID.TID 0000.0001) %MON dynstat_vvel_mean            =   3.8428439617969E-03
(PID.TID 0000.0001) %MON dynstat_vvel_sd              =   3.4185804949600E-02
(PID.TID 0000.0001) %MON dynstat_vvel_del2            =   3.6818489968664E-05
(PID.TID 0000.0001) %MON dynstat_wvel_max             =   8.2758673580757E-03
(PID.TID 0000.0001) %MON dynstat_wvel_min             =  -7.6353773026375E-03
(PID.TID 0000.0001) %MON dynstat_wvel_mean            =   4.4760418171460E-07
(PID.TID 0000.0001) %MON dynstat_wvel_sd              =   1.3819999258744E-04
(PID.TID 0000.0001) %MON dynstat_wvel_del2            =   3.0956511275799E-07
(PID.TID 0000.0001) %MON dynstat_theta_max            =   3.2448242341200E+01
(PID.TID 0000.0001) %MON dynstat_theta_min            =  -2.0448023509326E+00
(PID.TID 0000.0001) %MON dynstat_theta_mean           =   3.5919282826882E+00
(PID.TID 0000.0001) %MON dynstat_theta_sd             =   4.4418334275291E+00
(PID.TID 0000.0001) %MON dynstat_theta_del2           =   1.2627735143811E-04
(PID.TID 0000.0001) %MON dynstat_salt_max             =   4.0655989669499E+01
(PID.TID 0000.0001) %MON dynstat_salt_min             =   1.5983093635874E+01
(PID.TID 0000.0001) %MON dynstat_salt_mean            =   3.4724793993926E+01
(PID.TID 0000.0001) %MON dynstat_salt_sd              =   3.7974324438131E-01
(PID.TID 0000.0001) %MON dynstat_salt_del2            =   6.4570010601095E-05
(PID.TID 0000.0001) %MON dynstat_sst_max              =   3.2448242341200E+01
(PID.TID 0000.0001) %MON dynstat_sst_min              =  -2.0448023509326E+00
(PID.TID 0000.0001) %MON dynstat_sst_mean             =   1.8178883048083E+01
(PID.TID 0000.0001) %MON dynstat_sst_sd               =   1.0198517280214E+01
(PID.TID 0000.0001) %MON dynstat_sst_del2             =   1.1032627349195E-03
(PID.TID 0000.0001) %MON dynstat_sss_max              =   3.9463801425182E+01
(PID.TID 0000.0001) %MON dynstat_sss_min              =   1.5983093635874E+01
(PID.TID 0000.0001) %MON dynstat_sss_mean             =   3.4642481300270E+01
(PID.TID 0000.0001) %MON dynstat_sss_sd               =   1.3010665106889E+00
(PID.TID 0000.0001) %MON dynstat_sss_del2             =   1.4709710322292E-03
(PID.TID 0000.0001) %MON forcing_qnet_max             =   1.8535701864239E+03
(PID.TID 0000.0001) %MON forcing_qnet_min             =  -5.4696855468750E+03
(PID.TID 0000.0001) %MON forcing_qnet_mean            =   3.6694929064571E+01
(PID.TID 0000.0001) %MON forcing_qnet_sd              =   2.0355945865959E+02
(PID.TID 0000.0001) %MON forcing_qnet_del2            =   5.7785798425935E-01
(PID.TID 0000.0001) %MON forcing_qsw_max              =   0.0000000000000E+00
(PID.TID 0000.0001) %MON forcing_qsw_min              =  -1.1184251503082E+02
(PID.TID 0000.0001) %MON forcing_qsw_mean             =  -1.4857661372163E+01
(PID.TID 0000.0001) %MON forcing_qsw_sd               =   2.8330495209386E+01
(PID.TID 0000.0001) %MON forcing_qsw_del2             =   2.0119269558053E-02
(PID.TID 0000.0001) %MON forcing_empmr_max            =   3.0201552435756E-02
(PID.TID 0000.0001) %MON forcing_empmr_min            =  -4.1237227618694E-02
(PID.TID 0000.0001) %MON forcing_empmr_mean           =  -1.7860189129917E-06
(PID.TID 0000.0001) %MON forcing_empmr_sd             =   3.1664155668470E-04
(PID.TID 0000.0001) %MON forcing_empmr_del2           =   3.4729091549919E-06
(PID.TID 0000.0001) %MON forcing_fu_max               =   7.9194188117981E-01
(PID.TID 0000.0001) %MON forcing_fu_min               =  -1.2566196288898E+00
(PID.TID 0000.0001) %MON forcing_fu_mean              =   1.2103405126327E-02
(PID.TID 0000.0001) %MON forcing_fu_sd                =   1.2614719628694E-01
(PID.TID 0000.0001) %MON forcing_fu_del2              =   1.6588899183633E-04
(PID.TID 0000.0001) %MON forcing_fv_max               =   9.2488318681717E-01
(PID.TID 0000.0001) %MON forcing_fv_min               =  -1.0333828126672E+00
(PID.TID 0000.0001) %MON forcing_fv_mean              =  -1.1110160421622E-03
(PID.TID 0000.0001) %MON forcing_fv_sd                =   1.1159979162560E-01
(PID.TID 0000.0001) %MON forcing_fv_del2              =   1.4925401791079E-04
(PID.TID 0000.0001) %MON trAdv_CFL_u_max              =   2.5684102650967E-02
(PID.TID 0000.0001) %MON trAdv_CFL_v_max              =   1.8529637256672E-02
(PID.TID 0000.0001) %MON trAdv_CFL_w_max              =   8.2532161523652E-02
(PID.TID 0000.0001) %MON advcfl_uvel_max              =   2.6027663302021E-02
(PID.TID 0000.0001) %MON advcfl_vvel_max              =   1.8205616447349E-02
(PID.TID 0000.0001) %MON advcfl_wvel_max              =   7.7650895785897E-02
(PID.TID 0000.0001) %MON advcfl_W_hf_max              =   8.2532161523652E-02
(PID.TID 0000.0001) %MON pe_b_mean                    =   2.5748679252883E-03
(PID.TID 0000.0001) %MON ke_max                       =   2.1628750264754E+00
(PID.TID 0000.0001) %MON ke_mean                      =   1.1527710712692E-03
(PID.TID 0000.0001) %MON ke_vol                       =   1.3350064351420E+18
(PID.TID 0000.0001) %MON vort_r_min                   =  -8.8056046110633E-05
(PID.TID 0000.0001) %MON vort_r_max                   =   9.4089794388510E-05
(PID.TID 0000.0001) %MON vort_a_mean                  =  -1.9725080051799E-05
(PID.TID 0000.0001) %MON vort_a_sd                    =   7.4540637248695E-05
(PID.TID 0000.0001) %MON vort_p_mean                  =  -2.1669085324521E-05
(PID.TID 0000.0001) %MON vort_p_sd                    =   9.3615142026734E-05
(PID.TID 0000.0001) %MON surfExpan_theta_mean         =   2.1218769032200E-05
(PID.TID 0000.0001) %MON surfExpan_salt_mean          =   8.4057425307353E-06
(PID.TID 0000.0001) // =======================================================
(PID.TID 0000.0001) // End MONITOR dynamic field statistics
(PID.TID 0000.0001) // =======================================================
(PID.TID 0000.0001) // =======================================================
(PID.TID 0000.0001) // Begin MONITOR SEAICE statistics
(PID.TID 0000.0001) // =======================================================
(PID.TID 0000.0001) %MON seaice_tsnumber              =                174839
(PID.TID 0000.0001) %MON seaice_time_sec              =   7.8677550000000E+07
(PID.TID 0000.0001) %MON seaice_uice_max              =   1.3098122193753E+00
(PID.TID 0000.0001) %MON seaice_uice_min              =  -1.0835884438764E+00
(PID.TID 0000.0001) %MON seaice_uice_mean             =   6.7115594569642E-03
(PID.TID 0000.0001) %MON seaice_uice_sd               =   1.5247563503073E-01
(PID.TID 0000.0001) %MON seaice_uice_del2             =   3.5175298898197E-04
(PID.TID 0000.0001) %MON seaice_vice_max              =   9.8197904904245E-01
(PID.TID 0000.0001) %MON seaice_vice_min              =  -1.4911204916556E+00
(PID.TID 0000.0001) %MON seaice_vice_mean             =  -1.9573847280926E-02
(PID.TID 0000.0001) %MON seaice_vice_sd               =   1.6250246321882E-01
(PID.TID 0000.0001) %MON seaice_vice_del2             =   3.3298298505931E-04
(PID.TID 0000.0001) %MON seaice_area_max              =   1.0028479224929E+00
(PID.TID 0000.0001) %MON seaice_area_min              =   0.0000000000000E+00
(PID.TID 0000.0001) %MON seaice_area_mean             =   5.7512717725944E-02
(PID.TID 0000.0001) %MON seaice_area_sd               =   2.2090373380079E-01
(PID.TID 0000.0001) %MON seaice_area_del2             =   2.8844973381341E-04
(PID.TID 0000.0001) %MON seaice_heff_max              =   9.9478071531324E+00
(PID.TID 0000.0001) %MON seaice_heff_min              =   0.0000000000000E+00
(PID.TID 0000.0001) %MON seaice_heff_mean             =   1.4950967891080E-01
(PID.TID 0000.0001) %MON seaice_heff_sd               =   7.1996745027802E-01
(PID.TID 0000.0001) %MON seaice_heff_del2             =   1.3590054345423E-03
(PID.TID 0000.0001) %MON seaice_hsnow_max             =   3.2857863507213E+00
(PID.TID 0000.0001) %MON seaice_hsnow_min             =   0.0000000000000E+00
(PID.TID 0000.0001) %MON seaice_hsnow_mean            =   1.2626746165005E-02
(PID.TID 0000.0001) %MON seaice_hsnow_sd              =   6.8012163828341E-02
(PID.TID 0000.0001) %MON seaice_hsnow_del2            =   3.6983492754040E-04
(PID.TID 0000.0001) // =======================================================
(PID.TID 0000.0001) // End MONITOR SEAICE statistics
(PID.TID 0000.0001) // =======================================================
(PID.TID 0000.0001) // =======================================================
(PID.TID 0000.0001) // Begin MONITOR dynamic field statistics
(PID.TID 0000.0001) // =======================================================
(PID.TID 0000.0001) %MON time_tsnumber                =                174840
(PID.TID 0000.0001) %MON time_secondsf                =   7.8678000000000E+07
(PID.TID 0000.0001) %MON dynstat_eta_max              =   2.0036073802797E+00
(PID.TID 0000.0001) %MON dynstat_eta_min              =  -1.0486053875276E+01
(PID.TID 0000.0001) %MON dynstat_eta_mean             =   9.0545312598005E-02
(PID.TID 0000.0001) %MON dynstat_eta_sd               =   9.1641975824537E-01
(PID.TID 0000.0001) %MON dynstat_eta_del2             =   2.0110289969517E-03
(PID.TID 0000.0001) %MON dynstat_uvel_max             =   2.0451683044064E+00
(PID.TID 0000.0001) %MON dynstat_uvel_min             =  -2.4839085688695E+00
(PID.TID 0000.0001) %MON dynstat_uvel_mean            =   4.8546738522295E-03
(PID.TID 0000.0001) %MON dynstat_uvel_sd              =   3.4576217711632E-02
(PID.TID 0000.0001) %MON dynstat_uvel_del2            =   3.8482349825090E-05
(PID.TID 0000.0001) %MON dynstat_vvel_max             =   1.7213348415183E+00
(PID.TID 0000.0001) %MON dynstat_vvel_min             =  -2.1092759577760E+00
(PID.TID 0000.0001) %MON dynstat_vvel_mean            =   3.8553686762001E-03
(PID.TID 0000.0001) %MON dynstat_vvel_sd              =   3.4335183136976E-02
(PID.TID 0000.0001) %MON dynstat_vvel_del2            =   3.6895699496088E-05
(PID.TID 0000.0001) %MON dynstat_wvel_max             =   8.2973185216885E-03
(PID.TID 0000.0001) %MON dynstat_wvel_min             =  -7.6339779855176E-03
(PID.TID 0000.0001) %MON dynstat_wvel_mean            =   4.4447036853452E-07
(PID.TID 0000.0001) %MON dynstat_wvel_sd              =   1.3895257159502E-04
(PID.TID 0000.0001) %MON dynstat_wvel_del2            =   3.1079452679523E-07
(PID.TID 0000.0001) %MON dynstat_theta_max            =   3.2447014959775E+01
(PID.TID 0000.0001) %MON dynstat_theta_min            =  -2.0449109266487E+00
(PID.TID 0000.0001) %MON dynstat_theta_mean           =   3.5919248630505E+00
(PID.TID 0000.0001) %MON dynstat_theta_sd             =   4.4418243525914E+00
(PID.TID 0000.0001) %MON dynstat_theta_del2           =   1.2631811968702E-04
(PID.TID 0000.0001) %MON dynstat_salt_max             =   4.0655989656516E+01
(PID.TID 0000.0001) %MON dynstat_salt_min             =   1.5981744377937E+01
(PID.TID 0000.0001) %MON dynstat_salt_mean            =   3.4724793811643E+01
(PID.TID 0000.0001) %MON dynstat_salt_sd              =   3.7974306265986E-01
(PID.TID 0000.0001) %MON dynstat_salt_del2            =   6.4533744469253E-05
(PID.TID 0000.0001) %MON dynstat_sst_max              =   3.2447014959775E+01
(PID.TID 0000.0001) %MON dynstat_sst_min              =  -2.0449109266487E+00
(PID.TID 0000.0001) %MON dynstat_sst_mean             =   1.8178622328216E+01
(PID.TID 0000.0001) %MON dynstat_sst_sd               =   1.0198676244340E+01
(PID.TID 0000.0001) %MON dynstat_sst_del2             =   1.1033763740532E-03
(PID.TID 0000.0001) %MON dynstat_sss_max              =   3.9463724175624E+01
(PID.TID 0000.0001) %MON dynstat_sss_min              =   1.5981744377937E+01
(PID.TID 0000.0001) %MON dynstat_sss_mean             =   3.4642451492050E+01
(PID.TID 0000.0001) %MON dynstat_sss_sd               =   1.3011306914003E+00
(PID.TID 0000.0001) %MON dynstat_sss_del2             =   1.4709047950186E-03
(PID.TID 0000.0001) %MON forcing_qnet_max             =   1.7298023372719E+03
(PID.TID 0000.0001) %MON forcing_qnet_min             =  -1.3265032022352E+03
(PID.TID 0000.0001) %MON forcing_qnet_mean            =   3.7379148125505E+01
(PID.TID 0000.0001) %MON forcing_qnet_sd              =   2.0107576026006E+02
(PID.TID 0000.0001) %MON forcing_qnet_del2            =   4.1820406119589E-01
(PID.TID 0000.0001) %MON forcing_qsw_max              =   0.0000000000000E+00
(PID.TID 0000.0001) %MON forcing_qsw_min              =  -1.1176934462760E+02
(PID.TID 0000.0001) %MON forcing_qsw_mean             =  -1.4812818692918E+01
(PID.TID 0000.0001) %MON forcing_qsw_sd               =   2.8230619079404E+01
(PID.TID 0000.0001) %MON forcing_qsw_del2             =   2.0046883756191E-02
(PID.TID 0000.0001) %MON forcing_empmr_max            =   3.0492622405291E-02
(PID.TID 0000.0001) %MON forcing_empmr_min            =  -4.2075380682945E-02
(PID.TID 0000.0001) %MON forcing_empmr_mean           =  -1.9302133928257E-06
(PID.TID 0000.0001) %MON forcing_empmr_sd             =   3.2092662885534E-04
(PID.TID 0000.0001) %MON forcing_empmr_del2           =   3.5204156635837E-06
(PID.TID 0000.0001) %MON forcing_fu_max               =   7.9750823974609E-01
(PID.TID 0000.0001) %MON forcing_fu_min               =  -1.2617734057028E+00
(PID.TID 0000.0001) %MON forcing_fu_mean              =   1.2063593920735E-02
(PID.TID 0000.0001) %MON forcing_fu_sd                =   1.2616201678327E-01
(PID.TID 0000.0001) %MON forcing_fu_del2              =   1.6611673164557E-04
(PID.TID 0000.0001) %MON forcing_fv_max               =   9.2839329677584E-01
(PID.TID 0000.0001) %MON forcing_fv_min               =  -1.0258161386481E+00
(PID.TID 0000.0001) %MON forcing_fv_mean              =  -1.0821492221373E-03
(PID.TID 0000.0001) %MON forcing_fv_sd                =   1.1174966392484E-01
(PID.TID 0000.0001) %MON forcing_fv_del2              =   1.4938331900813E-04
(PID.TID 0000.0001) %MON trAdv_CFL_u_max              =   2.5620669712330E-02
(PID.TID 0000.0001) %MON trAdv_CFL_v_max              =   1.8479585746971E-02
(PID.TID 0000.0001) %MON trAdv_CFL_w_max              =   8.2110579548516E-02
(PID.TID 0000.0001) %MON advcfl_uvel_max              =   2.5963381859467E-02
(PID.TID 0000.0001) %MON advcfl_vvel_max              =   1.8156440169605E-02
(PID.TID 0000.0001) %MON advcfl_wvel_max              =   7.7253824345322E-02
(PID.TID 0000.0001) %MON advcfl_W_hf_max              =   8.2110579548516E-02
(PID.TID 0000.0001) %MON pe_b_mean                    =   2.5783512622682E-03
(PID.TID 0000.0001) %MON ke_max                       =   2.1512699865141E+00
(PID.TID 0000.0001) %MON ke_mean                      =   1.1634521509978E-03
(PID.TID 0000.0001) %MON ke_vol                       =   1.3350064351420E+18
(PID.TID 0000.0001) %MON vort_r_min                   =  -8.7832471978111E-05
(PID.TID 0000.0001) %MON vort_r_max                   =   9.3829850407659E-05
(PID.TID 0000.0001) %MON vort_a_mean                  =  -1.9725080218711E-05
(PID.TID 0000.0001) %MON vort_a_sd                    =   7.4540674515864E-05
(PID.TID 0000.0001) %MON vort_p_mean                  =  -2.1669085507884E-05
(PID.TID 0000.0001) %MON vort_p_sd                    =   9.3615277932814E-05
(PID.TID 0000.0001) %MON surfExpan_theta_mean         =   2.0889541220347E-05
(PID.TID 0000.0001) %MON surfExpan_salt_mean          =   8.0969699401539E-06
(PID.TID 0000.0001) // =======================================================
(PID.TID 0000.0001) // End MONITOR dynamic field statistics
(PID.TID 0000.0001) // =======================================================
(PID.TID 0000.0001) // =======================================================
(PID.TID 0000.0001) // Begin MONITOR SEAICE statistics
(PID.TID 0000.0001) // =======================================================
(PID.TID 0000.0001) %MON seaice_tsnumber              =                174840
(PID.TID 0000.0001) %MON seaice_time_sec              =   7.8678000000000E+07
(PID.TID 0000.0001) %MON seaice_uice_max              =   1.3077434213527E+00
(PID.TID 0000.0001) %MON seaice_uice_min              =  -1.0757682228834E+00
(PID.TID 0000.0001) %MON seaice_uice_mean             =   6.8695776741448E-03
(PID.TID 0000.0001) %MON seaice_uice_sd               =   1.5231279564635E-01
(PID.TID 0000.0001) %MON seaice_uice_del2             =   3.5207395214276E-04
(PID.TID 0000.0001) %MON seaice_vice_max              =   9.8681353196639E-01
(PID.TID 0000.0001) %MON seaice_vice_min              =  -1.4898705287132E+00
(PID.TID 0000.0001) %MON seaice_vice_mean             =  -1.9416629127609E-02
(PID.TID 0000.0001) %MON seaice_vice_sd               =   1.6236390499790E-01
(PID.TID 0000.0001) %MON seaice_vice_del2             =   3.3354978444166E-04
(PID.TID 0000.0001) %MON seaice_area_max              =   1.0027454750208E+00
(PID.TID 0000.0001) %MON seaice_area_min              =   0.0000000000000E+00
(PID.TID 0000.0001) %MON seaice_area_mean             =   5.7514507623392E-02
(PID.TID 0000.0001) %MON seaice_area_sd               =   2.2090046256725E-01
(PID.TID 0000.0001) %MON seaice_area_del2             =   2.8837194218910E-04
(PID.TID 0000.0001) %MON seaice_heff_max              =   9.9477947775997E+00
(PID.TID 0000.0001) %MON seaice_heff_min              =   0.0000000000000E+00
(PID.TID 0000.0001) %MON seaice_heff_mean             =   1.4950589013060E-01
(PID.TID 0000.0001) %MON seaice_heff_sd               =   7.1995591195731E-01
(PID.TID 0000.0001) %MON seaice_heff_del2             =   1.3583964796375E-03
(PID.TID 0000.0001) %MON seaice_hsnow_max             =   3.2857827057917E+00
(PID.TID 0000.0001) %MON seaice_hsnow_min             =   0.0000000000000E+00
(PID.TID 0000.0001) %MON seaice_hsnow_mean            =   1.2626199420197E-02
(PID.TID 0000.0001) %MON seaice_hsnow_sd              =   6.8004129746686E-02
(PID.TID 0000.0001) %MON seaice_hsnow_del2            =   3.6958817416320E-04
(PID.TID 0000.0001) // =======================================================
(PID.TID 0000.0001) // End MONITOR SEAICE statistics
(PID.TID 0000.0001) // =======================================================
(PID.TID 0000.0001) // =======================================================
(PID.TID 0000.0001) // Begin MONITOR dynamic field statistics
(PID.TID 0000.0001) // =======================================================
(PID.TID 0000.0001) %MON time_tsnumber                =                174841
(PID.TID 0000.0001) %MON time_secondsf                =   7.8678450000000E+07
(PID.TID 0000.0001) %MON dynstat_eta_max              =   1.9927730722912E+00
(PID.TID 0000.0001) %MON dynstat_eta_min              =  -1.0499371008444E+01
(PID.TID 0000.0001) %MON dynstat_eta_mean             =   9.0634462020255E-02
(PID.TID 0000.0001) %MON dynstat_eta_sd               =   9.1710298405880E-01
(PID.TID 0000.0001) %MON dynstat_eta_del2             =   2.0110543908774E-03
(PID.TID 0000.0001) %MON dynstat_uvel_max             =   2.0353809817456E+00
(PID.TID 0000.0001) %MON dynstat_uvel_min             =  -2.4778608634483E+00
(PID.TID 0000.0001) %MON dynstat_uvel_mean            =   4.9628033181748E-03
(PID.TID 0000.0001) %MON dynstat_uvel_sd              =   3.4734411194512E-02
(PID.TID 0000.0001) %MON dynstat_uvel_del2            =   3.8549246057632E-05
(PID.TID 0000.0001) %MON dynstat_vvel_max             =   1.7208742314865E+00
(PID.TID 0000.0001) %MON dynstat_vvel_min             =  -2.1059653181030E+00
(PID.TID 0000.0001) %MON dynstat_vvel_mean            =   3.8661524953463E-03
(PID.TID 0000.0001) %MON dynstat_vvel_sd              =   3.4489053041585E-02
(PID.TID 0000.0001) %MON dynstat_vvel_del2            =   3.6973424126804E-05
(PID.TID 0000.0001) %MON dynstat_wvel_max             =   8.3189451012579E-03
(PID.TID 0000.0001) %MON dynstat_wvel_min             =  -7.6330674321101E-03
(PID.TID 0000.0001) %MON dynstat_wvel_mean            =   4.4148461393264E-07
(PID.TID 0000.0001) %MON dynstat_wvel_sd              =   1.3971265427860E-04
(PID.TID 0000.0001) %MON dynstat_wvel_del2            =   3.1203361997425E-07
(PID.TID 0000.0001) %MON dynstat_theta_max            =   3.2445756615840E+01
(PID.TID 0000.0001) %MON dynstat_theta_min            =  -2.0450181828113E+00
(PID.TID 0000.0001) %MON dynstat_theta_mean           =   3.5919214654582E+00
(PID.TID 0000.0001) %MON dynstat_theta_sd             =   4.4418151362785E+00
(PID.TID 0000.0001) %MON dynstat_theta_del2           =   1.2635985188788E-04
(PID.TID 0000.0001) %MON dynstat_salt_max             =   4.0655989645382E+01
(PID.TID 0000.0001) %MON dynstat_salt_min             =   1.5980396375054E+01
(PID.TID 0000.0001) %MON dynstat_salt_mean            =   3.4724793643230E+01
(PID.TID 0000.0001) %MON dynstat_salt_sd              =   3.7974285574179E-01
(PID.TID 0000.0001) %MON dynstat_salt_del2            =   6.4497695345179E-05
(PID.TID 0000.0001) %MON dynstat_sst_max              =   3.2445756615840E+01
(PID.TID 0000.0001) %MON dynstat_sst_min              =  -2.0450181828113E+00
(PID.TID 0000.0001) %MON dynstat_sst_mean             =   1.8178364596711E+01
(PID.TID 0000.0001) %MON dynstat_sst_sd               =   1.0198833621693E+01
(PID.TID 0000.0001) %MON dynstat_sst_del2             =   1.1035306616367E-03
(PID.TID 0000.0001) %MON dynstat_sss_max              =   3.9463650923570E+01
(PID.TID 0000.0001) %MON dynstat_sss_min              =   1.5980396375054E+01
(PID.TID 0000.0001) %MON dynstat_sss_mean             =   3.4642422860799E+01
(PID.TID 0000.0001) %MON dynstat_sss_sd               =   1.3011944587444E+00
(PID.TID 0000.0001) %MON dynstat_sss_del2             =   1.4708463121241E-03
(PID.TID 0000.0001) %MON forcing_qnet_max             =   1.4133574568127E+03
(PID.TID 0000.0001) %MON forcing_qnet_min             =  -1.3053866015654E+03
(PID.TID 0000.0001) %MON forcing_qnet_mean            =   3.8008204265364E+01
(PID.TID 0000.0001) %MON forcing_qnet_sd              =   2.0097010379696E+02
(PID.TID 0000.0001) %MON forcing_qnet_del2            =   4.0328369796187E-01
(PID.TID 0000.0001) %MON forcing_qsw_max              =   0.0000000000000E+00
(PID.TID 0000.0001) %MON forcing_qsw_min              =  -1.1166818207376E+02
(PID.TID 0000.0001) %MON forcing_qsw_mean             =  -1.4763013691632E+01
(PID.TID 0000.0001) %MON forcing_qsw_sd               =   2.8112632833716E+01
(PID.TID 0000.0001) %MON forcing_qsw_del2             =   1.9972749673977E-02
(PID.TID 0000.0001) %MON forcing_empmr_max            =   3.0329048633575E-02
(PID.TID 0000.0001) %MON forcing_empmr_min            =  -4.2018644511700E-02
(PID.TID 0000.0001) %MON forcing_empmr_mean           =  -1.8472199299711E-06
(PID.TID 0000.0001) %MON forcing_empmr_sd             =   3.2005110226271E-04
(PID.TID 0000.0001) %MON forcing_empmr_del2           =   3.5190004595397E-06
(PID.TID 0000.0001) %MON forcing_fu_max               =   8.0129054188728E-01
(PID.TID 0000.0001) %MON forcing_fu_min               =  -1.2693601286325E+00
(PID.TID 0000.0001) %MON forcing_fu_mean              =   1.2031839041819E-02
(PID.TID 0000.0001) %MON forcing_fu_sd                =   1.2620279184072E-01
(PID.TID 0000.0001) %MON forcing_fu_del2              =   1.6636459376149E-04
(PID.TID 0000.0001) %MON forcing_fv_max               =   9.3715005231251E-01
(PID.TID 0000.0001) %MON forcing_fv_min               =  -1.0127669416995E+00
(PID.TID 0000.0001) %MON forcing_fv_mean              =  -1.0446998101833E-03
(PID.TID 0000.0001) %MON forcing_fv_sd                =   1.1192737630113E-01
(PID.TID 0000.0001) %MON forcing_fv_del2              =   1.4950257161185E-04
(PID.TID 0000.0001) %MON trAdv_CFL_u_max              =   2.5558289693574E-02
(PID.TID 0000.0001) %MON trAdv_CFL_v_max              =   1.8429417458279E-02
(PID.TID 0000.0001) %MON trAdv_CFL_w_max              =   8.1700637573022E-02
(PID.TID 0000.0001) %MON advcfl_uvel_max              =   2.5900167421065E-02
(PID.TID 0000.0001) %MON advcfl_vvel_max              =   1.8107149154941E-02
(PID.TID 0000.0001) %MON advcfl_wvel_max              =   7.6868624151320E-02
(PID.TID 0000.0001) %MON advcfl_W_hf_max              =   8.1700637573022E-02
(PID.TID 0000.0001) %MON pe_b_mean                    =   2.5816718560261E-03
(PID.TID 0000.0001) %MON ke_max                       =   2.1399211950747E+00
(PID.TID 0000.0001) %MON ke_mean                      =   1.1743973825404E-03
(PID.TID 0000.0001) %MON ke_vol                       =   1.3350064351420E+18
(PID.TID 0000.0001) %MON vort_r_min                   =  -8.7610952226482E-05
(PID.TID 0000.0001) %MON vort_r_max                   =   9.3575187417389E-05
(PID.TID 0000.0001) %MON vort_a_mean                  =  -1.9725080380333E-05
(PID.TID 0000.0001) %MON vort_a_sd                    =   7.4540711847138E-05
(PID.TID 0000.0001) %MON vort_p_mean                  =  -2.1669085685434E-05
(PID.TID 0000.0001) %MON vort_p_sd                    =   9.3615411217863E-05
(PID.TID 0000.0001) %MON surfExpan_theta_mean         =   2.0524952727428E-05
(PID.TID 0000.0001) %MON surfExpan_salt_mean          =   7.7957470493002E-06
(PID.TID 0000.0001) // =======================================================
(PID.TID 0000.0001) // End MONITOR dynamic field statistics
(PID.TID 0000.0001) // =======================================================
(PID.TID 0000.0001) // =======================================================
(PID.TID 0000.0001) // Begin MONITOR SEAICE statistics
(PID.TID 0000.0001) // =======================================================
(PID.TID 0000.0001) %MON seaice_tsnumber              =                174841
(PID.TID 0000.0001) %MON seaice_time_sec              =   7.8678450000000E+07
(PID.TID 0000.0001) %MON seaice_uice_max              =   1.3056380982103E+00
(PID.TID 0000.0001) %MON seaice_uice_min              =  -1.0685036418954E+00
(PID.TID 0000.0001) %MON seaice_uice_mean             =   7.0294747661627E-03
(PID.TID 0000.0001) %MON seaice_uice_sd               =   1.5214901920726E-01
(PID.TID 0000.0001) %MON seaice_uice_del2             =   3.5239143900437E-04
(PID.TID 0000.0001) %MON seaice_vice_max              =   9.9163497289882E-01
(PID.TID 0000.0001) %MON seaice_vice_min              =  -1.4887917012861E+00
(PID.TID 0000.0001) %MON seaice_vice_mean             =  -1.9262295545451E-02
(PID.TID 0000.0001) %MON seaice_vice_sd               =   1.6224155619145E-01
(PID.TID 0000.0001) %MON seaice_vice_del2             =   3.3409053841167E-04
(PID.TID 0000.0001) %MON seaice_area_max              =   1.0027291813291E+00
(PID.TID 0000.0001) %MON seaice_area_min              =   0.0000000000000E+00
(PID.TID 0000.0001) %MON seaice_area_mean             =   5.7516340454951E-02
(PID.TID 0000.0001) %MON seaice_area_sd               =   2.2089728727618E-01
(PID.TID 0000.0001) %MON seaice_area_del2             =   2.8829268414666E-04
(PID.TID 0000.0001) %MON seaice_heff_max              =   9.9477833554581E+00
(PID.TID 0000.0001) %MON seaice_heff_min              =   0.0000000000000E+00
(PID.TID 0000.0001) %MON seaice_heff_mean             =   1.4950211620923E-01
(PID.TID 0000.0001) %MON seaice_heff_sd               =   7.1994436722018E-01
(PID.TID 0000.0001) %MON seaice_heff_del2             =   1.3577768513787E-03
(PID.TID 0000.0001) %MON seaice_hsnow_max             =   3.2857785840467E+00
(PID.TID 0000.0001) %MON seaice_hsnow_min             =   0.0000000000000E+00
(PID.TID 0000.0001) %MON seaice_hsnow_mean            =   1.2625655542655E-02
(PID.TID 0000.0001) %MON seaice_hsnow_sd              =   6.7996078651190E-02
(PID.TID 0000.0001) %MON seaice_hsnow_del2            =   3.6933818158457E-04
(PID.TID 0000.0001) // =======================================================
(PID.TID 0000.0001) // End MONITOR SEAICE statistics
(PID.TID 0000.0001) // =======================================================
(PID.TID 0000.0001) // =======================================================
(PID.TID 0000.0001) // Begin MONITOR dynamic field statistics
(PID.TID 0000.0001) // =======================================================
(PID.TID 0000.0001) %MON time_tsnumber                =                174842
(PID.TID 0000.0001) %MON time_secondsf                =   7.8678900000000E+07
(PID.TID 0000.0001) %MON dynstat_eta_max              =   1.9810210398074E+00
(PID.TID 0000.0001) %MON dynstat_eta_min              =  -1.0511410544346E+01
(PID.TID 0000.0001) %MON dynstat_eta_mean             =   9.0721112553003E-02
(PID.TID 0000.0001) %MON dynstat_eta_sd               =   9.1776391689792E-01
(PID.TID 0000.0001) %MON dynstat_eta_del2             =   2.0110838957432E-03
(PID.TID 0000.0001) %MON dynstat_uvel_max             =   2.0255972689847E+00
(PID.TID 0000.0001) %MON dynstat_uvel_min             =  -2.4719240882662E+00
(PID.TID 0000.0001) %MON dynstat_uvel_mean            =   5.0732568044806E-03
(PID.TID 0000.0001) %MON dynstat_uvel_sd              =   3.4894217755600E-02
(PID.TID 0000.0001) %MON dynstat_uvel_del2            =   3.8616779678139E-05
(PID.TID 0000.0001) %MON dynstat_vvel_max             =   1.7204351410479E+00
(PID.TID 0000.0001) %MON dynstat_vvel_min             =  -2.1025635894241E+00
(PID.TID 0000.0001) %MON dynstat_vvel_mean            =   3.8752326431439E-03
(PID.TID 0000.0001) %MON dynstat_vvel_sd              =   3.4647628108932E-02
(PID.TID 0000.0001) %MON dynstat_vvel_del2            =   3.7051749871172E-05
(PID.TID 0000.0001) %MON dynstat_wvel_max             =   8.3407742344243E-03
(PID.TID 0000.0001) %MON dynstat_wvel_min             =  -7.6326614462067E-03
(PID.TID 0000.0001) %MON dynstat_wvel_mean            =   4.3835304047210E-07
(PID.TID 0000.0001) %MON dynstat_wvel_sd              =   1.4048007407335E-04
(PID.TID 0000.0001) %MON dynstat_wvel_del2            =   3.1328153019497E-07
(PID.TID 0000.0001) %MON dynstat_theta_max            =   3.2444465755401E+01
(PID.TID 0000.0001) %MON dynstat_theta_min            =  -2.0451236442301E+00
(PID.TID 0000.0001) %MON dynstat_theta_mean           =   3.5919180951229E+00
(PID.TID 0000.0001) %MON dynstat_theta_sd             =   4.4418057993068E+00
(PID.TID 0000.0001) %MON dynstat_theta_del2           =   1.2640126642776E-04
(PID.TID 0000.0001) %MON dynstat_salt_max             =   4.0655989636068E+01
(PID.TID 0000.0001) %MON dynstat_salt_min             =   1.5979050910694E+01
(PID.TID 0000.0001) %MON dynstat_salt_mean            =   3.4724793488100E+01
(PID.TID 0000.0001) %MON dynstat_salt_sd              =   3.7974262607310E-01
(PID.TID 0000.0001) %MON dynstat_salt_del2            =   6.4462156450339E-05
(PID.TID 0000.0001) %MON dynstat_sst_max              =   3.2444465755401E+01
(PID.TID 0000.0001) %MON dynstat_sst_min              =  -2.0451236442301E+00
(PID.TID 0000.0001) %MON dynstat_sst_mean             =   1.8178111214097E+01
(PID.TID 0000.0001) %MON dynstat_sst_sd               =   1.0198991698000E+01
(PID.TID 0000.0001) %MON dynstat_sst_del2             =   1.1036332285575E-03
(PID.TID 0000.0001) %MON dynstat_sss_max              =   3.9463582470636E+01
(PID.TID 0000.0001) %MON dynstat_sss_min              =   1.5979050910694E+01
(PID.TID 0000.0001) %MON dynstat_sss_mean             =   3.4642394312116E+01
(PID.TID 0000.0001) %MON dynstat_sss_sd               =   1.3012572456515E+00
(PID.TID 0000.0001) %MON dynstat_sss_del2             =   1.4708080669554E-03
(PID.TID 0000.0001) %MON forcing_qnet_max             =   8.0640458153072E+02
(PID.TID 0000.0001) %MON forcing_qnet_min             =  -3.5022224121094E+03
(PID.TID 0000.0001) %MON forcing_qnet_mean            =   3.8557300459250E+01
(PID.TID 0000.0001) %MON forcing_qnet_sd              =   2.0131333209155E+02
(PID.TID 0000.0001) %MON forcing_qnet_del2            =   4.1673930228188E-01
(PID.TID 0000.0001) %MON forcing_qsw_max              =   0.0000000000000E+00
(PID.TID 0000.0001) %MON forcing_qsw_min              =  -1.1172677951557E+02
(PID.TID 0000.0001) %MON forcing_qsw_mean             =  -1.4707703766858E+01
(PID.TID 0000.0001) %MON forcing_qsw_sd               =   2.7977229727890E+01
(PID.TID 0000.0001) %MON forcing_qsw_del2             =   1.9897133623304E-02
(PID.TID 0000.0001) %MON forcing_empmr_max            =   2.9104817658663E-02
(PID.TID 0000.0001) %MON forcing_empmr_min            =  -4.4002044945955E-02
(PID.TID 0000.0001) %MON forcing_empmr_mean           =  -2.0367898489588E-06
(PID.TID 0000.0001) %MON forcing_empmr_sd             =   3.2362344012915E-04
(PID.TID 0000.0001) %MON forcing_empmr_del2           =   3.5576882398057E-06
(PID.TID 0000.0001) %MON forcing_fu_max               =   8.0373632907867E-01
(PID.TID 0000.0001) %MON forcing_fu_min               =  -1.2759136675943E+00
(PID.TID 0000.0001) %MON forcing_fu_mean              =   1.1990274395558E-02
(PID.TID 0000.0001) %MON forcing_fu_sd                =   1.2622629482203E-01
(PID.TID 0000.0001) %MON forcing_fu_del2              =   1.6658151478923E-04
(PID.TID 0000.0001) %MON forcing_fv_max               =   9.4450135366938E-01
(PID.TID 0000.0001) %MON forcing_fv_min               =  -9.9406280754519E-01
(PID.TID 0000.0001) %MON forcing_fv_mean              =  -1.0180484676965E-03
(PID.TID 0000.0001) %MON forcing_fv_sd                =   1.1204268331757E-01
(PID.TID 0000.0001) %MON forcing_fv_del2              =   1.4954788090455E-04
(PID.TID 0000.0001) %MON trAdv_CFL_u_max              =   2.5497053882399E-02
(PID.TID 0000.0001) %MON trAdv_CFL_v_max              =   1.8379313125017E-02
(PID.TID 0000.0001) %MON trAdv_CFL_w_max              =   8.1300673915994E-02
(PID.TID 0000.0001) %MON advcfl_uvel_max              =   2.5838112495614E-02
(PID.TID 0000.0001) %MON advcfl_vvel_max              =   1.8057920977341E-02
(PID.TID 0000.0001) %MON advcfl_wvel_max              =   7.6493684369940E-02
(PID.TID 0000.0001) %MON advcfl_W_hf_max              =   8.1300673915994E-02
(PID.TID 0000.0001) %MON pe_b_mean                    =   2.5848337022187E-03
(PID.TID 0000.0001) %MON ke_max                       =   2.1288442918342E+00
(PID.TID 0000.0001) %MON ke_mean                      =   1.1856174630811E-03
(PID.TID 0000.0001) %MON ke_vol                       =   1.3350064351420E+18
(PID.TID 0000.0001) %MON vort_r_min                   =  -8.7391983437803E-05
(PID.TID 0000.0001) %MON vort_r_max                   =   9.3326206628755E-05
(PID.TID 0000.0001) %MON vort_a_mean                  =  -1.9725080535819E-05
(PID.TID 0000.0001) %MON vort_a_sd                    =   7.4540749196291E-05
(PID.TID 0000.0001) %MON vort_p_mean                  =  -2.1669085856244E-05
(PID.TID 0000.0001) %MON vort_p_sd                    =   9.3615541879685E-05
(PID.TID 0000.0001) %MON surfExpan_theta_mean         =   2.0126333459837E-05
(PID.TID 0000.0001) %MON surfExpan_salt_mean          =   7.4884088047171E-06
(PID.TID 0000.0001) // =======================================================
(PID.TID 0000.0001) // End MONITOR dynamic field statistics
(PID.TID 0000.0001) // =======================================================
(PID.TID 0000.0001) // =======================================================
(PID.TID 0000.0001) // Begin MONITOR SEAICE statistics
(PID.TID 0000.0001) // =======================================================
(PID.TID 0000.0001) %MON seaice_tsnumber              =                174842
(PID.TID 0000.0001) %MON seaice_time_sec              =   7.8678900000000E+07
(PID.TID 0000.0001) %MON seaice_uice_max              =   1.3034962184984E+00
(PID.TID 0000.0001) %MON seaice_uice_min              =  -1.0618486213411E+00
(PID.TID 0000.0001) %MON seaice_uice_mean             =   7.1906129546459E-03
(PID.TID 0000.0001) %MON seaice_uice_sd               =   1.5198383172290E-01
(PID.TID 0000.0001) %MON seaice_uice_del2             =   3.5268738891627E-04
(PID.TID 0000.0001) %MON seaice_vice_max              =   9.9638381962302E-01
(PID.TID 0000.0001) %MON seaice_vice_min              =  -1.4874965912121E+00
(PID.TID 0000.0001) %MON seaice_vice_mean             =  -1.9106279272003E-02
(PID.TID 0000.0001) %MON seaice_vice_sd               =   1.6211745253253E-01
(PID.TID 0000.0001) %MON seaice_vice_del2             =   3.3461214965560E-04
(PID.TID 0000.0001) %MON seaice_area_max              =   1.0027113445589E+00
(PID.TID 0000.0001) %MON seaice_area_min              =   0.0000000000000E+00
(PID.TID 0000.0001) %MON seaice_area_mean             =   5.7518189256899E-02
(PID.TID 0000.0001) %MON seaice_area_sd               =   2.2089418768798E-01
(PID.TID 0000.0001) %MON seaice_area_del2             =   2.8821269506986E-04
(PID.TID 0000.0001) %MON seaice_heff_max              =   9.9477719330063E+00
(PID.TID 0000.0001) %MON seaice_heff_min              =   0.0000000000000E+00
(PID.TID 0000.0001) %MON seaice_heff_mean             =   1.4949834358813E-01
(PID.TID 0000.0001) %MON seaice_heff_sd               =   7.1993276485993E-01
(PID.TID 0000.0001) %MON seaice_heff_del2             =   1.3571459905261E-03
(PID.TID 0000.0001) %MON seaice_hsnow_max             =   3.2857747005023E+00
(PID.TID 0000.0001) %MON seaice_hsnow_min             =   0.0000000000000E+00
(PID.TID 0000.0001) %MON seaice_hsnow_mean            =   1.2625116113076E-02
(PID.TID 0000.0001) %MON seaice_hsnow_sd              =   6.7987919301177E-02
(PID.TID 0000.0001) %MON seaice_hsnow_del2            =   3.6908430832538E-04
(PID.TID 0000.0001) // =======================================================
(PID.TID 0000.0001) // End MONITOR SEAICE statistics
(PID.TID 0000.0001) // =======================================================
(PID.TID 0000.0001) // =======================================================
(PID.TID 0000.0001) // Begin MONITOR dynamic field statistics
(PID.TID 0000.0001) // =======================================================
(PID.TID 0000.0001) %MON time_tsnumber                =                174843
(PID.TID 0000.0001) %MON time_secondsf                =   7.8679350000000E+07
(PID.TID 0000.0001) %MON dynstat_eta_max              =   1.9683668835367E+00
(PID.TID 0000.0001) %MON dynstat_eta_min              =  -1.0522184639313E+01
(PID.TID 0000.0001) %MON dynstat_eta_mean             =   9.0805255641099E-02
(PID.TID 0000.0001) %MON dynstat_eta_sd               =   9.1840368421586E-01
(PID.TID 0000.0001) %MON dynstat_eta_del2             =   2.0111174598735E-03
(PID.TID 0000.0001) %MON dynstat_uvel_max             =   2.0158040599816E+00
(PID.TID 0000.0001) %MON dynstat_uvel_min             =  -2.4661006767893E+00
(PID.TID 0000.0001) %MON dynstat_uvel_mean            =   5.1856741483925E-03
(PID.TID 0000.0001) %MON dynstat_uvel_sd              =   3.5055574785383E-02
(PID.TID 0000.0001) %MON dynstat_uvel_del2            =   3.8685268729546E-05
(PID.TID 0000.0001) %MON dynstat_vvel_max             =   1.7200277715955E+00
(PID.TID 0000.0001) %MON dynstat_vvel_min             =  -2.0990685596004E+00
(PID.TID 0000.0001) %MON dynstat_vvel_mean            =   3.8826621225470E-03
(PID.TID 0000.0001) %MON dynstat_vvel_sd              =   3.4810601626245E-02
(PID.TID 0000.0001) %MON dynstat_vvel_del2            =   3.7130403239167E-05
(PID.TID 0000.0001) %MON dynstat_wvel_max             =   8.3628247268959E-03
(PID.TID 0000.0001) %MON dynstat_wvel_min             =  -7.6327711183507E-03
(PID.TID 0000.0001) %MON dynstat_wvel_mean            =   4.3539785384141E-07
(PID.TID 0000.0001) %MON dynstat_wvel_sd              =   1.4125491806545E-04
(PID.TID 0000.0001) %MON dynstat_wvel_del2            =   3.1453803968563E-07
(PID.TID 0000.0001) %MON dynstat_theta_max            =   3.2443163732035E+01
(PID.TID 0000.0001) %MON dynstat_theta_min            =  -2.0452274093876E+00
(PID.TID 0000.0001) %MON dynstat_theta_mean           =   3.5919147574097E+00
(PID.TID 0000.0001) %MON dynstat_theta_sd             =   4.4417963671802E+00
(PID.TID 0000.0001) %MON dynstat_theta_del2           =   1.2644240364614E-04
(PID.TID 0000.0001) %MON dynstat_salt_max             =   4.0655989628530E+01
(PID.TID 0000.0001) %MON dynstat_salt_min             =   1.5977709235581E+01
(PID.TID 0000.0001) %MON dynstat_salt_mean            =   3.4724793347622E+01
(PID.TID 0000.0001) %MON dynstat_salt_sd              =   3.7974238552702E-01
(PID.TID 0000.0001) %MON dynstat_salt_del2            =   6.4426894468459E-05
(PID.TID 0000.0001) %MON dynstat_sst_max              =   3.2443163732035E+01
(PID.TID 0000.0001) %MON dynstat_sst_min              =  -2.0452274093876E+00
(PID.TID 0000.0001) %MON dynstat_sst_mean             =   1.8177862084153E+01
(PID.TID 0000.0001) %MON dynstat_sst_sd               =   1.0199149630111E+01
(PID.TID 0000.0001) %MON dynstat_sst_del2             =   1.1037072098819E-03
(PID.TID 0000.0001) %MON dynstat_sss_max              =   3.9463519066701E+01
(PID.TID 0000.0001) %MON dynstat_sss_min              =   1.5977709235581E+01
(PID.TID 0000.0001) %MON dynstat_sss_mean             =   3.4642366689040E+01
(PID.TID 0000.0001) %MON dynstat_sss_sd               =   1.3013200554954E+00
(PID.TID 0000.0001) %MON dynstat_sss_del2             =   1.4707810438179E-03
(PID.TID 0000.0001) %MON forcing_qnet_max             =   7.5696234130859E+02
(PID.TID 0000.0001) %MON forcing_qnet_min             =  -2.4029880371094E+03
(PID.TID 0000.0001) %MON forcing_qnet_mean            =   3.9062293824460E+01
(PID.TID 0000.0001) %MON forcing_qnet_sd              =   2.0109603467849E+02
(PID.TID 0000.0001) %MON forcing_qnet_del2            =   4.1872761396902E-01
(PID.TID 0000.0001) %MON forcing_qsw_max              =   0.0000000000000E+00
(PID.TID 0000.0001) %MON forcing_qsw_min              =  -1.1174154676005E+02
(PID.TID 0000.0001) %MON forcing_qsw_mean             =  -1.4646566010082E+01
(PID.TID 0000.0001) %MON forcing_qsw_sd               =   2.7825013279946E+01
(PID.TID 0000.0001) %MON forcing_qsw_del2             =   1.9820283214180E-02
(PID.TID 0000.0001) %MON forcing_empmr_max            =   2.5548232719302E-02
(PID.TID 0000.0001) %MON forcing_empmr_min            =  -4.4201675802469E-02
(PID.TID 0000.0001) %MON forcing_empmr_mean           =  -1.7749393280474E-06
(PID.TID 0000.0001) %MON forcing_empmr_sd             =   3.2102420321428E-04
(PID.TID 0000.0001) %MON forcing_empmr_del2           =   3.5329788908601E-06
(PID.TID 0000.0001) %MON forcing_fu_max               =   8.0521914362907E-01
(PID.TID 0000.0001) %MON forcing_fu_min               =  -1.2830063358500E+00
(PID.TID 0000.0001) %MON forcing_fu_mean              =   1.1952071324446E-02
(PID.TID 0000.0001) %MON forcing_fu_sd                =   1.2623878617353E-01
(PID.TID 0000.0001) %MON forcing_fu_del2              =   1.6680267284234E-04
(PID.TID 0000.0001) %MON forcing_fv_max               =   9.5255804496744E-01
(PID.TID 0000.0001) %MON forcing_fv_min               =  -9.7641227879388E-01
(PID.TID 0000.0001) %MON forcing_fv_mean              =  -9.8771905919514E-04
(PID.TID 0000.0001) %MON forcing_fv_sd                =   1.1221277455835E-01
(PID.TID 0000.0001) %MON forcing_fv_del2              =   1.4955551227403E-04
(PID.TID 0000.0001) %MON trAdv_CFL_u_max              =   2.5436987379180E-02
(PID.TID 0000.0001) %MON trAdv_CFL_v_max              =   1.8329465324440E-02
(PID.TID 0000.0001) %MON trAdv_CFL_w_max              =   8.0909204387096E-02
(PID.TID 0000.0001) %MON advcfl_uvel_max              =   2.5777242519241E-02
(PID.TID 0000.0001) %MON advcfl_vvel_max              =   1.8008944846537E-02
(PID.TID 0000.0001) %MON advcfl_wvel_max              =   7.6127586969208E-02
(PID.TID 0000.0001) %MON advcfl_W_hf_max              =   8.0909204387096E-02
(PID.TID 0000.0001) %MON pe_b_mean                    =   2.5878387529947E-03
(PID.TID 0000.0001) %MON ke_max                       =   2.1180458109760E+00
(PID.TID 0000.0001) %MON ke_mean                      =   1.1971019780713E-03
(PID.TID 0000.0001) %MON ke_vol                       =   1.3350064351420E+18
(PID.TID 0000.0001) %MON vort_r_min                   =  -8.7175927655667E-05
(PID.TID 0000.0001) %MON vort_r_max                   =   9.3083128387683E-05
(PID.TID 0000.0001) %MON vort_a_mean                  =  -1.9725080684052E-05
(PID.TID 0000.0001) %MON vort_a_sd                    =   7.4540786511822E-05
(PID.TID 0000.0001) %MON vort_p_mean                  =  -2.1669086019087E-05
(PID.TID 0000.0001) %MON vort_p_sd                    =   9.3615669772460E-05
(PID.TID 0000.0001) %MON surfExpan_theta_mean         =   1.9701266893772E-05
(PID.TID 0000.0001) %MON surfExpan_salt_mean          =   7.1923438581477E-06
(PID.TID 0000.0001) // =======================================================
(PID.TID 0000.0001) // End MONITOR dynamic field statistics
(PID.TID 0000.0001) // =======================================================
(PID.TID 0000.0001) // =======================================================
(PID.TID 0000.0001) // Begin MONITOR SEAICE statistics
(PID.TID 0000.0001) // =======================================================
(PID.TID 0000.0001) %MON seaice_tsnumber              =                174843
(PID.TID 0000.0001) %MON seaice_time_sec              =   7.8679350000000E+07
(PID.TID 0000.0001) %MON seaice_uice_max              =   1.3013317580666E+00
(PID.TID 0000.0001) %MON seaice_uice_min              =  -1.0558550533206E+00
(PID.TID 0000.0001) %MON seaice_uice_mean             =   7.3537564590837E-03
(PID.TID 0000.0001) %MON seaice_uice_sd               =   1.5181641954465E-01
(PID.TID 0000.0001) %MON seaice_uice_del2             =   3.5296046254910E-04
(PID.TID 0000.0001) %MON seaice_vice_max              =   1.0010243017255E+00
(PID.TID 0000.0001) %MON seaice_vice_min              =  -1.4863624522399E+00
(PID.TID 0000.0001) %MON seaice_vice_mean             =  -1.8953993438624E-02
(PID.TID 0000.0001) %MON seaice_vice_sd               =   1.6200514981279E-01
(PID.TID 0000.0001) %MON seaice_vice_del2             =   3.3513597446901E-04
(PID.TID 0000.0001) %MON seaice_area_max              =   1.0026916818836E+00
(PID.TID 0000.0001) %MON seaice_area_min              =   0.0000000000000E+00
(PID.TID 0000.0001) %MON seaice_area_mean             =   5.7520056777392E-02
(PID.TID 0000.0001) %MON seaice_area_sd               =   2.2089115254370E-01
(PID.TID 0000.0001) %MON seaice_area_del2             =   2.8813291871633E-04
(PID.TID 0000.0001) %MON seaice_heff_max              =   9.9477662324167E+00
(PID.TID 0000.0001) %MON seaice_heff_min              =   0.0000000000000E+00
(PID.TID 0000.0001) %MON seaice_heff_mean             =   1.4949457965511E-01
(PID.TID 0000.0001) %MON seaice_heff_sd               =   7.1992112940032E-01
(PID.TID 0000.0001) %MON seaice_heff_del2             =   1.3565054787276E-03
(PID.TID 0000.0001) %MON seaice_hsnow_max             =   3.2857732461831E+00
(PID.TID 0000.0001) %MON seaice_hsnow_min             =   0.0000000000000E+00
(PID.TID 0000.0001) %MON seaice_hsnow_mean            =   1.2624567515197E-02
(PID.TID 0000.0001) %MON seaice_hsnow_sd              =   6.7979693839347E-02
(PID.TID 0000.0001) %MON seaice_hsnow_del2            =   3.6882708280848E-04
(PID.TID 0000.0001) // =======================================================
(PID.TID 0000.0001) // End MONITOR SEAICE statistics
(PID.TID 0000.0001) // =======================================================
(PID.TID 0000.0001) // =======================================================
(PID.TID 0000.0001) // Begin MONITOR dynamic field statistics
(PID.TID 0000.0001) // =======================================================
(PID.TID 0000.0001) %MON time_tsnumber                =                174844
(PID.TID 0000.0001) %MON time_secondsf                =   7.8679800000000E+07
(PID.TID 0000.0001) %MON dynstat_eta_max              =   1.9548307182531E+00
(PID.TID 0000.0001) %MON dynstat_eta_min              =  -1.0531711892014E+01
(PID.TID 0000.0001) %MON dynstat_eta_mean             =   9.0886809722453E-02
(PID.TID 0000.0001) %MON dynstat_eta_sd               =   9.1902361392131E-01
(PID.TID 0000.0001) %MON dynstat_eta_del2             =   2.0111531717773E-03
(PID.TID 0000.0001) %MON dynstat_uvel_max             =   2.0059877280872E+00
(PID.TID 0000.0001) %MON dynstat_uvel_min             =  -2.4604027852358E+00
(PID.TID 0000.0001) %MON dynstat_uvel_mean            =   5.2996703077861E-03
(PID.TID 0000.0001) %MON dynstat_uvel_sd              =   3.5218533036252E-02
(PID.TID 0000.0001) %MON dynstat_uvel_del2            =   3.8754616009969E-05
(PID.TID 0000.0001) %MON dynstat_vvel_max             =   1.7196614484972E+00
(PID.TID 0000.0001) %MON dynstat_vvel_min             =  -2.0954787699698E+00
(PID.TID 0000.0001) %MON dynstat_vvel_mean            =   3.8885056052362E-03
(PID.TID 0000.0001) %MON dynstat_vvel_sd              =   3.4978024662287E-02
(PID.TID 0000.0001) %MON dynstat_vvel_del2            =   3.7209657798976E-05
(PID.TID 0000.0001) %MON dynstat_wvel_max             =   8.3851100695298E-03
(PID.TID 0000.0001) %MON dynstat_wvel_min             =  -7.6333841718053E-03
(PID.TID 0000.0001) %MON dynstat_wvel_mean            =   4.3217954019332E-07
(PID.TID 0000.0001) %MON dynstat_wvel_sd              =   1.4203703330587E-04
(PID.TID 0000.0001) %MON dynstat_wvel_del2            =   3.1580231222076E-07
(PID.TID 0000.0001) %MON dynstat_theta_max            =   3.2441861014561E+01
(PID.TID 0000.0001) %MON dynstat_theta_min            =  -2.0453295941847E+00
(PID.TID 0000.0001) %MON dynstat_theta_mean           =   3.5919114549012E+00
(PID.TID 0000.0001) %MON dynstat_theta_sd             =   4.4417868410183E+00
(PID.TID 0000.0001) %MON dynstat_theta_del2           =   1.2648409694023E-04
(PID.TID 0000.0001) %MON dynstat_salt_max             =   4.0655989622718E+01
(PID.TID 0000.0001) %MON dynstat_salt_min             =   1.5976370942452E+01
(PID.TID 0000.0001) %MON dynstat_salt_mean            =   3.4724793221500E+01
(PID.TID 0000.0001) %MON dynstat_salt_sd              =   3.7974213341849E-01
(PID.TID 0000.0001) %MON dynstat_salt_del2            =   6.4391860248406E-05
(PID.TID 0000.0001) %MON dynstat_sst_max              =   3.2441861014561E+01
(PID.TID 0000.0001) %MON dynstat_sst_min              =  -2.0453295941847E+00
(PID.TID 0000.0001) %MON dynstat_sst_mean             =   1.8177615936201E+01
(PID.TID 0000.0001) %MON dynstat_sst_sd               =   1.0199306438297E+01
(PID.TID 0000.0001) %MON dynstat_sst_del2             =   1.1038464131289E-03
(PID.TID 0000.0001) %MON dynstat_sss_max              =   3.9463460311153E+01
(PID.TID 0000.0001) %MON dynstat_sss_min              =   1.5976370942452E+01
(PID.TID 0000.0001) %MON dynstat_sss_mean             =   3.4642339284517E+01
(PID.TID 0000.0001) %MON dynstat_sss_sd               =   1.3013822875152E+00
(PID.TID 0000.0001) %MON dynstat_sss_del2             =   1.4707472760164E-03
(PID.TID 0000.0001) %MON forcing_qnet_max             =   7.5533868408203E+02
(PID.TID 0000.0001) %MON forcing_qnet_min             =  -1.2458570556641E+03
(PID.TID 0000.0001) %MON forcing_qnet_mean            =   3.9564522443110E+01
(PID.TID 0000.0001) %MON forcing_qnet_sd              =   2.0084015653973E+02
(PID.TID 0000.0001) %MON forcing_qnet_del2            =   4.0912382769662E-01
(PID.TID 0000.0001) %MON forcing_qsw_max              =   0.0000000000000E+00
(PID.TID 0000.0001) %MON forcing_qsw_min              =  -1.1171820150565E+02
(PID.TID 0000.0001) %MON forcing_qsw_mean             =  -1.4579242240235E+01
(PID.TID 0000.0001) %MON forcing_qsw_sd               =   2.7656591791221E+01
(PID.TID 0000.0001) %MON forcing_qsw_del2             =   1.9742494775584E-02
(PID.TID 0000.0001) %MON forcing_empmr_max            =   1.7409939318895E-02
(PID.TID 0000.0001) %MON forcing_empmr_min            =  -4.3006479740143E-02
(PID.TID 0000.0001) %MON forcing_empmr_mean           =  -1.7240277096975E-06
(PID.TID 0000.0001) %MON forcing_empmr_sd             =   3.1481722595079E-04
(PID.TID 0000.0001) %MON forcing_empmr_del2           =   3.4491812708836E-06
(PID.TID 0000.0001) %MON forcing_fu_max               =   8.0892527103424E-01
(PID.TID 0000.0001) %MON forcing_fu_min               =  -1.2875823593449E+00
(PID.TID 0000.0001) %MON forcing_fu_mean              =   1.1913828672770E-02
(PID.TID 0000.0001) %MON forcing_fu_sd                =   1.2627719952975E-01
(PID.TID 0000.0001) %MON forcing_fu_del2              =   1.6724298621220E-04
(PID.TID 0000.0001) %MON forcing_fv_max               =   9.6145916051185E-01
(PID.TID 0000.0001) %MON forcing_fv_min               =  -9.6270807564008E-01
(PID.TID 0000.0001) %MON forcing_fv_mean              =  -9.5070613016365E-04
(PID.TID 0000.0001) %MON forcing_fv_sd                =   1.1240609780791E-01
(PID.TID 0000.0001) %MON forcing_fv_del2              =   1.4978029579086E-04
(PID.TID 0000.0001) %MON trAdv_CFL_u_max              =   2.5378215571160E-02
(PID.TID 0000.0001) %MON trAdv_CFL_v_max              =   1.8280019828389E-02
(PID.TID 0000.0001) %MON trAdv_CFL_w_max              =   8.0521447580217E-02
(PID.TID 0000.0001) %MON advcfl_uvel_max              =   2.5717684556419E-02
(PID.TID 0000.0001) %MON advcfl_vvel_max              =   1.7960363985309E-02
(PID.TID 0000.0001) %MON advcfl_wvel_max              =   7.6001333728349E-02
(PID.TID 0000.0001) %MON advcfl_W_hf_max              =   8.0521447580217E-02
(PID.TID 0000.0001) %MON pe_b_mean                    =   2.5906872372933E-03
(PID.TID 0000.0001) %MON ke_max                       =   2.1075444954501E+00
(PID.TID 0000.0001) %MON ke_mean                      =   1.2088560498939E-03
(PID.TID 0000.0001) %MON ke_vol                       =   1.3350064351420E+18
(PID.TID 0000.0001) %MON vort_r_min                   =  -8.6963286632803E-05
(PID.TID 0000.0001) %MON vort_r_max                   =   9.2846408486377E-05
(PID.TID 0000.0001) %MON vort_a_mean                  =  -1.9725080823673E-05
(PID.TID 0000.0001) %MON vort_a_sd                    =   7.4540823755264E-05
(PID.TID 0000.0001) %MON vort_p_mean                  =  -2.1669086172469E-05
(PID.TID 0000.0001) %MON vort_p_sd                    =   9.3615794724904E-05
(PID.TID 0000.0001) %MON surfExpan_theta_mean         =   1.9243317453859E-05
(PID.TID 0000.0001) %MON surfExpan_salt_mean          =   6.8805187786830E-06
(PID.TID 0000.0001) // =======================================================
(PID.TID 0000.0001) // End MONITOR dynamic field statistics
(PID.TID 0000.0001) // =======================================================
(PID.TID 0000.0001) // =======================================================
(PID.TID 0000.0001) // Begin MONITOR SEAICE statistics
(PID.TID 0000.0001) // =======================================================
(PID.TID 0000.0001) %MON seaice_tsnumber              =                174844
(PID.TID 0000.0001) %MON seaice_time_sec              =   7.8679800000000E+07
(PID.TID 0000.0001) %MON seaice_uice_max              =   1.2991364055563E+00
(PID.TID 0000.0001) %MON seaice_uice_min              =  -1.0505681771696E+00
(PID.TID 0000.0001) %MON seaice_uice_mean             =   7.5207591399122E-03
(PID.TID 0000.0001) %MON seaice_uice_sd               =   1.5164548631893E-01
(PID.TID 0000.0001) %MON seaice_uice_del2             =   3.5328509040654E-04
(PID.TID 0000.0001) %MON seaice_vice_max              =   1.0055339064786E+00
(PID.TID 0000.0001) %MON seaice_vice_min              =  -1.4850579813768E+00
(PID.TID 0000.0001) %MON seaice_vice_mean             =  -1.8800432185229E-02
(PID.TID 0000.0001) %MON seaice_vice_sd               =   1.6189477564999E-01
(PID.TID 0000.0001) %MON seaice_vice_del2             =   3.3562796143476E-04
(PID.TID 0000.0001) %MON seaice_area_max              =   1.0026721082241E+00
(PID.TID 0000.0001) %MON seaice_area_min              =   0.0000000000000E+00
(PID.TID 0000.0001) %MON seaice_area_mean             =   5.7521938438877E-02
(PID.TID 0000.0001) %MON seaice_area_sd               =   2.2088817268522E-01
(PID.TID 0000.0001) %MON seaice_area_del2             =   2.8805346584257E-04
(PID.TID 0000.0001) %MON seaice_heff_max              =   9.9477595778150E+00
(PID.TID 0000.0001) %MON seaice_heff_min              =   0.0000000000000E+00
(PID.TID 0000.0001) %MON seaice_heff_mean             =   1.4949082345712E-01
(PID.TID 0000.0001) %MON seaice_heff_sd               =   7.1990947685476E-01
(PID.TID 0000.0001) %MON seaice_heff_del2             =   1.3558556575227E-03
(PID.TID 0000.0001) %MON seaice_hsnow_max             =   3.2857708295641E+00
(PID.TID 0000.0001) %MON seaice_hsnow_min             =   0.0000000000000E+00
(PID.TID 0000.0001) %MON seaice_hsnow_mean            =   1.2624025649549E-02
(PID.TID 0000.0001) %MON seaice_hsnow_sd              =   6.7971397309519E-02
(PID.TID 0000.0001) %MON seaice_hsnow_del2            =   3.6856640524474E-04
(PID.TID 0000.0001) // =======================================================
(PID.TID 0000.0001) // End MONITOR SEAICE statistics
(PID.TID 0000.0001) // =======================================================
(PID.TID 0000.0001) // =======================================================
(PID.TID 0000.0001) // Begin MONITOR dynamic field statistics
(PID.TID 0000.0001) // =======================================================
(PID.TID 0000.0001) %MON time_tsnumber                =                174845
(PID.TID 0000.0001) %MON time_secondsf                =   7.8680250000000E+07
(PID.TID 0000.0001) %MON dynstat_eta_max              =   1.9404377656862E+00
(PID.TID 0000.0001) %MON dynstat_eta_min              =  -1.0540018641678E+01
(PID.TID 0000.0001) %MON dynstat_eta_mean             =   9.0966116724295E-02
(PID.TID 0000.0001) %MON dynstat_eta_sd               =   9.1962530505214E-01
(PID.TID 0000.0001) %MON dynstat_eta_del2             =   2.0111896286453E-03
(PID.TID 0000.0001) %MON dynstat_uvel_max             =   1.9961315369632E+00
(PID.TID 0000.0001) %MON dynstat_uvel_min             =  -2.4548417775514E+00
(PID.TID 0000.0001) %MON dynstat_uvel_mean            =   5.4148560772551E-03
(PID.TID 0000.0001) %MON dynstat_uvel_sd              =   3.5382938781432E-02
(PID.TID 0000.0001) %MON dynstat_uvel_del2            =   3.8825586992591E-05
(PID.TID 0000.0001) %MON dynstat_vvel_max             =   1.7193492517307E+00
(PID.TID 0000.0001) %MON dynstat_vvel_min             =  -2.0917925131125E+00
(PID.TID 0000.0001) %MON dynstat_vvel_mean            =   3.8928402885838E-03
(PID.TID 0000.0001) %MON dynstat_vvel_sd              =   3.5149580109392E-02
(PID.TID 0000.0001) %MON dynstat_vvel_del2            =   3.7289490301065E-05
(PID.TID 0000.0001) %MON dynstat_wvel_max             =   8.4076429211712E-03
(PID.TID 0000.0001) %MON dynstat_wvel_min             =  -7.6344793313330E-03
(PID.TID 0000.0001) %MON dynstat_wvel_mean            =   4.2908852079907E-07
(PID.TID 0000.0001) %MON dynstat_wvel_sd              =   1.4282649019984E-04
(PID.TID 0000.0001) %MON dynstat_wvel_del2            =   3.1707505552121E-07
(PID.TID 0000.0001) %MON dynstat_theta_max            =   3.2440597364980E+01
(PID.TID 0000.0001) %MON dynstat_theta_min            =  -2.0454303108454E+00
(PID.TID 0000.0001) %MON dynstat_theta_mean           =   3.5919082124946E+00
(PID.TID 0000.0001) %MON dynstat_theta_sd             =   4.4417772665295E+00
(PID.TID 0000.0001) %MON dynstat_theta_del2           =   1.2652533846172E-04
(PID.TID 0000.0001) %MON dynstat_salt_max             =   4.0655989618568E+01
(PID.TID 0000.0001) %MON dynstat_salt_min             =   1.5975037277589E+01
(PID.TID 0000.0001) %MON dynstat_salt_mean            =   3.4724793110224E+01
(PID.TID 0000.0001) %MON dynstat_salt_sd              =   3.7974186763189E-01
(PID.TID 0000.0001) %MON dynstat_salt_del2            =   6.4357455947540E-05
(PID.TID 0000.0001) %MON dynstat_sst_max              =   3.2440597364980E+01
(PID.TID 0000.0001) %MON dynstat_sst_min              =  -2.0454303108454E+00
(PID.TID 0000.0001) %MON dynstat_sst_mean             =   1.8177369150296E+01
(PID.TID 0000.0001) %MON dynstat_sst_sd               =   1.0199450614194E+01
(PID.TID 0000.0001) %MON dynstat_sst_del2             =   1.1039204565085E-03
(PID.TID 0000.0001) %MON dynstat_sss_max              =   3.9463405629519E+01
(PID.TID 0000.0001) %MON dynstat_sss_min              =   1.5975037277589E+01
(PID.TID 0000.0001) %MON dynstat_sss_mean             =   3.4642313317172E+01
(PID.TID 0000.0001) %MON dynstat_sss_sd               =   1.3014433213195E+00
(PID.TID 0000.0001) %MON dynstat_sss_del2             =   1.4707530961367E-03
(PID.TID 0000.0001) %MON forcing_qnet_max             =   7.5750488281250E+02
(PID.TID 0000.0001) %MON forcing_qnet_min             =  -4.6612807617188E+03
(PID.TID 0000.0001) %MON forcing_qnet_mean            =   3.9251005885615E+01
(PID.TID 0000.0001) %MON forcing_qnet_sd              =   2.0137133684969E+02
(PID.TID 0000.0001) %MON forcing_qnet_del2            =   5.0399602075899E-01
(PID.TID 0000.0001) %MON forcing_qsw_max              =   0.0000000000000E+00
(PID.TID 0000.0001) %MON forcing_qsw_min              =  -1.1213191156535E+02
(PID.TID 0000.0001) %MON forcing_qsw_mean             =  -1.4511089330973E+01
(PID.TID 0000.0001) %MON forcing_qsw_sd               =   2.7230713372309E+01
(PID.TID 0000.0001) %MON forcing_qsw_del2             =   1.9738015970448E-02
(PID.TID 0000.0001) %MON forcing_empmr_max            =   1.7177734524012E-02
(PID.TID 0000.0001) %MON forcing_empmr_min            =  -4.5250490307808E-02
(PID.TID 0000.0001) %MON forcing_empmr_mean           =  -1.9984753619556E-06
(PID.TID 0000.0001) %MON forcing_empmr_sd             =   3.1590897214627E-04
(PID.TID 0000.0001) %MON forcing_empmr_del2           =   3.4519869161449E-06
(PID.TID 0000.0001) %MON forcing_fu_max               =   8.1078723073006E-01
(PID.TID 0000.0001) %MON forcing_fu_min               =  -1.2949052236231E+00
(PID.TID 0000.0001) %MON forcing_fu_mean              =   1.1879317577090E-02
(PID.TID 0000.0001) %MON forcing_fu_sd                =   1.2632994685493E-01
(PID.TID 0000.0001) %MON forcing_fu_del2              =   1.6761674607727E-04
(PID.TID 0000.0001) %MON forcing_fv_max               =   9.7078994189862E-01
(PID.TID 0000.0001) %MON forcing_fv_min               =  -9.5138030726852E-01
(PID.TID 0000.0001) %MON forcing_fv_mean              =  -9.2733035140903E-04
(PID.TID 0000.0001) %MON forcing_fv_sd                =   1.1253694971443E-01
(PID.TID 0000.0001) %MON forcing_fv_del2              =   1.4982394534350E-04
(PID.TID 0000.0001) %MON trAdv_CFL_u_max              =   2.5320855673564E-02
(PID.TID 0000.0001) %MON trAdv_CFL_v_max              =   1.8231164781745E-02
(PID.TID 0000.0001) %MON trAdv_CFL_w_max              =   8.0134363153611E-02
(PID.TID 0000.0001) %MON advcfl_uvel_max              =   2.5659557390290E-02
(PID.TID 0000.0001) %MON advcfl_vvel_max              =   1.7912363248522E-02
(PID.TID 0000.0001) %MON advcfl_wvel_max              =   7.6662741005379E-02
(PID.TID 0000.0001) %MON advcfl_W_hf_max              =   8.0468082298032E-02
(PID.TID 0000.0001) %MON pe_b_mean                    =   2.5933915126439E-03
(PID.TID 0000.0001) %MON ke_max                       =   2.0973572395974E+00
(PID.TID 0000.0001) %MON ke_mean                      =   1.2208653446122E-03
(PID.TID 0000.0001) %MON ke_vol                       =   1.3350064351420E+18
(PID.TID 0000.0001) %MON vort_r_min                   =  -8.6754636435029E-05
(PID.TID 0000.0001) %MON vort_r_max                   =   9.2616462540484E-05
(PID.TID 0000.0001) %MON vort_a_mean                  =  -1.9725080953711E-05
(PID.TID 0000.0001) %MON vort_a_sd                    =   7.4540860891417E-05
(PID.TID 0000.0001) %MON vort_p_mean                  =  -2.1669086315322E-05
(PID.TID 0000.0001) %MON vort_p_sd                    =   9.3615916772576E-05
(PID.TID 0000.0001) %MON surfExpan_theta_mean         =   1.8765740852379E-05
(PID.TID 0000.0001) %MON surfExpan_salt_mean          =   6.5817365014603E-06
(PID.TID 0000.0001) // =======================================================
(PID.TID 0000.0001) // End MONITOR dynamic field statistics
(PID.TID 0000.0001) // =======================================================
(PID.TID 0000.0001) // =======================================================
(PID.TID 0000.0001) // Begin MONITOR SEAICE statistics
(PID.TID 0000.0001) // =======================================================
(PID.TID 0000.0001) %MON seaice_tsnumber              =                174845
(PID.TID 0000.0001) %MON seaice_time_sec              =   7.8680250000000E+07
(PID.TID 0000.0001) %MON seaice_uice_max              =   1.2969180256525E+00
(PID.TID 0000.0001) %MON seaice_uice_min              =  -1.0460324250821E+00
(PID.TID 0000.0001) %MON seaice_uice_mean             =   7.6889961349656E-03
(PID.TID 0000.0001) %MON seaice_uice_sd               =   1.5147379629858E-01
(PID.TID 0000.0001) %MON seaice_uice_del2             =   3.5363373277606E-04
(PID.TID 0000.0001) %MON seaice_vice_max              =   1.0098727476805E+00
(PID.TID 0000.0001) %MON seaice_vice_min              =  -1.4838628934187E+00
(PID.TID 0000.0001) %MON seaice_vice_mean             =  -1.8647462051247E-02
(PID.TID 0000.0001) %MON seaice_vice_sd               =   1.6179133416556E-01
(PID.TID 0000.0001) %MON seaice_vice_del2             =   3.3611060861822E-04
(PID.TID 0000.0001) %MON seaice_area_max              =   1.0026518105136E+00
(PID.TID 0000.0001) %MON seaice_area_min              =   0.0000000000000E+00
(PID.TID 0000.0001) %MON seaice_area_mean             =   5.7523848162347E-02
(PID.TID 0000.0001) %MON seaice_area_sd               =   2.2088529227733E-01
(PID.TID 0000.0001) %MON seaice_area_del2             =   2.8797582974787E-04
(PID.TID 0000.0001) %MON seaice_heff_max              =   9.9477491085101E+00
(PID.TID 0000.0001) %MON seaice_heff_min              =   0.0000000000000E+00
(PID.TID 0000.0001) %MON seaice_heff_mean             =   1.4948706946660E-01
(PID.TID 0000.0001) %MON seaice_heff_sd               =   7.1989778428753E-01
(PID.TID 0000.0001) %MON seaice_heff_del2             =   1.3551986976005E-03
(PID.TID 0000.0001) %MON seaice_hsnow_max             =   3.2857674280013E+00
(PID.TID 0000.0001) %MON seaice_hsnow_min             =   0.0000000000000E+00
(PID.TID 0000.0001) %MON seaice_hsnow_mean            =   1.2623492748138E-02
(PID.TID 0000.0001) %MON seaice_hsnow_sd              =   6.7963055264636E-02
(PID.TID 0000.0001) %MON seaice_hsnow_del2            =   3.6830290284260E-04
(PID.TID 0000.0001) // =======================================================
(PID.TID 0000.0001) // End MONITOR SEAICE statistics
(PID.TID 0000.0001) // =======================================================
(PID.TID 0000.0001) // =======================================================
(PID.TID 0000.0001) // Begin MONITOR dynamic field statistics
(PID.TID 0000.0001) // =======================================================
(PID.TID 0000.0001) %MON time_tsnumber                =                174846
(PID.TID 0000.0001) %MON time_secondsf                =   7.8680700000000E+07
(PID.TID 0000.0001) %MON dynstat_eta_max              =   1.9732430359099E+00
(PID.TID 0000.0001) %MON dynstat_eta_min              =  -1.0547130742143E+01
(PID.TID 0000.0001) %MON dynstat_eta_mean             =   9.1043360130481E-02
(PID.TID 0000.0001) %MON dynstat_eta_sd               =   9.2021106589436E-01
(PID.TID 0000.0001) %MON dynstat_eta_del2             =   2.0112320145795E-03
(PID.TID 0000.0001) %MON dynstat_uvel_max             =   1.9862205998352E+00
(PID.TID 0000.0001) %MON dynstat_uvel_min             =  -2.4494169588335E+00
(PID.TID 0000.0001) %MON dynstat_uvel_mean            =   5.5308320371309E-03
(PID.TID 0000.0001) %MON dynstat_uvel_sd              =   3.5549002162431E-02
(PID.TID 0000.0001) %MON dynstat_uvel_del2            =   3.8897528673486E-05
(PID.TID 0000.0001) %MON dynstat_vvel_max             =   1.7191021357101E+00
(PID.TID 0000.0001) %MON dynstat_vvel_min             =  -2.0880067190625E+00
(PID.TID 0000.0001) %MON dynstat_vvel_mean            =   3.8957502012226E-03
(PID.TID 0000.0001) %MON dynstat_vvel_sd              =   3.5325340899014E-02
(PID.TID 0000.0001) %MON dynstat_vvel_del2            =   3.7370315243861E-05
(PID.TID 0000.0001) %MON dynstat_wvel_max             =   8.4304357560784E-03
(PID.TID 0000.0001) %MON dynstat_wvel_min             =  -7.6360192367813E-03
(PID.TID 0000.0001) %MON dynstat_wvel_mean            =   4.2605703548007E-07
(PID.TID 0000.0001) %MON dynstat_wvel_sd              =   1.4362290635539E-04
(PID.TID 0000.0001) %MON dynstat_wvel_del2            =   3.1835518356405E-07
(PID.TID 0000.0001) %MON dynstat_theta_max            =   3.2439396925828E+01
(PID.TID 0000.0001) %MON dynstat_theta_min            =  -2.0455295865629E+00
(PID.TID 0000.0001) %MON dynstat_theta_mean           =   3.5919050222874E+00
(PID.TID 0000.0001) %MON dynstat_theta_sd             =   4.4417676718259E+00
(PID.TID 0000.0001) %MON dynstat_theta_del2           =   1.2656723821734E-04
(PID.TID 0000.0001) %MON dynstat_salt_max             =   4.0655989616005E+01
(PID.TID 0000.0001) %MON dynstat_salt_min             =   1.5973710611895E+01
(PID.TID 0000.0001) %MON dynstat_salt_mean            =   3.4724793012648E+01
(PID.TID 0000.0001) %MON dynstat_salt_sd              =   3.7974158849154E-01
(PID.TID 0000.0001) %MON dynstat_salt_del2            =   6.4323206820222E-05
(PID.TID 0000.0001) %MON dynstat_sst_max              =   3.2439396925828E+01
(PID.TID 0000.0001) %MON dynstat_sst_min              =  -2.0455295865629E+00
(PID.TID 0000.0001) %MON dynstat_sst_mean             =   1.8177130408180E+01
(PID.TID 0000.0001) %MON dynstat_sst_sd               =   1.0199597527906E+01
(PID.TID 0000.0001) %MON dynstat_sst_del2             =   1.1040286878517E-03
(PID.TID 0000.0001) %MON dynstat_sss_max              =   3.9463353750239E+01
(PID.TID 0000.0001) %MON dynstat_sss_min              =   1.5973710611895E+01
(PID.TID 0000.0001) %MON dynstat_sss_mean             =   3.4642286483081E+01
(PID.TID 0000.0001) %MON dynstat_sss_sd               =   1.3015029876355E+00
(PID.TID 0000.0001) %MON dynstat_sss_del2             =   1.4707349397825E-03
(PID.TID 0000.0001) %MON forcing_qnet_max             =   7.5645775631264E+02
(PID.TID 0000.0001) %MON forcing_qnet_min             =  -4.1804042968750E+03
(PID.TID 0000.0001) %MON forcing_qnet_mean            =   3.9238609606058E+01
(PID.TID 0000.0001) %MON forcing_qnet_sd              =   2.0209846449376E+02
(PID.TID 0000.0001) %MON forcing_qnet_del2            =   4.7871874514804E-01
(PID.TID 0000.0001) %MON forcing_qsw_max              =   0.0000000000000E+00
(PID.TID 0000.0001) %MON forcing_qsw_min              =  -1.1223210261043E+02
(PID.TID 0000.0001) %MON forcing_qsw_mean             =  -1.4522115829470E+01
(PID.TID 0000.0001) %MON forcing_qsw_sd               =   2.7102462171702E+01
(PID.TID 0000.0001) %MON forcing_qsw_del2             =   1.9761600372041E-02
(PID.TID 0000.0001) %MON forcing_empmr_max            =   1.7495660111308E-02
(PID.TID 0000.0001) %MON forcing_empmr_min            =  -4.4126521795988E-02
(PID.TID 0000.0001) %MON forcing_empmr_mean           =  -2.2813979285243E-06
(PID.TID 0000.0001) %MON forcing_empmr_sd             =   3.1223177553771E-04
(PID.TID 0000.0001) %MON forcing_empmr_del2           =   3.4104938564385E-06
(PID.TID 0000.0001) %MON forcing_fu_max               =   8.1443896889687E-01
(PID.TID 0000.0001) %MON forcing_fu_min               =  -1.3008477630078E+00
(PID.TID 0000.0001) %MON forcing_fu_mean              =   1.1838193710954E-02
(PID.TID 0000.0001) %MON forcing_fu_sd                =   1.2634025560270E-01
(PID.TID 0000.0001) %MON forcing_fu_del2              =   1.6787835417832E-04
(PID.TID 0000.0001) %MON forcing_fv_max               =   9.7881197963217E-01
(PID.TID 0000.0001) %MON forcing_fv_min               =  -9.4112540206880E-01
(PID.TID 0000.0001) %MON forcing_fv_mean              =  -9.0444958148638E-04
(PID.TID 0000.0001) %MON forcing_fv_sd                =   1.1267763097842E-01
(PID.TID 0000.0001) %MON forcing_fv_del2              =   1.5000201284949E-04
(PID.TID 0000.0001) %MON trAdv_CFL_u_max              =   2.5264900518708E-02
(PID.TID 0000.0001) %MON trAdv_CFL_v_max              =   1.8183005261243E-02
(PID.TID 0000.0001) %MON trAdv_CFL_w_max              =   7.9746947564457E-02
(PID.TID 0000.0001) %MON advcfl_uvel_max              =   2.5602853757291E-02
(PID.TID 0000.0001) %MON advcfl_vvel_max              =   1.7865045875473E-02
(PID.TID 0000.0001) %MON advcfl_wvel_max              =   7.7304418773673E-02
(PID.TID 0000.0001) %MON advcfl_W_hf_max              =   8.1133434626366E-02
(PID.TID 0000.0001) %MON pe_b_mean                    =   2.5959615691852E-03
(PID.TID 0000.0001) %MON ke_max                       =   2.0874830442224E+00
(PID.TID 0000.0001) %MON ke_mean                      =   1.2331408533076E-03
(PID.TID 0000.0001) %MON ke_vol                       =   1.3350064351420E+18
(PID.TID 0000.0001) %MON vort_r_min                   =  -8.6550083121292E-05
(PID.TID 0000.0001) %MON vort_r_max                   =   9.2393334847263E-05
(PID.TID 0000.0001) %MON vort_a_mean                  =  -1.9725081073074E-05
(PID.TID 0000.0001) %MON vort_a_sd                    =   7.4540897880577E-05
(PID.TID 0000.0001) %MON vort_p_mean                  =  -2.1669086446449E-05
(PID.TID 0000.0001) %MON vort_p_sd                    =   9.3616036057393E-05
(PID.TID 0000.0001) %MON surfExpan_theta_mean         =   1.8278425715260E-05
(PID.TID 0000.0001) %MON surfExpan_salt_mean          =   6.2950356000316E-06
(PID.TID 0000.0001) // =======================================================
(PID.TID 0000.0001) // End MONITOR dynamic field statistics
(PID.TID 0000.0001) // =======================================================
(PID.TID 0000.0001) // =======================================================
(PID.TID 0000.0001) // Begin MONITOR SEAICE statistics
(PID.TID 0000.0001) // =======================================================
(PID.TID 0000.0001) %MON seaice_tsnumber              =                174846
(PID.TID 0000.0001) %MON seaice_time_sec              =   7.8680700000000E+07
(PID.TID 0000.0001) %MON seaice_uice_max              =   1.2947444543198E+00
(PID.TID 0000.0001) %MON seaice_uice_min              =  -1.0422890425321E+00
(PID.TID 0000.0001) %MON seaice_uice_mean             =   7.8594611666656E-03
(PID.TID 0000.0001) %MON seaice_uice_sd               =   1.5128423515504E-01
(PID.TID 0000.0001) %MON seaice_uice_del2             =   3.5391018027174E-04
(PID.TID 0000.0001) %MON seaice_vice_max              =   1.0135805137085E+00
(PID.TID 0000.0001) %MON seaice_vice_min              =  -1.4826142591405E+00
(PID.TID 0000.0001) %MON seaice_vice_mean             =  -1.8495847636635E-02
(PID.TID 0000.0001) %MON seaice_vice_sd               =   1.6168071099414E-01
(PID.TID 0000.0001) %MON seaice_vice_del2             =   3.3651557384931E-04
(PID.TID 0000.0001) %MON seaice_area_max              =   1.0026265428028E+00
(PID.TID 0000.0001) %MON seaice_area_min              =   0.0000000000000E+00
(PID.TID 0000.0001) %MON seaice_area_mean             =   5.7525781712044E-02
(PID.TID 0000.0001) %MON seaice_area_sd               =   2.2088246442007E-01
(PID.TID 0000.0001) %MON seaice_area_del2             =   2.8789770966336E-04
(PID.TID 0000.0001) %MON seaice_heff_max              =   9.9477376854016E+00
(PID.TID 0000.0001) %MON seaice_heff_min              =   0.0000000000000E+00
(PID.TID 0000.0001) %MON seaice_heff_mean             =   1.4948331709513E-01
(PID.TID 0000.0001) %MON seaice_heff_sd               =   7.1988605898279E-01
(PID.TID 0000.0001) %MON seaice_heff_del2             =   1.3545364163269E-03
(PID.TID 0000.0001) %MON seaice_hsnow_max             =   3.2857633045349E+00
(PID.TID 0000.0001) %MON seaice_hsnow_min             =   0.0000000000000E+00
(PID.TID 0000.0001) %MON seaice_hsnow_mean            =   1.2622964499663E-02
(PID.TID 0000.0001) %MON seaice_hsnow_sd              =   6.7954688663332E-02
(PID.TID 0000.0001) %MON seaice_hsnow_del2            =   3.6803743778097E-04
(PID.TID 0000.0001) // =======================================================
(PID.TID 0000.0001) // End MONITOR SEAICE statistics
(PID.TID 0000.0001) // =======================================================
(PID.TID 0000.0001) // =======================================================
(PID.TID 0000.0001) // Begin MONITOR dynamic field statistics
(PID.TID 0000.0001) // =======================================================
(PID.TID 0000.0001) %MON time_tsnumber                =                174847
(PID.TID 0000.0001) %MON time_secondsf                =   7.8681150000000E+07
(PID.TID 0000.0001) %MON dynstat_eta_max              =   2.0530587636471E+00
(PID.TID 0000.0001) %MON dynstat_eta_min              =  -1.0553074389139E+01
(PID.TID 0000.0001) %MON dynstat_eta_mean             =   9.1118399435171E-02
(PID.TID 0000.0001) %MON dynstat_eta_sd               =   9.2078257861646E-01
(PID.TID 0000.0001) %MON dynstat_eta_del2             =   2.0112796322907E-03
(PID.TID 0000.0001) %MON dynstat_uvel_max             =   1.9762405090335E+00
(PID.TID 0000.0001) %MON dynstat_uvel_min             =  -2.4441299053875E+00
(PID.TID 0000.0001) %MON dynstat_uvel_mean            =   5.6471976036061E-03
(PID.TID 0000.0001) %MON dynstat_uvel_sd              =   3.5716608456077E-02
(PID.TID 0000.0001) %MON dynstat_uvel_del2            =   3.8970522316291E-05
(PID.TID 0000.0001) %MON dynstat_vvel_max             =   1.7189282645182E+00
(PID.TID 0000.0001) %MON dynstat_vvel_min             =  -2.0841205642815E+00
(PID.TID 0000.0001) %MON dynstat_vvel_mean            =   3.8973215357501E-03
(PID.TID 0000.0001) %MON dynstat_vvel_sd              =   3.5505033348144E-02
(PID.TID 0000.0001) %MON dynstat_vvel_del2            =   3.7451648578246E-05
(PID.TID 0000.0001) %MON dynstat_wvel_max             =   8.4535029019320E-03
(PID.TID 0000.0001) %MON dynstat_wvel_min             =  -7.6379632403215E-03
(PID.TID 0000.0001) %MON dynstat_wvel_mean            =   4.2296832171878E-07
(PID.TID 0000.0001) %MON dynstat_wvel_sd              =   1.4442549706371E-04
(PID.TID 0000.0001) %MON dynstat_wvel_del2            =   3.1964182457532E-07
(PID.TID 0000.0001) %MON dynstat_theta_max            =   3.2438289501648E+01
(PID.TID 0000.0001) %MON dynstat_theta_min            =  -2.0456224713702E+00
(PID.TID 0000.0001) %MON dynstat_theta_mean           =   3.5919018790208E+00
(PID.TID 0000.0001) %MON dynstat_theta_sd             =   4.4417580314408E+00
(PID.TID 0000.0001) %MON dynstat_theta_del2           =   1.2660884275210E-04
(PID.TID 0000.0001) %MON dynstat_salt_max             =   4.0655989614947E+01
(PID.TID 0000.0001) %MON dynstat_salt_min             =   1.5972394411144E+01
(PID.TID 0000.0001) %MON dynstat_salt_mean            =   3.4724792928249E+01
(PID.TID 0000.0001) %MON dynstat_salt_sd              =   3.7974131919227E-01
(PID.TID 0000.0001) %MON dynstat_salt_del2            =   6.4289161190098E-05
(PID.TID 0000.0001) %MON dynstat_sst_max              =   3.2438289501648E+01
(PID.TID 0000.0001) %MON dynstat_sst_min              =  -2.0456224713702E+00
(PID.TID 0000.0001) %MON dynstat_sst_mean             =   1.8176892816247E+01
(PID.TID 0000.0001) %MON dynstat_sst_sd               =   1.0199740451025E+01
(PID.TID 0000.0001) %MON dynstat_sst_del2             =   1.1040837638379E-03
(PID.TID 0000.0001) %MON dynstat_sss_max              =   3.9463305740921E+01
(PID.TID 0000.0001) %MON dynstat_sss_min              =   1.5972394411144E+01
(PID.TID 0000.0001) %MON dynstat_sss_mean             =   3.4642260545507E+01
(PID.TID 0000.0001) %MON dynstat_sss_sd               =   1.3015626664117E+00
(PID.TID 0000.0001) %MON dynstat_sss_del2             =   1.4707420949850E-03
(PID.TID 0000.0001) %MON forcing_qnet_max             =   7.6794975875931E+02
(PID.TID 0000.0001) %MON forcing_qnet_min             =  -1.0232953548348E+03
(PID.TID 0000.0001) %MON forcing_qnet_mean            =   3.9532892229068E+01
(PID.TID 0000.0001) %MON forcing_qnet_sd              =   1.9989053122505E+02
(PID.TID 0000.0001) %MON forcing_qnet_del2            =   4.0213696375974E-01
(PID.TID 0000.0001) %MON forcing_qsw_max              =   0.0000000000000E+00
(PID.TID 0000.0001) %MON forcing_qsw_min              =  -1.1224799014305E+02
(PID.TID 0000.0001) %MON forcing_qsw_mean             =  -1.4526953711557E+01
(PID.TID 0000.0001) %MON forcing_qsw_sd               =   2.6962205042415E+01
(PID.TID 0000.0001) %MON forcing_qsw_del2             =   1.9783757486076E-02
(PID.TID 0000.0001) %MON forcing_empmr_max            =   1.7797579988837E-02
(PID.TID 0000.0001) %MON forcing_empmr_min            =  -4.4508628547192E-02
(PID.TID 0000.0001) %MON forcing_empmr_mean           =  -2.0238147511278E-06
(PID.TID 0000.0001) %MON forcing_empmr_sd             =   3.1217903940829E-04
(PID.TID 0000.0001) %MON forcing_empmr_del2           =   3.4194915149765E-06
(PID.TID 0000.0001) %MON forcing_fu_max               =   8.1523582339287E-01
(PID.TID 0000.0001) %MON forcing_fu_min               =  -1.3064541135230E+00
(PID.TID 0000.0001) %MON forcing_fu_mean              =   1.1798292076820E-02
(PID.TID 0000.0001) %MON forcing_fu_sd                =   1.2635085124861E-01
(PID.TID 0000.0001) %MON forcing_fu_del2              =   1.6830678296940E-04
(PID.TID 0000.0001) %MON forcing_fv_max               =   9.8672944531354E-01
(PID.TID 0000.0001) %MON forcing_fv_min               =  -9.3120104745274E-01
(PID.TID 0000.0001) %MON forcing_fv_mean              =  -8.7849778644067E-04
(PID.TID 0000.0001) %MON forcing_fv_sd                =   1.1281121825705E-01
(PID.TID 0000.0001) %MON forcing_fv_del2              =   1.5005298254880E-04
(PID.TID 0000.0001) %MON trAdv_CFL_u_max              =   2.5210366365643E-02
(PID.TID 0000.0001) %MON trAdv_CFL_v_max              =   1.8135667738196E-02
(PID.TID 0000.0001) %MON trAdv_CFL_w_max              =   7.9784438621388E-02
(PID.TID 0000.0001) %MON advcfl_uvel_max              =   2.5547590133963E-02
(PID.TID 0000.0001) %MON advcfl_vvel_max              =   1.7818536125917E-02
(PID.TID 0000.0001) %MON advcfl_wvel_max              =   7.7926302759145E-02
(PID.TID 0000.0001) %MON advcfl_W_hf_max              =   8.1776854287952E-02
(PID.TID 0000.0001) %MON pe_b_mean                    =   2.5983977219346E-03
(PID.TID 0000.0001) %MON ke_max                       =   2.0779223812939E+00
(PID.TID 0000.0001) %MON ke_mean                      =   1.2456705832093E-03
(PID.TID 0000.0001) %MON ke_vol                       =   1.3350064351420E+18
(PID.TID 0000.0001) %MON vort_r_min                   =  -8.6349833358113E-05
(PID.TID 0000.0001) %MON vort_r_max                   =   9.2177081839766E-05
(PID.TID 0000.0001) %MON vort_a_mean                  =  -1.9725081180951E-05
(PID.TID 0000.0001) %MON vort_a_sd                    =   7.4540934678885E-05
(PID.TID 0000.0001) %MON vort_p_mean                  =  -2.1669086564958E-05
(PID.TID 0000.0001) %MON vort_p_sd                    =   9.3616152557701E-05
(PID.TID 0000.0001) %MON surfExpan_theta_mean         =   1.7769919615803E-05
(PID.TID 0000.0001) %MON surfExpan_salt_mean          =   6.0147517784080E-06
(PID.TID 0000.0001) // =======================================================
(PID.TID 0000.0001) // End MONITOR dynamic field statistics
(PID.TID 0000.0001) // =======================================================
(PID.TID 0000.0001) // =======================================================
(PID.TID 0000.0001) // Begin MONITOR SEAICE statistics
(PID.TID 0000.0001) // =======================================================
(PID.TID 0000.0001) %MON seaice_tsnumber              =                174847
(PID.TID 0000.0001) %MON seaice_time_sec              =   7.8681150000000E+07
(PID.TID 0000.0001) %MON seaice_uice_max              =   1.2925498377238E+00
(PID.TID 0000.0001) %MON seaice_uice_min              =  -1.0393744006990E+00
(PID.TID 0000.0001) %MON seaice_uice_mean             =   8.0285424865313E-03
(PID.TID 0000.0001) %MON seaice_uice_sd               =   1.5110476640622E-01
(PID.TID 0000.0001) %MON seaice_uice_del2             =   3.5424280217034E-04
(PID.TID 0000.0001) %MON seaice_vice_max              =   1.0172284529873E+00
(PID.TID 0000.0001) %MON seaice_vice_min              =  -1.4813944371563E+00
(PID.TID 0000.0001) %MON seaice_vice_mean             =  -1.8345171890653E-02
(PID.TID 0000.0001) %MON seaice_vice_sd               =   1.6158300883154E-01
(PID.TID 0000.0001) %MON seaice_vice_del2             =   3.3695664537927E-04
(PID.TID 0000.0001) %MON seaice_area_max              =   1.0026009220128E+00
(PID.TID 0000.0001) %MON seaice_area_min              =   0.0000000000000E+00
(PID.TID 0000.0001) %MON seaice_area_mean             =   5.7527732628300E-02
(PID.TID 0000.0001) %MON seaice_area_sd               =   2.2087964308034E-01
(PID.TID 0000.0001) %MON seaice_area_del2             =   2.8781817515270E-04
(PID.TID 0000.0001) %MON seaice_heff_max              =   9.9477262621476E+00
(PID.TID 0000.0001) %MON seaice_heff_min              =   0.0000000000000E+00
(PID.TID 0000.0001) %MON seaice_heff_mean             =   1.4947956712978E-01
(PID.TID 0000.0001) %MON seaice_heff_sd               =   7.1987429955759E-01
(PID.TID 0000.0001) %MON seaice_heff_del2             =   1.3538690454342E-03
(PID.TID 0000.0001) %MON seaice_hsnow_max             =   3.2857594196745E+00
(PID.TID 0000.0001) %MON seaice_hsnow_min             =   0.0000000000000E+00
(PID.TID 0000.0001) %MON seaice_hsnow_mean            =   1.2622427731053E-02
(PID.TID 0000.0001) %MON seaice_hsnow_sd              =   6.7946240423973E-02
(PID.TID 0000.0001) %MON seaice_hsnow_del2            =   3.6776992187847E-04
(PID.TID 0000.0001) // =======================================================
(PID.TID 0000.0001) // End MONITOR SEAICE statistics
(PID.TID 0000.0001) // =======================================================
(PID.TID 0000.0001) // =======================================================
(PID.TID 0000.0001) // Begin MONITOR dynamic field statistics
(PID.TID 0000.0001) // =======================================================
(PID.TID 0000.0001) %MON time_tsnumber                =                174848
(PID.TID 0000.0001) %MON time_secondsf                =   7.8681600000000E+07
(PID.TID 0000.0001) %MON dynstat_eta_max              =   2.1248856738570E+00
(PID.TID 0000.0001) %MON dynstat_eta_min              =  -1.0557873146559E+01
(PID.TID 0000.0001) %MON dynstat_eta_mean             =   9.1191465616299E-02
(PID.TID 0000.0001) %MON dynstat_eta_sd               =   9.2134117742788E-01
(PID.TID 0000.0001) %MON dynstat_eta_del2             =   2.0113297794330E-03
(PID.TID 0000.0001) %MON dynstat_uvel_max             =   1.9661784134765E+00
(PID.TID 0000.0001) %MON dynstat_uvel_min             =  -2.4389782125077E+00
(PID.TID 0000.0001) %MON dynstat_uvel_mean            =   5.7635422019216E-03
(PID.TID 0000.0001) %MON dynstat_uvel_sd              =   3.5885804547641E-02
(PID.TID 0000.0001) %MON dynstat_uvel_del2            =   3.9044467732678E-05
(PID.TID 0000.0001) %MON dynstat_vvel_max             =   1.7188335200937E+00
(PID.TID 0000.0001) %MON dynstat_vvel_min             =  -2.0801326084008E+00
(PID.TID 0000.0001) %MON dynstat_vvel_mean            =   3.8976421251655E-03
(PID.TID 0000.0001) %MON dynstat_vvel_sd              =   3.5688522780077E-02
(PID.TID 0000.0001) %MON dynstat_vvel_del2            =   3.7533976918556E-05
(PID.TID 0000.0001) %MON dynstat_wvel_max             =   8.4768553982048E-03
(PID.TID 0000.0001) %MON dynstat_wvel_min             =  -7.6402708300714E-03
(PID.TID 0000.0001) %MON dynstat_wvel_mean            =   4.1974759419846E-07
(PID.TID 0000.0001) %MON dynstat_wvel_sd              =   1.4523410955510E-04
(PID.TID 0000.0001) %MON dynstat_wvel_del2            =   3.2093451653377E-07
(PID.TID 0000.0001) %MON dynstat_theta_max            =   3.2437241479792E+01
(PID.TID 0000.0001) %MON dynstat_theta_min            =  -2.0457139843041E+00
(PID.TID 0000.0001) %MON dynstat_theta_mean           =   3.5918987909622E+00
(PID.TID 0000.0001) %MON dynstat_theta_sd             =   4.4417483780517E+00
(PID.TID 0000.0001) %MON dynstat_theta_del2           =   1.2665224596520E-04
(PID.TID 0000.0001) %MON dynstat_salt_max             =   4.0655989614786E+01
(PID.TID 0000.0001) %MON dynstat_salt_min             =   1.5971089448340E+01
(PID.TID 0000.0001) %MON dynstat_salt_mean            =   3.4724792857315E+01
(PID.TID 0000.0001) %MON dynstat_salt_sd              =   3.7974105510976E-01
(PID.TID 0000.0001) %MON dynstat_salt_del2            =   6.4255567000703E-05
(PID.TID 0000.0001) %MON dynstat_sst_max              =   3.2437241479792E+01
(PID.TID 0000.0001) %MON dynstat_sst_min              =  -2.0457139843041E+00
(PID.TID 0000.0001) %MON dynstat_sst_mean             =   1.8176656944391E+01
(PID.TID 0000.0001) %MON dynstat_sst_sd               =   1.0199881385470E+01
(PID.TID 0000.0001) %MON dynstat_sst_del2             =   1.1042387963988E-03
(PID.TID 0000.0001) %MON dynstat_sss_max              =   3.9463261491656E+01
(PID.TID 0000.0001) %MON dynstat_sss_min              =   1.5971089448340E+01
(PID.TID 0000.0001) %MON dynstat_sss_mean             =   3.4642233975760E+01
(PID.TID 0000.0001) %MON dynstat_sss_sd               =   1.3016231607894E+00
(PID.TID 0000.0001) %MON dynstat_sss_del2             =   1.4707368270539E-03
(PID.TID 0000.0001) %MON forcing_qnet_max             =   8.3105500142942E+02
(PID.TID 0000.0001) %MON forcing_qnet_min             =  -1.5041741943359E+03
(PID.TID 0000.0001) %MON forcing_qnet_mean            =   3.9613968191345E+01
(PID.TID 0000.0001) %MON forcing_qnet_sd              =   1.9957356276449E+02
(PID.TID 0000.0001) %MON forcing_qnet_del2            =   3.9442210812704E-01
(PID.TID 0000.0001) %MON forcing_qsw_max              =   0.0000000000000E+00
(PID.TID 0000.0001) %MON forcing_qsw_min              =  -1.1217709195411E+02
(PID.TID 0000.0001) %MON forcing_qsw_mean             =  -1.4525584327867E+01
(PID.TID 0000.0001) %MON forcing_qsw_sd               =   2.6810592435414E+01
(PID.TID 0000.0001) %MON forcing_qsw_del2             =   1.9804531238958E-02
(PID.TID 0000.0001) %MON forcing_empmr_max            =   1.8096787855029E-02
(PID.TID 0000.0001) %MON forcing_empmr_min            =  -4.4769071042538E-02
(PID.TID 0000.0001) %MON forcing_empmr_mean           =  -2.1072207971373E-06
(PID.TID 0000.0001) %MON forcing_empmr_sd             =   3.1228425015939E-04
(PID.TID 0000.0001) %MON forcing_empmr_del2           =   3.4258573305818E-06
(PID.TID 0000.0001) %MON forcing_fu_max               =   8.2033735513687E-01
(PID.TID 0000.0001) %MON forcing_fu_min               =  -1.3128523588500E+00
(PID.TID 0000.0001) %MON forcing_fu_mean              =   1.1756696334351E-02
(PID.TID 0000.0001) %MON forcing_fu_sd                =   1.2639941119574E-01
(PID.TID 0000.0001) %MON forcing_fu_del2              =   1.6872098931530E-04
(PID.TID 0000.0001) %MON forcing_fv_max               =   9.9540007180347E-01
(PID.TID 0000.0001) %MON forcing_fv_min               =  -9.9040942813311E-01
(PID.TID 0000.0001) %MON forcing_fv_mean              =  -8.4610475928192E-04
(PID.TID 0000.0001) %MON forcing_fv_sd                =   1.1300096834470E-01
(PID.TID 0000.0001) %MON forcing_fv_del2              =   1.5029577930680E-04
(PID.TID 0000.0001) %MON trAdv_CFL_u_max              =   2.5157228410654E-02
(PID.TID 0000.0001) %MON trAdv_CFL_v_max              =   1.8089259957564E-02
(PID.TID 0000.0001) %MON trAdv_CFL_w_max              =   8.1057128195235E-02
(PID.TID 0000.0001) %MON advcfl_uvel_max              =   2.5493741384804E-02
(PID.TID 0000.0001) %MON advcfl_vvel_max              =   1.7772939860720E-02
(PID.TID 0000.0001) %MON advcfl_wvel_max              =   7.8528089062026E-02
(PID.TID 0000.0001) %MON advcfl_W_hf_max              =   8.2398171181925E-02
(PID.TID 0000.0001) %MON pe_b_mean                    =   2.6007095268644E-03
(PID.TID 0000.0001) %MON ke_max                       =   2.0686689592864E+00
(PID.TID 0000.0001) %MON ke_mean                      =   1.2584524865751E-03
(PID.TID 0000.0001) %MON ke_vol                       =   1.3350064351420E+18
(PID.TID 0000.0001) %MON vort_r_min                   =  -8.6153960965573E-05
(PID.TID 0000.0001) %MON vort_r_max                   =   9.1967608232649E-05
(PID.TID 0000.0001) %MON vort_a_mean                  =  -1.9725081276702E-05
(PID.TID 0000.0001) %MON vort_a_sd                    =   7.4540971255637E-05
(PID.TID 0000.0001) %MON vort_p_mean                  =  -2.1669086670145E-05
(PID.TID 0000.0001) %MON vort_p_sd                    =   9.3616266315853E-05
(PID.TID 0000.0001) %MON surfExpan_theta_mean         =   1.7232795763569E-05
(PID.TID 0000.0001) %MON surfExpan_salt_mean          =   5.7404458189547E-06
(PID.TID 0000.0001) // =======================================================
(PID.TID 0000.0001) // End MONITOR dynamic field statistics
(PID.TID 0000.0001) // =======================================================
(PID.TID 0000.0001) // =======================================================
(PID.TID 0000.0001) // Begin MONITOR SEAICE statistics
(PID.TID 0000.0001) // =======================================================
(PID.TID 0000.0001) %MON seaice_tsnumber              =                174848
(PID.TID 0000.0001) %MON seaice_time_sec              =   7.8681600000000E+07
(PID.TID 0000.0001) %MON seaice_uice_max              =   1.2903336325349E+00
(PID.TID 0000.0001) %MON seaice_uice_min              =  -1.0373180104417E+00
(PID.TID 0000.0001) %MON seaice_uice_mean             =   8.1995269966407E-03
(PID.TID 0000.0001) %MON seaice_uice_sd               =   1.5092672484829E-01
(PID.TID 0000.0001) %MON seaice_uice_del2             =   3.5456400716241E-04
(PID.TID 0000.0001) %MON seaice_vice_max              =   1.0203813892885E+00
(PID.TID 0000.0001) %MON seaice_vice_min              =  -1.4802024061689E+00
(PID.TID 0000.0001) %MON seaice_vice_mean             =  -1.8194068345897E-02
(PID.TID 0000.0001) %MON seaice_vice_sd               =   1.6148910903712E-01
(PID.TID 0000.0001) %MON seaice_vice_del2             =   3.3737616071808E-04
(PID.TID 0000.0001) %MON seaice_area_max              =   1.0025740614556E+00
(PID.TID 0000.0001) %MON seaice_area_min              =   0.0000000000000E+00
(PID.TID 0000.0001) %MON seaice_area_mean             =   5.7529692660805E-02
(PID.TID 0000.0001) %MON seaice_area_sd               =   2.2087680495196E-01
(PID.TID 0000.0001) %MON seaice_area_del2             =   2.8773678334691E-04
(PID.TID 0000.0001) %MON seaice_heff_max              =   9.9477148387136E+00
(PID.TID 0000.0001) %MON seaice_heff_min              =   0.0000000000000E+00
(PID.TID 0000.0001) %MON seaice_heff_mean             =   1.4947581784552E-01
(PID.TID 0000.0001) %MON seaice_heff_sd               =   7.1986251032765E-01
(PID.TID 0000.0001) %MON seaice_heff_del2             =   1.3531976442785E-03
(PID.TID 0000.0001) %MON seaice_hsnow_max             =   3.2857555350304E+00
(PID.TID 0000.0001) %MON seaice_hsnow_min             =   0.0000000000000E+00
(PID.TID 0000.0001) %MON seaice_hsnow_mean            =   1.2621877218537E-02
(PID.TID 0000.0001) %MON seaice_hsnow_sd              =   6.7937699333604E-02
(PID.TID 0000.0001) %MON seaice_hsnow_del2            =   3.6750042227483E-04
(PID.TID 0000.0001) // =======================================================
(PID.TID 0000.0001) // End MONITOR SEAICE statistics
(PID.TID 0000.0001) // =======================================================
(PID.TID 0000.0001) // =======================================================
(PID.TID 0000.0001) // Begin MONITOR dynamic field statistics
(PID.TID 0000.0001) // =======================================================
(PID.TID 0000.0001) %MON time_tsnumber                =                174849
(PID.TID 0000.0001) %MON time_secondsf                =   7.8682050000000E+07
(PID.TID 0000.0001) %MON dynstat_eta_max              =   2.1882636496944E+00
(PID.TID 0000.0001) %MON dynstat_eta_min              =  -1.0561543659872E+01
(PID.TID 0000.0001) %MON dynstat_eta_mean             =   9.1262736295435E-02
(PID.TID 0000.0001) %MON dynstat_eta_sd               =   9.2188953214049E-01
(PID.TID 0000.0001) %MON dynstat_eta_del2             =   2.0113808519578E-03
(PID.TID 0000.0001) %MON dynstat_uvel_max             =   1.9560228638742E+00
(PID.TID 0000.0001) %MON dynstat_uvel_min             =  -2.4339618709528E+00
(PID.TID 0000.0001) %MON dynstat_uvel_mean            =   5.8794504233193E-03
(PID.TID 0000.0001) %MON dynstat_uvel_sd              =   3.6056546183236E-02
(PID.TID 0000.0001) %MON dynstat_uvel_del2            =   3.9119570394183E-05
(PID.TID 0000.0001) %MON dynstat_vvel_max             =   1.7188231913134E+00
(PID.TID 0000.0001) %MON dynstat_vvel_min             =  -2.0760430064351E+00
(PID.TID 0000.0001) %MON dynstat_vvel_mean            =   3.8968113334995E-03
(PID.TID 0000.0001) %MON dynstat_vvel_sd              =   3.5875694912900E-02
(PID.TID 0000.0001) %MON dynstat_vvel_del2            =   3.7616881254252E-05
(PID.TID 0000.0001) %MON dynstat_wvel_max             =   8.5005034951688E-03
(PID.TID 0000.0001) %MON dynstat_wvel_min             =  -7.6428772429054E-03
(PID.TID 0000.0001) %MON dynstat_wvel_mean            =   4.1635762145777E-07
(PID.TID 0000.0001) %MON dynstat_wvel_sd              =   1.4604824166333E-04
(PID.TID 0000.0001) %MON dynstat_wvel_del2            =   3.2223293644984E-07
(PID.TID 0000.0001) %MON dynstat_theta_max            =   3.2436317295297E+01
(PID.TID 0000.0001) %MON dynstat_theta_min            =  -2.0458041086802E+00
(PID.TID 0000.0001) %MON dynstat_theta_mean           =   3.5918957578041E+00
(PID.TID 0000.0001) %MON dynstat_theta_sd             =   4.4417387179099E+00
(PID.TID 0000.0001) %MON dynstat_theta_del2           =   1.2669429736360E-04
(PID.TID 0000.0001) %MON dynstat_salt_max             =   4.0655989614625E+01
(PID.TID 0000.0001) %MON dynstat_salt_min             =   1.5969798745294E+01
(PID.TID 0000.0001) %MON dynstat_salt_mean            =   3.4724792799430E+01
(PID.TID 0000.0001) %MON dynstat_salt_sd              =   3.7974079564430E-01
(PID.TID 0000.0001) %MON dynstat_salt_del2            =   6.4222084736268E-05
(PID.TID 0000.0001) %MON dynstat_sst_max              =   3.2436317295297E+01
(PID.TID 0000.0001) %MON dynstat_sst_min              =  -2.0458041086802E+00
(PID.TID 0000.0001) %MON dynstat_sst_mean             =   1.8176423596810E+01
(PID.TID 0000.0001) %MON dynstat_sst_sd               =   1.0200019538684E+01
(PID.TID 0000.0001) %MON dynstat_sst_del2             =   1.1042689233958E-03
(PID.TID 0000.0001) %MON dynstat_sss_max              =   3.9463220250942E+01
(PID.TID 0000.0001) %MON dynstat_sss_min              =   1.5969798745294E+01
(PID.TID 0000.0001) %MON dynstat_sss_mean             =   3.4642207038600E+01
(PID.TID 0000.0001) %MON dynstat_sss_sd               =   1.3016832250311E+00
(PID.TID 0000.0001) %MON dynstat_sss_del2             =   1.4707325677571E-03
(PID.TID 0000.0001) %MON forcing_qnet_max             =   7.9610090021416E+02
(PID.TID 0000.0001) %MON forcing_qnet_min             =  -3.0688076171875E+03
(PID.TID 0000.0001) %MON forcing_qnet_mean            =   3.9694747318601E+01
(PID.TID 0000.0001) %MON forcing_qnet_sd              =   1.9931634686874E+02
(PID.TID 0000.0001) %MON forcing_qnet_del2            =   4.0484989720241E-01
(PID.TID 0000.0001) %MON forcing_qsw_max              =   0.0000000000000E+00
(PID.TID 0000.0001) %MON forcing_qsw_min              =  -1.1204865897594E+02
(PID.TID 0000.0001) %MON forcing_qsw_mean             =  -1.4517699081542E+01
(PID.TID 0000.0001) %MON forcing_qsw_sd               =   2.6648459513585E+01
(PID.TID 0000.0001) %MON forcing_qsw_del2             =   1.9823796141025E-02
(PID.TID 0000.0001) %MON forcing_empmr_max            =   1.8413085490465E-02
(PID.TID 0000.0001) %MON forcing_empmr_min            =  -4.4386770576239E-02
(PID.TID 0000.0001) %MON forcing_empmr_mean           =  -2.5192264109572E-06
(PID.TID 0000.0001) %MON forcing_empmr_sd             =   3.1211717515449E-04
(PID.TID 0000.0001) %MON forcing_empmr_del2           =   3.4395377806599E-06
(PID.TID 0000.0001) %MON forcing_fu_max               =   8.2188960909843E-01
(PID.TID 0000.0001) %MON forcing_fu_min               =  -1.3181612497490E+00
(PID.TID 0000.0001) %MON forcing_fu_mean              =   1.1714015371165E-02
(PID.TID 0000.0001) %MON forcing_fu_sd                =   1.2642589155180E-01
(PID.TID 0000.0001) %MON forcing_fu_del2              =   1.6911202213093E-04
(PID.TID 0000.0001) %MON forcing_fv_max               =   1.0018363992807E+00
(PID.TID 0000.0001) %MON forcing_fv_min               =  -1.0575300498461E+00
(PID.TID 0000.0001) %MON forcing_fv_mean              =  -8.0840748536728E-04
(PID.TID 0000.0001) %MON forcing_fv_sd                =   1.1320879905757E-01
(PID.TID 0000.0001) %MON forcing_fv_del2              =   1.5043746027982E-04
(PID.TID 0000.0001) %MON trAdv_CFL_u_max              =   2.5105486558415E-02
(PID.TID 0000.0001) %MON trAdv_CFL_v_max              =   1.8043826513471E-02
(PID.TID 0000.0001) %MON trAdv_CFL_w_max              =   8.2251959361239E-02
(PID.TID 0000.0001) %MON advcfl_uvel_max              =   2.5441307413216E-02
(PID.TID 0000.0001) %MON advcfl_vvel_max              =   1.7728300894205E-02
(PID.TID 0000.0001) %MON advcfl_wvel_max              =   7.9109974275030E-02
(PID.TID 0000.0001) %MON advcfl_W_hf_max              =   8.2997673532410E-02
(PID.TID 0000.0001) %MON pe_b_mean                    =   2.6029081701069E-03
(PID.TID 0000.0001) %MON ke_max                       =   2.0597180682499E+00
(PID.TID 0000.0001) %MON ke_mean                      =   1.2714818744963E-03
(PID.TID 0000.0001) %MON ke_vol                       =   1.3350064351420E+18
(PID.TID 0000.0001) %MON vort_r_min                   =  -8.5962468221356E-05
(PID.TID 0000.0001) %MON vort_r_max                   =   9.1764831079640E-05
(PID.TID 0000.0001) %MON vort_a_mean                  =  -1.9725081359822E-05
(PID.TID 0000.0001) %MON vort_a_sd                    =   7.4541007576756E-05
(PID.TID 0000.0001) %MON vort_p_mean                  =  -2.1669086761457E-05
(PID.TID 0000.0001) %MON vort_p_sd                    =   9.3616377356666E-05
(PID.TID 0000.0001) %MON surfExpan_theta_mean         =   1.6685927907403E-05
(PID.TID 0000.0001) %MON surfExpan_salt_mean          =   5.4691983895531E-06
(PID.TID 0000.0001) // =======================================================
(PID.TID 0000.0001) // End MONITOR dynamic field statistics
(PID.TID 0000.0001) // =======================================================
(PID.TID 0000.0001) // =======================================================
(PID.TID 0000.0001) // Begin MONITOR SEAICE statistics
(PID.TID 0000.0001) // =======================================================
(PID.TID 0000.0001) %MON seaice_tsnumber              =                174849
(PID.TID 0000.0001) %MON seaice_time_sec              =   7.8682050000000E+07
(PID.TID 0000.0001) %MON seaice_uice_max              =   1.2881057683458E+00
(PID.TID 0000.0001) %MON seaice_uice_min              =  -1.0361459862605E+00
(PID.TID 0000.0001) %MON seaice_uice_mean             =   8.3691322839200E-03
(PID.TID 0000.0001) %MON seaice_uice_sd               =   1.5075600673108E-01
(PID.TID 0000.0001) %MON seaice_uice_del2             =   3.5491175770983E-04
(PID.TID 0000.0001) %MON seaice_vice_max              =   1.0232485178504E+00
(PID.TID 0000.0001) %MON seaice_vice_min              =  -1.4790277102694E+00
(PID.TID 0000.0001) %MON seaice_vice_mean             =  -1.8041343774220E-02
(PID.TID 0000.0001) %MON seaice_vice_sd               =   1.6140061591279E-01
(PID.TID 0000.0001) %MON seaice_vice_del2             =   3.3779003570293E-04
(PID.TID 0000.0001) %MON seaice_area_max              =   1.0025443119018E+00
(PID.TID 0000.0001) %MON seaice_area_min              =   0.0000000000000E+00
(PID.TID 0000.0001) %MON seaice_area_mean             =   5.7531642896556E-02
(PID.TID 0000.0001) %MON seaice_area_sd               =   2.2087386818448E-01
(PID.TID 0000.0001) %MON seaice_area_del2             =   2.8765084280189E-04
(PID.TID 0000.0001) %MON seaice_heff_max              =   9.9477034153037E+00
(PID.TID 0000.0001) %MON seaice_heff_min              =   0.0000000000000E+00
(PID.TID 0000.0001) %MON seaice_heff_mean             =   1.4947207178291E-01
(PID.TID 0000.0001) %MON seaice_heff_sd               =   7.1985071286492E-01
(PID.TID 0000.0001) %MON seaice_heff_del2             =   1.3525230498456E-03
(PID.TID 0000.0001) %MON seaice_hsnow_max             =   3.2857518882887E+00
(PID.TID 0000.0001) %MON seaice_hsnow_min             =   0.0000000000000E+00
(PID.TID 0000.0001) %MON seaice_hsnow_mean            =   1.2621327724063E-02
(PID.TID 0000.0001) %MON seaice_hsnow_sd              =   6.7929110635912E-02
(PID.TID 0000.0001) %MON seaice_hsnow_del2            =   3.6722916714824E-04
(PID.TID 0000.0001) // =======================================================
(PID.TID 0000.0001) // End MONITOR SEAICE statistics
(PID.TID 0000.0001) // =======================================================
(PID.TID 0000.0001) // =======================================================
(PID.TID 0000.0001) // Begin MONITOR dynamic field statistics
(PID.TID 0000.0001) // =======================================================
(PID.TID 0000.0001) %MON time_tsnumber                =                174850
(PID.TID 0000.0001) %MON time_secondsf                =   7.8682500000000E+07
(PID.TID 0000.0001) %MON dynstat_eta_max              =   2.2428050493547E+00
(PID.TID 0000.0001) %MON dynstat_eta_min              =  -1.0564100911997E+01
(PID.TID 0000.0001) %MON dynstat_eta_mean             =   9.1331927390967E-02
(PID.TID 0000.0001) %MON dynstat_eta_sd               =   9.2243063033029E-01
(PID.TID 0000.0001) %MON dynstat_eta_del2             =   2.0114303621460E-03
(PID.TID 0000.0001) %MON dynstat_uvel_max             =   1.9457628791012E+00
(PID.TID 0000.0001) %MON dynstat_uvel_min             =  -2.4290789034214E+00
(PID.TID 0000.0001) %MON dynstat_uvel_mean            =   5.9945190860872E-03
(PID.TID 0000.0001) %MON dynstat_uvel_sd              =   3.6228827429983E-02
(PID.TID 0000.0001) %MON dynstat_uvel_del2            =   3.9195632075846E-05
(PID.TID 0000.0001) %MON dynstat_vvel_max             =   1.7189032423223E+00
(PID.TID 0000.0001) %MON dynstat_vvel_min             =  -2.0718516147391E+00
(PID.TID 0000.0001) %MON dynstat_vvel_mean            =   3.8949240841229E-03
(PID.TID 0000.0001) %MON dynstat_vvel_sd              =   3.6066352903307E-02
(PID.TID 0000.0001) %MON dynstat_vvel_del2            =   3.7700663630235E-05
(PID.TID 0000.0001) %MON dynstat_wvel_max             =   8.5244533900480E-03
(PID.TID 0000.0001) %MON dynstat_wvel_min             =  -7.6457044856176E-03
(PID.TID 0000.0001) %MON dynstat_wvel_mean            =   4.1291429423216E-07
(PID.TID 0000.0001) %MON dynstat_wvel_sd              =   1.4686714723984E-04
(PID.TID 0000.0001) %MON dynstat_wvel_del2            =   3.2353636692308E-07
(PID.TID 0000.0001) %MON dynstat_theta_max            =   3.2435502421530E+01
(PID.TID 0000.0001) %MON dynstat_theta_min            =  -2.0458928230730E+00
(PID.TID 0000.0001) %MON dynstat_theta_mean           =   3.5918927854498E+00
(PID.TID 0000.0001) %MON dynstat_theta_sd             =   4.4417290825048E+00
(PID.TID 0000.0001) %MON dynstat_theta_del2           =   1.2673736872748E-04
(PID.TID 0000.0001) %MON dynstat_salt_max             =   4.0655989614463E+01
(PID.TID 0000.0001) %MON dynstat_salt_min             =   1.5968523918052E+01
(PID.TID 0000.0001) %MON dynstat_salt_mean            =   3.4724792757688E+01
(PID.TID 0000.0001) %MON dynstat_salt_sd              =   3.7974054692702E-01
(PID.TID 0000.0001) %MON dynstat_salt_del2            =   6.4189195448314E-05
(PID.TID 0000.0001) %MON dynstat_sst_max              =   3.2435502421530E+01
(PID.TID 0000.0001) %MON dynstat_sst_min              =  -2.0458928230730E+00
(PID.TID 0000.0001) %MON dynstat_sst_mean             =   1.8176194104517E+01
(PID.TID 0000.0001) %MON dynstat_sst_sd               =   1.0200157069687E+01
(PID.TID 0000.0001) %MON dynstat_sst_del2             =   1.1043870831797E-03
(PID.TID 0000.0001) %MON dynstat_sss_max              =   3.9463182349796E+01
(PID.TID 0000.0001) %MON dynstat_sss_min              =   1.5968523918052E+01
(PID.TID 0000.0001) %MON dynstat_sss_mean             =   3.4642181030195E+01
(PID.TID 0000.0001) %MON dynstat_sss_sd               =   1.3017430537375E+00
(PID.TID 0000.0001) %MON dynstat_sss_del2             =   1.4707294686849E-03
(PID.TID 0000.0001) %MON forcing_qnet_max             =   8.1275846681495E+02
(PID.TID 0000.0001) %MON forcing_qnet_min             =  -1.2867716877866E+03
(PID.TID 0000.0001) %MON forcing_qnet_mean            =   3.9659030822378E+01
(PID.TID 0000.0001) %MON forcing_qnet_sd              =   1.9878498911938E+02
(PID.TID 0000.0001) %MON forcing_qnet_del2            =   3.9043220280822E-01
(PID.TID 0000.0001) %MON forcing_qsw_max              =   0.0000000000000E+00
(PID.TID 0000.0001) %MON forcing_qsw_min              =  -1.1193208197289E+02
(PID.TID 0000.0001) %MON forcing_qsw_mean             =  -1.4503172223434E+01
(PID.TID 0000.0001) %MON forcing_qsw_sd               =   2.6476492446992E+01
(PID.TID 0000.0001) %MON forcing_qsw_del2             =   1.9841565463815E-02
(PID.TID 0000.0001) %MON forcing_empmr_max            =   1.8685439601541E-02
(PID.TID 0000.0001) %MON forcing_empmr_min            =  -4.6329360455275E-02
(PID.TID 0000.0001) %MON forcing_empmr_mean           =  -2.0020532169440E-06
(PID.TID 0000.0001) %MON forcing_empmr_sd             =   3.1566460266612E-04
(PID.TID 0000.0001) %MON forcing_empmr_del2           =   3.4941445465869E-06
(PID.TID 0000.0001) %MON forcing_fu_max               =   8.2419201731682E-01
(PID.TID 0000.0001) %MON forcing_fu_min               =  -1.3238295477259E+00
(PID.TID 0000.0001) %MON forcing_fu_mean              =   1.1672665520874E-02
(PID.TID 0000.0001) %MON forcing_fu_sd                =   1.2641550430346E-01
(PID.TID 0000.0001) %MON forcing_fu_del2              =   1.6952052067372E-04
(PID.TID 0000.0001) %MON forcing_fv_max               =   1.0063077174277E+00
(PID.TID 0000.0001) %MON forcing_fv_min               =  -1.1281410098103E+00
(PID.TID 0000.0001) %MON forcing_fv_mean              =  -7.7615695244192E-04
(PID.TID 0000.0001) %MON forcing_fv_sd                =   1.1337413256452E-01
(PID.TID 0000.0001) %MON forcing_fv_del2              =   1.5066220720729E-04
(PID.TID 0000.0001) %MON trAdv_CFL_u_max              =   2.5055120413741E-02
(PID.TID 0000.0001) %MON trAdv_CFL_v_max              =   1.7999459379303E-02
(PID.TID 0000.0001) %MON trAdv_CFL_w_max              =   8.3371479477189E-02
(PID.TID 0000.0001) %MON advcfl_uvel_max              =   2.5390267551196E-02
(PID.TID 0000.0001) %MON advcfl_vvel_max              =   1.7684709591454E-02
(PID.TID 0000.0001) %MON advcfl_wvel_max              =   7.9672423540272E-02
(PID.TID 0000.0001) %MON advcfl_W_hf_max              =   8.3575888593358E-02
(PID.TID 0000.0001) %MON pe_b_mean                    =   2.6049942657310E-03
(PID.TID 0000.0001) %MON ke_max                       =   2.0510609339907E+00
(PID.TID 0000.0001) %MON ke_mean                      =   1.2847523325535E-03
(PID.TID 0000.0001) %MON ke_vol                       =   1.3350064351420E+18
(PID.TID 0000.0001) %MON vort_r_min                   =  -8.5775414497227E-05
(PID.TID 0000.0001) %MON vort_r_max                   =   9.1568568018288E-05
(PID.TID 0000.0001) %MON vort_a_mean                  =  -1.9725081429846E-05
(PID.TID 0000.0001) %MON vort_a_sd                    =   7.4541043621122E-05
(PID.TID 0000.0001) %MON vort_p_mean                  =  -2.1669086838383E-05
(PID.TID 0000.0001) %MON vort_p_sd                    =   9.3616485744158E-05
(PID.TID 0000.0001) %MON surfExpan_theta_mean         =   1.6142363113291E-05
(PID.TID 0000.0001) %MON surfExpan_salt_mean          =   5.2087396083629E-06
(PID.TID 0000.0001) // =======================================================
(PID.TID 0000.0001) // End MONITOR dynamic field statistics
(PID.TID 0000.0001) // =======================================================
(PID.TID 0000.0001) // =======================================================
(PID.TID 0000.0001) // Begin MONITOR SEAICE statistics
(PID.TID 0000.0001) // =======================================================
(PID.TID 0000.0001) %MON seaice_tsnumber              =                174850
(PID.TID 0000.0001) %MON seaice_time_sec              =   7.8682500000000E+07
(PID.TID 0000.0001) %MON seaice_uice_max              =   1.2858740227957E+00
(PID.TID 0000.0001) %MON seaice_uice_min              =  -1.0358803808634E+00
(PID.TID 0000.0001) %MON seaice_uice_mean             =   8.5388446016612E-03
(PID.TID 0000.0001) %MON seaice_uice_sd               =   1.5058870881050E-01
(PID.TID 0000.0001) %MON seaice_uice_del2             =   3.5526008985018E-04
(PID.TID 0000.0001) %MON seaice_vice_max              =   1.0254623158187E+00
(PID.TID 0000.0001) %MON seaice_vice_min              =  -1.4779091628408E+00
(PID.TID 0000.0001) %MON seaice_vice_mean             =  -1.7888898250577E-02
(PID.TID 0000.0001) %MON seaice_vice_sd               =   1.6131811576521E-01
(PID.TID 0000.0001) %MON seaice_vice_del2             =   3.3818124308368E-04
(PID.TID 0000.0001) %MON seaice_area_max              =   1.0025138607970E+00
(PID.TID 0000.0001) %MON seaice_area_min              =   0.0000000000000E+00
(PID.TID 0000.0001) %MON seaice_area_mean             =   5.7533602710559E-02
(PID.TID 0000.0001) %MON seaice_area_sd               =   2.2087094296319E-01
(PID.TID 0000.0001) %MON seaice_area_del2             =   2.8756487635949E-04
(PID.TID 0000.0001) %MON seaice_heff_max              =   9.9476919917624E+00
(PID.TID 0000.0001) %MON seaice_heff_min              =   0.0000000000000E+00
(PID.TID 0000.0001) %MON seaice_heff_mean             =   1.4946833114304E-01
(PID.TID 0000.0001) %MON seaice_heff_sd               =   7.1983892634733E-01
(PID.TID 0000.0001) %MON seaice_heff_del2             =   1.3518465509336E-03
(PID.TID 0000.0001) %MON seaice_hsnow_max             =   3.2857480028991E+00
(PID.TID 0000.0001) %MON seaice_hsnow_min             =   0.0000000000000E+00
(PID.TID 0000.0001) %MON seaice_hsnow_mean            =   1.2620783414439E-02
(PID.TID 0000.0001) %MON seaice_hsnow_sd              =   6.7920474152575E-02
(PID.TID 0000.0001) %MON seaice_hsnow_del2            =   3.6695638706450E-04
(PID.TID 0000.0001) // =======================================================
(PID.TID 0000.0001) // End MONITOR SEAICE statistics
(PID.TID 0000.0001) // =======================================================
(PID.TID 0000.0001) // =======================================================
(PID.TID 0000.0001) // Begin MONITOR dynamic field statistics
(PID.TID 0000.0001) // =======================================================
(PID.TID 0000.0001) %MON time_tsnumber                =                174851
(PID.TID 0000.0001) %MON time_secondsf                =   7.8682950000000E+07
(PID.TID 0000.0001) %MON dynstat_eta_max              =   2.2881906692544E+00
(PID.TID 0000.0001) %MON dynstat_eta_min              =  -1.0565558277896E+01
(PID.TID 0000.0001) %MON dynstat_eta_mean             =   9.1398922275152E-02
(PID.TID 0000.0001) %MON dynstat_eta_sd               =   9.2296787442797E-01
(PID.TID 0000.0001) %MON dynstat_eta_del2             =   2.0114791599141E-03
(PID.TID 0000.0001) %MON dynstat_uvel_max             =   1.9353862130683E+00
(PID.TID 0000.0001) %MON dynstat_uvel_min             =  -2.4243161298539E+00
(PID.TID 0000.0001) %MON dynstat_uvel_mean            =   6.1083392154827E-03
(PID.TID 0000.0001) %MON dynstat_uvel_sd              =   3.6402598863071E-02
(PID.TID 0000.0001) %MON dynstat_uvel_del2            =   3.9272800346043E-05
(PID.TID 0000.0001) %MON dynstat_vvel_max             =   1.7190801930793E+00
(PID.TID 0000.0001) %MON dynstat_vvel_min             =  -2.0675547662830E+00
(PID.TID 0000.0001) %MON dynstat_vvel_mean            =   3.8920685565716E-03
(PID.TID 0000.0001) %MON dynstat_vvel_sd              =   3.6260295435819E-02
(PID.TID 0000.0001) %MON dynstat_vvel_del2            =   3.7784991318713E-05
(PID.TID 0000.0001) %MON dynstat_wvel_max             =   8.5487069462825E-03
(PID.TID 0000.0001) %MON dynstat_wvel_min             =  -7.6486846073150E-03
(PID.TID 0000.0001) %MON dynstat_wvel_mean            =   4.0865563707538E-07
(PID.TID 0000.0001) %MON dynstat_wvel_sd              =   1.4769078282650E-04
(PID.TID 0000.0001) %MON dynstat_wvel_del2            =   3.2484433773273E-07
(PID.TID 0000.0001) %MON dynstat_theta_max            =   3.2434808618385E+01
(PID.TID 0000.0001) %MON dynstat_theta_min            =  -2.0459798578109E+00
(PID.TID 0000.0001) %MON dynstat_theta_mean           =   3.5918898684062E+00
(PID.TID 0000.0001) %MON dynstat_theta_sd             =   4.4417194484749E+00
(PID.TID 0000.0001) %MON dynstat_theta_del2           =   1.2677983946568E-04
(PID.TID 0000.0001) %MON dynstat_salt_max             =   4.0655989614302E+01
(PID.TID 0000.0001) %MON dynstat_salt_min             =   1.5967266648439E+01
(PID.TID 0000.0001) %MON dynstat_salt_mean            =   3.4724792728662E+01
(PID.TID 0000.0001) %MON dynstat_salt_sd              =   3.7974030389791E-01
(PID.TID 0000.0001) %MON dynstat_salt_del2            =   6.4155950556473E-05
(PID.TID 0000.0001) %MON dynstat_sst_max              =   3.2434808618385E+01
(PID.TID 0000.0001) %MON dynstat_sst_min              =  -2.0459798578109E+00
(PID.TID 0000.0001) %MON dynstat_sst_mean             =   1.8175965595946E+01
(PID.TID 0000.0001) %MON dynstat_sst_sd               =   1.0200290865509E+01
(PID.TID 0000.0001) %MON dynstat_sst_del2             =   1.1044045735778E-03
(PID.TID 0000.0001) %MON dynstat_sss_max              =   3.9463147457511E+01
(PID.TID 0000.0001) %MON dynstat_sss_min              =   1.5967266648439E+01
(PID.TID 0000.0001) %MON dynstat_sss_mean             =   3.4642154752503E+01
(PID.TID 0000.0001) %MON dynstat_sss_sd               =   1.3018012962392E+00
(PID.TID 0000.0001) %MON dynstat_sss_del2             =   1.4707100792794E-03
(PID.TID 0000.0001) %MON forcing_qnet_max             =   8.2326604518401E+02
(PID.TID 0000.0001) %MON forcing_qnet_min             =  -3.4820798339844E+03
(PID.TID 0000.0001) %MON forcing_qnet_mean            =   3.9803058229456E+01
(PID.TID 0000.0001) %MON forcing_qnet_sd              =   1.9887747610165E+02
(PID.TID 0000.0001) %MON forcing_qnet_del2            =   4.2518834012843E-01
(PID.TID 0000.0001) %MON forcing_qsw_max              =   0.0000000000000E+00
(PID.TID 0000.0001) %MON forcing_qsw_min              =  -1.1169844892681E+02
(PID.TID 0000.0001) %MON forcing_qsw_mean             =  -1.4481674416217E+01
(PID.TID 0000.0001) %MON forcing_qsw_sd               =   2.6295467964572E+01
(PID.TID 0000.0001) %MON forcing_qsw_del2             =   1.9857805741365E-02
(PID.TID 0000.0001) %MON forcing_empmr_max            =   1.9906254485250E-02
(PID.TID 0000.0001) %MON forcing_empmr_min            =  -4.2385332286358E-02
(PID.TID 0000.0001) %MON forcing_empmr_mean           =  -2.2753601572995E-06
(PID.TID 0000.0001) %MON forcing_empmr_sd             =   3.0849114136073E-04
(PID.TID 0000.0001) %MON forcing_empmr_del2           =   3.4512050520419E-06
(PID.TID 0000.0001) %MON forcing_fu_max               =   8.2206761837006E-01
(PID.TID 0000.0001) %MON forcing_fu_min               =  -1.3260911253828E+00
(PID.TID 0000.0001) %MON forcing_fu_mean              =   1.1633554915110E-02
(PID.TID 0000.0001) %MON forcing_fu_sd                =   1.2642028531914E-01
(PID.TID 0000.0001) %MON forcing_fu_del2              =   1.6988754409013E-04
(PID.TID 0000.0001) %MON forcing_fv_max               =   1.0141696928771E+00
(PID.TID 0000.0001) %MON forcing_fv_min               =  -1.2018123780747E+00
(PID.TID 0000.0001) %MON forcing_fv_mean              =  -7.4925832597070E-04
(PID.TID 0000.0001) %MON forcing_fv_sd                =   1.1354445245674E-01
(PID.TID 0000.0001) %MON forcing_fv_del2              =   1.5083627075753E-04
(PID.TID 0000.0001) %MON trAdv_CFL_u_max              =   2.5005994028810E-02
(PID.TID 0000.0001) %MON trAdv_CFL_v_max              =   1.7956138420665E-02
(PID.TID 0000.0001) %MON trAdv_CFL_w_max              =   8.4420105317181E-02
(PID.TID 0000.0001) %MON advcfl_uvel_max              =   2.5340484032434E-02
(PID.TID 0000.0001) %MON advcfl_vvel_max              =   1.7652256687447E-02
(PID.TID 0000.0001) %MON advcfl_wvel_max              =   8.0215878840605E-02
(PID.TID 0000.0001) %MON advcfl_W_hf_max              =   8.4420105317181E-02
(PID.TID 0000.0001) %MON pe_b_mean                    =   2.6069745653821E-03
(PID.TID 0000.0001) %MON ke_max                       =   2.0426718713764E+00
(PID.TID 0000.0001) %MON ke_mean                      =   1.2982554238815E-03
(PID.TID 0000.0001) %MON ke_vol                       =   1.3350064351420E+18
(PID.TID 0000.0001) %MON vort_r_min                   =  -8.5592350659309E-05
(PID.TID 0000.0001) %MON vort_r_max                   =   9.1378270520281E-05
(PID.TID 0000.0001) %MON vort_a_mean                  =  -1.9725081486352E-05
(PID.TID 0000.0001) %MON vort_a_sd                    =   7.4541079357948E-05
(PID.TID 0000.0001) %MON vort_p_mean                  =  -2.1669086900457E-05
(PID.TID 0000.0001) %MON vort_p_sd                    =   9.3616591517316E-05
(PID.TID 0000.0001) %MON surfExpan_theta_mean         =   1.5574898299255E-05
(PID.TID 0000.0001) %MON surfExpan_salt_mean          =   4.9140345004194E-06
(PID.TID 0000.0001) // =======================================================
(PID.TID 0000.0001) // End MONITOR dynamic field statistics
(PID.TID 0000.0001) // =======================================================
(PID.TID 0000.0001) // =======================================================
(PID.TID 0000.0001) // Begin MONITOR SEAICE statistics
(PID.TID 0000.0001) // =======================================================
(PID.TID 0000.0001) %MON seaice_tsnumber              =                174851
(PID.TID 0000.0001) %MON seaice_time_sec              =   7.8682950000000E+07
(PID.TID 0000.0001) %MON seaice_uice_max              =   1.2836406382436E+00
(PID.TID 0000.0001) %MON seaice_uice_min              =  -1.0365394195901E+00
(PID.TID 0000.0001) %MON seaice_uice_mean             =   8.7048677353131E-03
(PID.TID 0000.0001) %MON seaice_uice_sd               =   1.5042314828536E-01
(PID.TID 0000.0001) %MON seaice_uice_del2             =   3.5559947689335E-04
(PID.TID 0000.0001) %MON seaice_vice_max              =   1.0274696957771E+00
(PID.TID 0000.0001) %MON seaice_vice_min              =  -1.4768223269453E+00
(PID.TID 0000.0001) %MON seaice_vice_mean             =  -1.7730717301840E-02
(PID.TID 0000.0001) %MON seaice_vice_sd               =   1.6123522098913E-01
(PID.TID 0000.0001) %MON seaice_vice_del2             =   3.3855526041743E-04
(PID.TID 0000.0001) %MON seaice_area_max              =   1.0024825108143E+00
(PID.TID 0000.0001) %MON seaice_area_min              =   0.0000000000000E+00
(PID.TID 0000.0001) %MON seaice_area_mean             =   5.7535579247435E-02
(PID.TID 0000.0001) %MON seaice_area_sd               =   2.2086805508069E-01
(PID.TID 0000.0001) %MON seaice_area_del2             =   2.8747901105068E-04
(PID.TID 0000.0001) %MON seaice_heff_max              =   9.9476815219245E+00
(PID.TID 0000.0001) %MON seaice_heff_min              =   0.0000000000000E+00
(PID.TID 0000.0001) %MON seaice_heff_mean             =   1.4946459076246E-01
(PID.TID 0000.0001) %MON seaice_heff_sd               =   7.1982713355100E-01
(PID.TID 0000.0001) %MON seaice_heff_del2             =   1.3511687108937E-03
(PID.TID 0000.0001) %MON seaice_hsnow_max             =   3.2857443651734E+00
(PID.TID 0000.0001) %MON seaice_hsnow_min             =   0.0000000000000E+00
(PID.TID 0000.0001) %MON seaice_hsnow_mean            =   1.2620230849664E-02
(PID.TID 0000.0001) %MON seaice_hsnow_sd              =   6.7911770726569E-02
(PID.TID 0000.0001) %MON seaice_hsnow_del2            =   3.6668229216211E-04
(PID.TID 0000.0001) // =======================================================
(PID.TID 0000.0001) // End MONITOR SEAICE statistics
(PID.TID 0000.0001) // =======================================================
(PID.TID 0000.0001) // =======================================================
(PID.TID 0000.0001) // Begin MONITOR dynamic field statistics
(PID.TID 0000.0001) // =======================================================
(PID.TID 0000.0001) %MON time_tsnumber                =                174852
(PID.TID 0000.0001) %MON time_secondsf                =   7.8683400000000E+07
(PID.TID 0000.0001) %MON dynstat_eta_max              =   2.3241711041973E+00
(PID.TID 0000.0001) %MON dynstat_eta_min              =  -1.0565933180204E+01
(PID.TID 0000.0001) %MON dynstat_eta_mean             =   9.1463224048685E-02
(PID.TID 0000.0001) %MON dynstat_eta_sd               =   9.2350434184316E-01
(PID.TID 0000.0001) %MON dynstat_eta_del2             =   2.0115278356172E-03
(PID.TID 0000.0001) %MON dynstat_uvel_max             =   1.9248839026108E+00
(PID.TID 0000.0001) %MON dynstat_uvel_min             =  -2.4196688738899E+00
(PID.TID 0000.0001) %MON dynstat_uvel_mean            =   6.2205081847434E-03
(PID.TID 0000.0001) %MON dynstat_uvel_sd              =   3.6577850513312E-02
(PID.TID 0000.0001) %MON dynstat_uvel_del2            =   3.9351025781509E-05
(PID.TID 0000.0001) %MON dynstat_vvel_max             =   1.7193591108450E+00
(PID.TID 0000.0001) %MON dynstat_vvel_min             =  -2.0631458715521E+00
(PID.TID 0000.0001) %MON dynstat_vvel_mean            =   3.8883386179423E-03
(PID.TID 0000.0001) %MON dynstat_vvel_sd              =   3.6457331881127E-02
(PID.TID 0000.0001) %MON dynstat_vvel_del2            =   3.7870215386563E-05
(PID.TID 0000.0001) %MON dynstat_wvel_max             =   8.5732622419419E-03
(PID.TID 0000.0001) %MON dynstat_wvel_min             =  -7.6517062408513E-03
(PID.TID 0000.0001) %MON dynstat_wvel_mean            =   4.0387196940242E-07
(PID.TID 0000.0001) %MON dynstat_wvel_sd              =   1.4851780568650E-04
(PID.TID 0000.0001) %MON dynstat_wvel_del2            =   3.2615580478491E-07
(PID.TID 0000.0001) %MON dynstat_theta_max            =   3.2434238370504E+01
(PID.TID 0000.0001) %MON dynstat_theta_min            =  -2.0460651686618E+00
(PID.TID 0000.0001) %MON dynstat_theta_mean           =   3.5918870152548E+00
(PID.TID 0000.0001) %MON dynstat_theta_sd             =   4.4417098596836E+00
(PID.TID 0000.0001) %MON dynstat_theta_del2           =   1.2682280477583E-04
(PID.TID 0000.0001) %MON dynstat_salt_max             =   4.0655989614140E+01
(PID.TID 0000.0001) %MON dynstat_salt_min             =   1.5966029982936E+01
(PID.TID 0000.0001) %MON dynstat_salt_mean            =   3.4724792713786E+01
(PID.TID 0000.0001) %MON dynstat_salt_sd              =   3.7974008319189E-01
(PID.TID 0000.0001) %MON dynstat_salt_del2            =   6.4122789826901E-05
(PID.TID 0000.0001) %MON dynstat_sst_max              =   3.2434238370504E+01
(PID.TID 0000.0001) %MON dynstat_sst_min              =  -2.0460651686618E+00
(PID.TID 0000.0001) %MON dynstat_sst_mean             =   1.8175740492803E+01
(PID.TID 0000.0001) %MON dynstat_sst_sd               =   1.0200424192847E+01
(PID.TID 0000.0001) %MON dynstat_sst_del2             =   1.1044541458630E-03
(PID.TID 0000.0001) %MON dynstat_sss_max              =   3.9463115770236E+01
(PID.TID 0000.0001) %MON dynstat_sss_min              =   1.5966029982936E+01
(PID.TID 0000.0001) %MON dynstat_sss_mean             =   3.4642129142748E+01
(PID.TID 0000.0001) %MON dynstat_sss_sd               =   1.3018591753882E+00
(PID.TID 0000.0001) %MON dynstat_sss_del2             =   1.4706761502394E-03
(PID.TID 0000.0001) %MON forcing_qnet_max             =   8.3943039381651E+02
(PID.TID 0000.0001) %MON forcing_qnet_min             =  -2.5236911621094E+03
(PID.TID 0000.0001) %MON forcing_qnet_mean            =   3.9790281343954E+01
(PID.TID 0000.0001) %MON forcing_qnet_sd              =   1.9802394524748E+02
(PID.TID 0000.0001) %MON forcing_qnet_del2            =   4.0975622999544E-01
(PID.TID 0000.0001) %MON forcing_qsw_max              =   0.0000000000000E+00
(PID.TID 0000.0001) %MON forcing_qsw_min              =  -1.1139862275132E+02
(PID.TID 0000.0001) %MON forcing_qsw_mean             =  -1.4452623114871E+01
(PID.TID 0000.0001) %MON forcing_qsw_sd               =   2.6106275560354E+01
(PID.TID 0000.0001) %MON forcing_qsw_del2             =   1.9872402401573E-02
(PID.TID 0000.0001) %MON forcing_empmr_max            =   1.9304743036628E-02
(PID.TID 0000.0001) %MON forcing_empmr_min            =  -4.2435690760612E-02
(PID.TID 0000.0001) %MON forcing_empmr_mean           =  -1.9792474897859E-06
(PID.TID 0000.0001) %MON forcing_empmr_sd             =   3.0645383163666E-04
(PID.TID 0000.0001) %MON forcing_empmr_del2           =   3.4224033756302E-06
(PID.TID 0000.0001) %MON forcing_fu_max               =   8.2300868630409E-01
(PID.TID 0000.0001) %MON forcing_fu_min               =  -1.3294185616784E+00
(PID.TID 0000.0001) %MON forcing_fu_mean              =   1.1597760588901E-02
(PID.TID 0000.0001) %MON forcing_fu_sd                =   1.2649078723694E-01
(PID.TID 0000.0001) %MON forcing_fu_del2              =   1.7043999941510E-04
(PID.TID 0000.0001) %MON forcing_fv_max               =   1.0241027199403E+00
(PID.TID 0000.0001) %MON forcing_fv_min               =  -1.2774499871764E+00
(PID.TID 0000.0001) %MON forcing_fv_mean              =  -7.1282519424933E-04
(PID.TID 0000.0001) %MON forcing_fv_sd                =   1.1373326076092E-01
(PID.TID 0000.0001) %MON forcing_fv_del2              =   1.5107523525048E-04
(PID.TID 0000.0001) %MON trAdv_CFL_u_max              =   2.4958059168560E-02
(PID.TID 0000.0001) %MON trAdv_CFL_v_max              =   1.7913867438012E-02
(PID.TID 0000.0001) %MON trAdv_CFL_w_max              =   8.5400540621483E-02
(PID.TID 0000.0001) %MON advcfl_uvel_max              =   2.5291907976654E-02
(PID.TID 0000.0001) %MON advcfl_vvel_max              =   1.7648913190809E-02
(PID.TID 0000.0001) %MON advcfl_wvel_max              =   8.1077085243481E-02
(PID.TID 0000.0001) %MON advcfl_W_hf_max              =   8.5400540621483E-02
(PID.TID 0000.0001) %MON pe_b_mean                    =   2.6088436776418E-03
(PID.TID 0000.0001) %MON ke_max                       =   2.0345349806211E+00
(PID.TID 0000.0001) %MON ke_mean                      =   1.3119842197919E-03
(PID.TID 0000.0001) %MON ke_vol                       =   1.3350064351420E+18
(PID.TID 0000.0001) %MON vort_r_min                   =  -8.5413089724483E-05
(PID.TID 0000.0001) %MON vort_r_max                   =   9.1193565300864E-05
(PID.TID 0000.0001) %MON vort_a_mean                  =  -1.9725081529005E-05
(PID.TID 0000.0001) %MON vort_a_sd                    =   7.4541114763922E-05
(PID.TID 0000.0001) %MON vort_p_mean                  =  -2.1669086947314E-05
(PID.TID 0000.0001) %MON vort_p_sd                    =   9.3616694750001E-05
(PID.TID 0000.0001) %MON surfExpan_theta_mean         =   1.4987037793352E-05
(PID.TID 0000.0001) %MON surfExpan_salt_mean          =   4.6018061366069E-06
(PID.TID 0000.0001) // =======================================================
(PID.TID 0000.0001) // End MONITOR dynamic field statistics
(PID.TID 0000.0001) // =======================================================
(PID.TID 0000.0001) // =======================================================
(PID.TID 0000.0001) // Begin MONITOR SEAICE statistics
(PID.TID 0000.0001) // =======================================================
(PID.TID 0000.0001) %MON seaice_tsnumber              =                174852
(PID.TID 0000.0001) %MON seaice_time_sec              =   7.8683400000000E+07
(PID.TID 0000.0001) %MON seaice_uice_max              =   1.2814068332172E+00
(PID.TID 0000.0001) %MON seaice_uice_min              =  -1.0381333839111E+00
(PID.TID 0000.0001) %MON seaice_uice_mean             =   8.8719027801568E-03
(PID.TID 0000.0001) %MON seaice_uice_sd               =   1.5026692030059E-01
(PID.TID 0000.0001) %MON seaice_uice_del2             =   3.5599582282330E-04
(PID.TID 0000.0001) %MON seaice_vice_max              =   1.0292270665346E+00
(PID.TID 0000.0001) %MON seaice_vice_min              =  -1.4757840314808E+00
(PID.TID 0000.0001) %MON seaice_vice_mean             =  -1.7576797679129E-02
(PID.TID 0000.0001) %MON seaice_vice_sd               =   1.6116393978037E-01
(PID.TID 0000.0001) %MON seaice_vice_del2             =   3.3889006782358E-04
(PID.TID 0000.0001) %MON seaice_area_max              =   1.0024502887065E+00
(PID.TID 0000.0001) %MON seaice_area_min              =   0.0000000000000E+00
(PID.TID 0000.0001) %MON seaice_area_mean             =   5.7537578534783E-02
(PID.TID 0000.0001) %MON seaice_area_sd               =   2.2086521007214E-01
(PID.TID 0000.0001) %MON seaice_area_del2             =   2.8739379476264E-04
(PID.TID 0000.0001) %MON seaice_heff_max              =   9.9476710522195E+00
(PID.TID 0000.0001) %MON seaice_heff_min              =   0.0000000000000E+00
(PID.TID 0000.0001) %MON seaice_heff_mean             =   1.4946085313538E-01
(PID.TID 0000.0001) %MON seaice_heff_sd               =   7.1981534234657E-01
(PID.TID 0000.0001) %MON seaice_heff_del2             =   1.3504897189510E-03
(PID.TID 0000.0001) %MON seaice_hsnow_max             =   3.2857409578778E+00
(PID.TID 0000.0001) %MON seaice_hsnow_min             =   0.0000000000000E+00
(PID.TID 0000.0001) %MON seaice_hsnow_mean            =   1.2619672455594E-02
(PID.TID 0000.0001) %MON seaice_hsnow_sd              =   6.7902955476877E-02
(PID.TID 0000.0001) %MON seaice_hsnow_del2            =   3.6640636775559E-04
(PID.TID 0000.0001) // =======================================================
(PID.TID 0000.0001) // End MONITOR SEAICE statistics
(PID.TID 0000.0001) // =======================================================
(PID.TID 0000.0001) // =======================================================
(PID.TID 0000.0001) // Begin MONITOR dynamic field statistics
(PID.TID 0000.0001) // =======================================================
(PID.TID 0000.0001) %MON time_tsnumber                =                174853
(PID.TID 0000.0001) %MON time_secondsf                =   7.8683850000000E+07
(PID.TID 0000.0001) %MON dynstat_eta_max              =   2.3505786788089E+00
(PID.TID 0000.0001) %MON dynstat_eta_min              =  -1.0565250418290E+01
(PID.TID 0000.0001) %MON dynstat_eta_mean             =   9.1524941658940E-02
(PID.TID 0000.0001) %MON dynstat_eta_sd               =   9.2404373813272E-01
(PID.TID 0000.0001) %MON dynstat_eta_del2             =   2.0115769454930E-03
(PID.TID 0000.0001) %MON dynstat_uvel_max             =   1.9142478586965E+00
(PID.TID 0000.0001) %MON dynstat_uvel_min             =  -2.4151248924682E+00
(PID.TID 0000.0001) %MON dynstat_uvel_mean            =   6.3306331645675E-03
(PID.TID 0000.0001) %MON dynstat_uvel_sd              =   3.6754408006636E-02
(PID.TID 0000.0001) %MON dynstat_uvel_del2            =   3.9430267064731E-05
(PID.TID 0000.0001) %MON dynstat_vvel_max             =   1.7197437662186E+00
(PID.TID 0000.0001) %MON dynstat_vvel_min             =  -2.0586208446643E+00
(PID.TID 0000.0001) %MON dynstat_vvel_mean            =   3.8838336105586E-03
(PID.TID 0000.0001) %MON dynstat_vvel_sd              =   3.6657235282728E-02
(PID.TID 0000.0001) %MON dynstat_vvel_del2            =   3.7956053854431E-05
(PID.TID 0000.0001) %MON dynstat_wvel_max             =   8.5981112720191E-03
(PID.TID 0000.0001) %MON dynstat_wvel_min             =  -7.6546913228729E-03
(PID.TID 0000.0001) %MON dynstat_wvel_mean            =   3.9873293359312E-07
(PID.TID 0000.0001) %MON dynstat_wvel_sd              =   1.4934773826366E-04
(PID.TID 0000.0001) %MON dynstat_wvel_del2            =   3.2747054647792E-07
(PID.TID 0000.0001) %MON dynstat_theta_max            =   3.2433804626079E+01
(PID.TID 0000.0001) %MON dynstat_theta_min            =  -2.0461487853501E+00
(PID.TID 0000.0001) %MON dynstat_theta_mean           =   3.5918842755301E+00
(PID.TID 0000.0001) %MON dynstat_theta_sd             =   4.4417004647533E+00
(PID.TID 0000.0001) %MON dynstat_theta_del2           =   1.2686623473617E-04
(PID.TID 0000.0001) %MON dynstat_salt_max             =   4.0655989613978E+01
(PID.TID 0000.0001) %MON dynstat_salt_min             =   1.5964815358094E+01
(PID.TID 0000.0001) %MON dynstat_salt_mean            =   3.4724792711752E+01
(PID.TID 0000.0001) %MON dynstat_salt_sd              =   3.7973987561511E-01
(PID.TID 0000.0001) %MON dynstat_salt_del2            =   6.4089746820657E-05
(PID.TID 0000.0001) %MON dynstat_sst_max              =   3.2433804626079E+01
(PID.TID 0000.0001) %MON dynstat_sst_min              =  -2.0461487853501E+00
(PID.TID 0000.0001) %MON dynstat_sst_mean             =   1.8175515361899E+01
(PID.TID 0000.0001) %MON dynstat_sst_sd               =   1.0200543887109E+01
(PID.TID 0000.0001) %MON dynstat_sst_del2             =   1.1045175460360E-03
(PID.TID 0000.0001) %MON dynstat_sss_max              =   3.9463086359439E+01
(PID.TID 0000.0001) %MON dynstat_sss_min              =   1.5964815358094E+01
(PID.TID 0000.0001) %MON dynstat_sss_mean             =   3.4642103335461E+01
(PID.TID 0000.0001) %MON dynstat_sss_sd               =   1.3019164683331E+00
(PID.TID 0000.0001) %MON dynstat_sss_del2             =   1.4706523865806E-03
(PID.TID 0000.0001) %MON forcing_qnet_max             =   8.4875279063353E+02
(PID.TID 0000.0001) %MON forcing_qnet_min             =  -2.1592670898438E+03
(PID.TID 0000.0001) %MON forcing_qnet_mean            =   3.8063114827613E+01
(PID.TID 0000.0001) %MON forcing_qnet_sd              =   1.9696757530119E+02
(PID.TID 0000.0001) %MON forcing_qnet_del2            =   3.9980400993461E-01
(PID.TID 0000.0001) %MON forcing_qsw_max              =   0.0000000000000E+00
(PID.TID 0000.0001) %MON forcing_qsw_min              =  -1.1037181304027E+02
(PID.TID 0000.0001) %MON forcing_qsw_mean             =  -1.4570305655253E+01
(PID.TID 0000.0001) %MON forcing_qsw_sd               =   2.5724413485801E+01
(PID.TID 0000.0001) %MON forcing_qsw_del2             =   2.0107220845621E-02
(PID.TID 0000.0001) %MON forcing_empmr_max            =   1.9609374925494E-02
(PID.TID 0000.0001) %MON forcing_empmr_min            =  -4.2580313980579E-02
(PID.TID 0000.0001) %MON forcing_empmr_mean           =  -2.1035377763138E-06
(PID.TID 0000.0001) %MON forcing_empmr_sd             =   3.0672102042162E-04
(PID.TID 0000.0001) %MON forcing_empmr_del2           =   3.4196500362206E-06
(PID.TID 0000.0001) %MON forcing_fu_max               =   8.1898713111877E-01
(PID.TID 0000.0001) %MON forcing_fu_min               =  -1.3365294699646E+00
(PID.TID 0000.0001) %MON forcing_fu_mean              =   1.1567811878088E-02
(PID.TID 0000.0001) %MON forcing_fu_sd                =   1.2652601558241E-01
(PID.TID 0000.0001) %MON forcing_fu_del2              =   1.7092307569695E-04
(PID.TID 0000.0001) %MON forcing_fv_max               =   1.0322052348821E+00
(PID.TID 0000.0001) %MON forcing_fv_min               =  -1.3543029296111E+00
(PID.TID 0000.0001) %MON forcing_fv_mean              =  -6.7212892599943E-04
(PID.TID 0000.0001) %MON forcing_fv_sd                =   1.1392749161494E-01
(PID.TID 0000.0001) %MON forcing_fv_del2              =   1.5118611214981E-04
(PID.TID 0000.0001) %MON trAdv_CFL_u_max              =   2.4911189549990E-02
(PID.TID 0000.0001) %MON trAdv_CFL_v_max              =   1.7872649529542E-02
(PID.TID 0000.0001) %MON trAdv_CFL_w_max              =   8.6313427934764E-02
(PID.TID 0000.0001) %MON advcfl_uvel_max              =   2.5244411411646E-02
(PID.TID 0000.0001) %MON advcfl_vvel_max              =   1.7644350719742E-02
(PID.TID 0000.0001) %MON advcfl_wvel_max              =   8.1937058868842E-02
(PID.TID 0000.0001) %MON advcfl_W_hf_max              =   8.6313427934764E-02
(PID.TID 0000.0001) %MON pe_b_mean                    =   2.6106149229426E-03
(PID.TID 0000.0001) %MON ke_max                       =   2.0266249663808E+00
(PID.TID 0000.0001) %MON ke_mean                      =   1.3259244780058E-03
(PID.TID 0000.0001) %MON ke_vol                       =   1.3350064351420E+18
(PID.TID 0000.0001) %MON vort_r_min                   =  -8.5237266314490E-05
(PID.TID 0000.0001) %MON vort_r_max                   =   9.1013889744704E-05
(PID.TID 0000.0001) %MON vort_a_mean                  =  -1.9725081556963E-05
(PID.TID 0000.0001) %MON vort_a_sd                    =   7.4541149817210E-05
(PID.TID 0000.0001) %MON vort_p_mean                  =  -2.1669086978028E-05
(PID.TID 0000.0001) %MON vort_p_sd                    =   9.3616795521928E-05
(PID.TID 0000.0001) %MON surfExpan_theta_mean         =   1.4392744630732E-05
(PID.TID 0000.0001) %MON surfExpan_salt_mean          =   4.2856697153919E-06
(PID.TID 0000.0001) // =======================================================
(PID.TID 0000.0001) // End MONITOR dynamic field statistics
(PID.TID 0000.0001) // =======================================================
(PID.TID 0000.0001) // =======================================================
(PID.TID 0000.0001) // Begin MONITOR SEAICE statistics
(PID.TID 0000.0001) // =======================================================
(PID.TID 0000.0001) %MON seaice_tsnumber              =                174853
(PID.TID 0000.0001) %MON seaice_time_sec              =   7.8683850000000E+07
(PID.TID 0000.0001) %MON seaice_uice_max              =   1.2791798420252E+00
(PID.TID 0000.0001) %MON seaice_uice_min              =  -1.0406689017796E+00
(PID.TID 0000.0001) %MON seaice_uice_mean             =   9.0370864701331E-03
(PID.TID 0000.0001) %MON seaice_uice_sd               =   1.5011654533706E-01
(PID.TID 0000.0001) %MON seaice_uice_del2             =   3.5638196751243E-04
(PID.TID 0000.0001) %MON seaice_vice_max              =   1.0307594674735E+00
(PID.TID 0000.0001) %MON seaice_vice_min              =  -1.4747794199051E+00
(PID.TID 0000.0001) %MON seaice_vice_mean             =  -1.7422027965709E-02
(PID.TID 0000.0001) %MON seaice_vice_sd               =   1.6109798154858E-01
(PID.TID 0000.0001) %MON seaice_vice_del2             =   3.3923808610052E-04
(PID.TID 0000.0001) %MON seaice_area_max              =   1.0024164987089E+00
(PID.TID 0000.0001) %MON seaice_area_min              =   0.0000000000000E+00
(PID.TID 0000.0001) %MON seaice_area_mean             =   5.7539580431294E-02
(PID.TID 0000.0001) %MON seaice_area_sd               =   2.2086236270449E-01
(PID.TID 0000.0001) %MON seaice_area_del2             =   2.8730958654486E-04
(PID.TID 0000.0001) %MON seaice_heff_max              =   9.9476605824862E+00
(PID.TID 0000.0001) %MON seaice_heff_min              =   0.0000000000000E+00
(PID.TID 0000.0001) %MON seaice_heff_mean             =   1.4945711442829E-01
(PID.TID 0000.0001) %MON seaice_heff_sd               =   7.1980355926990E-01
(PID.TID 0000.0001) %MON seaice_heff_del2             =   1.3498102445467E-03
(PID.TID 0000.0001) %MON seaice_hsnow_max             =   3.2857375501254E+00
(PID.TID 0000.0001) %MON seaice_hsnow_min             =   0.0000000000000E+00
(PID.TID 0000.0001) %MON seaice_hsnow_mean            =   1.2619106096329E-02
(PID.TID 0000.0001) %MON seaice_hsnow_sd              =   6.7894110003430E-02
(PID.TID 0000.0001) %MON seaice_hsnow_del2            =   3.6612948422034E-04
(PID.TID 0000.0001) // =======================================================
(PID.TID 0000.0001) // End MONITOR SEAICE statistics
(PID.TID 0000.0001) // =======================================================
(PID.TID 0000.0001) // =======================================================
(PID.TID 0000.0001) // Begin MONITOR dynamic field statistics
(PID.TID 0000.0001) // =======================================================
(PID.TID 0000.0001) %MON time_tsnumber                =                174854
(PID.TID 0000.0001) %MON time_secondsf                =   7.8684300000000E+07
(PID.TID 0000.0001) %MON dynstat_eta_max              =   2.3673258271873E+00
(PID.TID 0000.0001) %MON dynstat_eta_min              =  -1.0563541416139E+01
(PID.TID 0000.0001) %MON dynstat_eta_mean             =   9.1584191699466E-02
(PID.TID 0000.0001) %MON dynstat_eta_sd               =   9.2459000456226E-01
(PID.TID 0000.0001) %MON dynstat_eta_del2             =   2.0116256332963E-03
(PID.TID 0000.0001) %MON dynstat_uvel_max             =   1.9034731534051E+00
(PID.TID 0000.0001) %MON dynstat_uvel_min             =  -2.4106683733561E+00
(PID.TID 0000.0001) %MON dynstat_uvel_mean            =   6.4383408834615E-03
(PID.TID 0000.0001) %MON dynstat_uvel_sd              =   3.6932434840375E-02
(PID.TID 0000.0001) %MON dynstat_uvel_del2            =   3.9510633277041E-05
(PID.TID 0000.0001) %MON dynstat_vvel_max             =   1.7202383688220E+00
(PID.TID 0000.0001) %MON dynstat_vvel_min             =  -2.0539821784586E+00
(PID.TID 0000.0001) %MON dynstat_vvel_mean            =   3.8786547382157E-03
(PID.TID 0000.0001) %MON dynstat_vvel_sd              =   3.6859829976565E-02
(PID.TID 0000.0001) %MON dynstat_vvel_del2            =   3.8042850776374E-05
(PID.TID 0000.0001) %MON dynstat_wvel_max             =   8.6232398971385E-03
(PID.TID 0000.0001) %MON dynstat_wvel_min             =  -7.6575711342569E-03
(PID.TID 0000.0001) %MON dynstat_wvel_mean            =   3.9377946378065E-07
(PID.TID 0000.0001) %MON dynstat_wvel_sd              =   1.5018026776397E-04
(PID.TID 0000.0001) %MON dynstat_wvel_del2            =   3.2878785177188E-07
(PID.TID 0000.0001) %MON dynstat_theta_max            =   3.2433522159674E+01
(PID.TID 0000.0001) %MON dynstat_theta_min            =  -2.0462306775860E+00
(PID.TID 0000.0001) %MON dynstat_theta_mean           =   3.5918816159033E+00
(PID.TID 0000.0001) %MON dynstat_theta_sd             =   4.4416911943142E+00
(PID.TID 0000.0001) %MON dynstat_theta_del2           =   1.2691058499106E-04
(PID.TID 0000.0001) %MON dynstat_salt_max             =   4.0655989613817E+01
(PID.TID 0000.0001) %MON dynstat_salt_min             =   1.5963624082502E+01
(PID.TID 0000.0001) %MON dynstat_salt_mean            =   3.4724792722760E+01
(PID.TID 0000.0001) %MON dynstat_salt_sd              =   3.7973969188217E-01
(PID.TID 0000.0001) %MON dynstat_salt_del2            =   6.4056972928292E-05
(PID.TID 0000.0001) %MON dynstat_sst_max              =   3.2433522159674E+01
(PID.TID 0000.0001) %MON dynstat_sst_min              =  -2.0462306775860E+00
(PID.TID 0000.0001) %MON dynstat_sst_mean             =   1.8175303446330E+01
(PID.TID 0000.0001) %MON dynstat_sst_sd               =   1.0200669136152E+01
(PID.TID 0000.0001) %MON dynstat_sst_del2             =   1.1045889027801E-03
(PID.TID 0000.0001) %MON dynstat_sss_max              =   3.9463058674724E+01
(PID.TID 0000.0001) %MON dynstat_sss_min              =   1.5963624082502E+01
(PID.TID 0000.0001) %MON dynstat_sss_mean             =   3.4642078331119E+01
(PID.TID 0000.0001) %MON dynstat_sss_sd               =   1.3019728645545E+00
(PID.TID 0000.0001) %MON dynstat_sss_del2             =   1.4706248269163E-03
(PID.TID 0000.0001) %MON forcing_qnet_max             =   1.1223828125000E+03
(PID.TID 0000.0001) %MON forcing_qnet_min             =  -1.3859442065071E+03
(PID.TID 0000.0001) %MON forcing_qnet_mean            =   3.7437109219949E+01
(PID.TID 0000.0001) %MON forcing_qnet_sd              =   1.9653337228987E+02
(PID.TID 0000.0001) %MON forcing_qnet_del2            =   3.9200750386322E-01
(PID.TID 0000.0001) %MON forcing_qsw_max              =   0.0000000000000E+00
(PID.TID 0000.0001) %MON forcing_qsw_min              =  -1.1009955057136E+02
(PID.TID 0000.0001) %MON forcing_qsw_mean             =  -1.4622072130610E+01
(PID.TID 0000.0001) %MON forcing_qsw_sd               =   2.5632638322886E+01
(PID.TID 0000.0001) %MON forcing_qsw_del2             =   2.0202262184493E-02
(PID.TID 0000.0001) %MON forcing_empmr_max            =   1.9914008677006E-02
(PID.TID 0000.0001) %MON forcing_empmr_min            =  -4.4416178017855E-02
(PID.TID 0000.0001) %MON forcing_empmr_mean           =  -1.9306211692063E-06
(PID.TID 0000.0001) %MON forcing_empmr_sd             =   3.1485696737119E-04
(PID.TID 0000.0001) %MON forcing_empmr_del2           =   3.5087142266490E-06
(PID.TID 0000.0001) %MON forcing_fu_max               =   8.1985896825790E-01
(PID.TID 0000.0001) %MON forcing_fu_min               =  -1.3374837690256E+00
(PID.TID 0000.0001) %MON forcing_fu_mean              =   1.1525781709995E-02
(PID.TID 0000.0001) %MON forcing_fu_sd                =   1.2654427383524E-01
(PID.TID 0000.0001) %MON forcing_fu_del2              =   1.7132262686938E-04
(PID.TID 0000.0001) %MON forcing_fv_max               =   1.0401751466008E+00
(PID.TID 0000.0001) %MON forcing_fv_min               =  -1.4294048874647E+00
(PID.TID 0000.0001) %MON forcing_fv_mean              =  -6.3397620019184E-04
(PID.TID 0000.0001) %MON forcing_fv_sd                =   1.1411688946305E-01
(PID.TID 0000.0001) %MON forcing_fv_del2              =   1.5152225599712E-04
(PID.TID 0000.0001) %MON trAdv_CFL_u_max              =   2.4865222075314E-02
(PID.TID 0000.0001) %MON trAdv_CFL_v_max              =   1.7832455195188E-02
(PID.TID 0000.0001) %MON trAdv_CFL_w_max              =   8.7158183217897E-02
(PID.TID 0000.0001) %MON advcfl_uvel_max              =   2.5197829057963E-02
(PID.TID 0000.0001) %MON advcfl_vvel_max              =   1.7638407305998E-02
(PID.TID 0000.0001) %MON advcfl_wvel_max              =   8.2730786553666E-02
(PID.TID 0000.0001) %MON advcfl_W_hf_max              =   8.7158183217897E-02
(PID.TID 0000.0001) %MON pe_b_mean                    =   2.6123009111254E-03
(PID.TID 0000.0001) %MON ke_max                       =   2.0189109954710E+00
(PID.TID 0000.0001) %MON ke_mean                      =   1.3400755213018E-03
(PID.TID 0000.0001) %MON ke_vol                       =   1.3350064351420E+18
(PID.TID 0000.0001) %MON vort_r_min                   =  -8.5064363826117E-05
(PID.TID 0000.0001) %MON vort_r_max                   =   9.0838553278612E-05
(PID.TID 0000.0001) %MON vort_a_mean                  =  -1.9725081570754E-05
(PID.TID 0000.0001) %MON vort_a_sd                    =   7.4541184507623E-05
(PID.TID 0000.0001) %MON vort_p_mean                  =  -2.1669086993178E-05
(PID.TID 0000.0001) %MON vort_p_sd                    =   9.3616893811983E-05
(PID.TID 0000.0001) %MON surfExpan_theta_mean         =   1.3814121862101E-05
(PID.TID 0000.0001) %MON surfExpan_salt_mean          =   3.9913778540615E-06
(PID.TID 0000.0001) // =======================================================
(PID.TID 0000.0001) // End MONITOR dynamic field statistics
(PID.TID 0000.0001) // =======================================================
(PID.TID 0000.0001) // =======================================================
(PID.TID 0000.0001) // Begin MONITOR SEAICE statistics
(PID.TID 0000.0001) // =======================================================
(PID.TID 0000.0001) %MON seaice_tsnumber              =                174854
(PID.TID 0000.0001) %MON seaice_time_sec              =   7.8684300000000E+07
(PID.TID 0000.0001) %MON seaice_uice_max              =   1.2772095569202E+00
(PID.TID 0000.0001) %MON seaice_uice_min              =  -1.0441475780079E+00
(PID.TID 0000.0001) %MON seaice_uice_mean             =   9.2082882616763E-03
(PID.TID 0000.0001) %MON seaice_uice_sd               =   1.4996261832433E-01
(PID.TID 0000.0001) %MON seaice_uice_del2             =   3.5677259924322E-04
(PID.TID 0000.0001) %MON seaice_vice_max              =   1.0317892584134E+00
(PID.TID 0000.0001) %MON seaice_vice_min              =  -1.4738592743200E+00
(PID.TID 0000.0001) %MON seaice_vice_mean             =  -1.7267307506564E-02
(PID.TID 0000.0001) %MON seaice_vice_sd               =   1.6103583387799E-01
(PID.TID 0000.0001) %MON seaice_vice_del2             =   3.3952104229280E-04
(PID.TID 0000.0001) %MON seaice_area_max              =   1.0023884602803E+00
(PID.TID 0000.0001) %MON seaice_area_min              =   0.0000000000000E+00
(PID.TID 0000.0001) %MON seaice_area_mean             =   5.7541592390930E-02
(PID.TID 0000.0001) %MON seaice_area_sd               =   2.2085953478640E-01
(PID.TID 0000.0001) %MON seaice_area_del2             =   2.8722568180539E-04
(PID.TID 0000.0001) %MON seaice_heff_max              =   9.9476558350184E+00
(PID.TID 0000.0001) %MON seaice_heff_min              =   0.0000000000000E+00
(PID.TID 0000.0001) %MON seaice_heff_mean             =   1.4945337963230E-01
(PID.TID 0000.0001) %MON seaice_heff_sd               =   7.1979180792329E-01
(PID.TID 0000.0001) %MON seaice_heff_del2             =   1.3491319680080E-03
(PID.TID 0000.0001) %MON seaice_hsnow_max             =   3.2857358679533E+00
(PID.TID 0000.0001) %MON seaice_hsnow_min             =   0.0000000000000E+00
(PID.TID 0000.0001) %MON seaice_hsnow_mean            =   1.2618543454366E-02
(PID.TID 0000.0001) %MON seaice_hsnow_sd              =   6.7885207215440E-02
(PID.TID 0000.0001) %MON seaice_hsnow_del2            =   3.6585190284894E-04
(PID.TID 0000.0001) // =======================================================
(PID.TID 0000.0001) // End MONITOR SEAICE statistics
(PID.TID 0000.0001) // =======================================================
(PID.TID 0000.0001) // =======================================================
(PID.TID 0000.0001) // Begin MONITOR dynamic field statistics
(PID.TID 0000.0001) // =======================================================
(PID.TID 0000.0001) %MON time_tsnumber                =                174855
(PID.TID 0000.0001) %MON time_secondsf                =   7.8684750000000E+07
(PID.TID 0000.0001) %MON dynstat_eta_max              =   2.3744066314660E+00
(PID.TID 0000.0001) %MON dynstat_eta_min              =  -1.0560838382907E+01
(PID.TID 0000.0001) %MON dynstat_eta_mean             =   9.1641427447153E-02
(PID.TID 0000.0001) %MON dynstat_eta_sd               =   9.2514688058113E-01
(PID.TID 0000.0001) %MON dynstat_eta_del2             =   2.0116742590308E-03
(PID.TID 0000.0001) %MON dynstat_uvel_max             =   1.8925552156597E+00
(PID.TID 0000.0001) %MON dynstat_uvel_min             =  -2.4062917339360E+00
(PID.TID 0000.0001) %MON dynstat_uvel_mean            =   6.5432730392293E-03
(PID.TID 0000.0001) %MON dynstat_uvel_sd              =   3.7111808674179E-02
(PID.TID 0000.0001) %MON dynstat_uvel_del2            =   3.9592125105937E-05
(PID.TID 0000.0001) %MON dynstat_vvel_max             =   1.7208453855642E+00
(PID.TID 0000.0001) %MON dynstat_vvel_min             =  -2.0492286043090E+00
(PID.TID 0000.0001) %MON dynstat_vvel_mean            =   3.8729038142347E-03
(PID.TID 0000.0001) %MON dynstat_vvel_sd              =   3.7064960756430E-02
(PID.TID 0000.0001) %MON dynstat_vvel_del2            =   3.8130398229173E-05
(PID.TID 0000.0001) %MON dynstat_wvel_max             =   8.6486339079986E-03
(PID.TID 0000.0001) %MON dynstat_wvel_min             =  -7.6602134475128E-03
(PID.TID 0000.0001) %MON dynstat_wvel_mean            =   3.8946602689480E-07
(PID.TID 0000.0001) %MON dynstat_wvel_sd              =   1.5101406436754E-04
(PID.TID 0000.0001) %MON dynstat_wvel_del2            =   3.3010708437927E-07
(PID.TID 0000.0001) %MON dynstat_theta_max            =   3.2433369070908E+01
(PID.TID 0000.0001) %MON dynstat_theta_min            =  -2.0463107636630E+00
(PID.TID 0000.0001) %MON dynstat_theta_mean           =   3.5918790257042E+00
(PID.TID 0000.0001) %MON dynstat_theta_sd             =   4.4416820099122E+00
(PID.TID 0000.0001) %MON dynstat_theta_del2           =   1.2695435359777E-04
(PID.TID 0000.0001) %MON dynstat_salt_max             =   4.0655989613655E+01
(PID.TID 0000.0001) %MON dynstat_salt_min             =   1.5962457287454E+01
(PID.TID 0000.0001) %MON dynstat_salt_mean            =   3.4724792746929E+01
(PID.TID 0000.0001) %MON dynstat_salt_sd              =   3.7973951231238E-01
(PID.TID 0000.0001) %MON dynstat_salt_del2            =   6.4024064131866E-05
(PID.TID 0000.0001) %MON dynstat_sst_max              =   3.2433369070908E+01
(PID.TID 0000.0001) %MON dynstat_sst_min              =  -2.0463107636630E+00
(PID.TID 0000.0001) %MON dynstat_sst_mean             =   1.8175093909529E+01
(PID.TID 0000.0001) %MON dynstat_sst_sd               =   1.0200789531223E+01
(PID.TID 0000.0001) %MON dynstat_sst_del2             =   1.1046309705832E-03
(PID.TID 0000.0001) %MON dynstat_sss_max              =   3.9463033961676E+01
(PID.TID 0000.0001) %MON dynstat_sss_min              =   1.5962457287454E+01
(PID.TID 0000.0001) %MON dynstat_sss_mean             =   3.4642053330785E+01
(PID.TID 0000.0001) %MON dynstat_sss_sd               =   1.3020269707903E+00
(PID.TID 0000.0001) %MON dynstat_sss_del2             =   1.4705814780802E-03
(PID.TID 0000.0001) %MON forcing_qnet_max             =   2.4721086425781E+03
(PID.TID 0000.0001) %MON forcing_qnet_min             =  -6.4230078125000E+03
(PID.TID 0000.0001) %MON forcing_qnet_mean            =   3.7082794813256E+01
(PID.TID 0000.0001) %MON forcing_qnet_sd              =   1.9883334990027E+02
(PID.TID 0000.0001) %MON forcing_qnet_del2            =   5.7207902089723E-01
(PID.TID 0000.0001) %MON forcing_qsw_max              =   0.0000000000000E+00
(PID.TID 0000.0001) %MON forcing_qsw_min              =  -1.0986966917373E+02
(PID.TID 0000.0001) %MON forcing_qsw_mean             =  -1.4665337105880E+01
(PID.TID 0000.0001) %MON forcing_qsw_sd               =   2.5538732643954E+01
(PID.TID 0000.0001) %MON forcing_qsw_del2             =   2.0293107536301E-02
(PID.TID 0000.0001) %MON forcing_empmr_max            =   2.7514882385731E-02
(PID.TID 0000.0001) %MON forcing_empmr_min            =  -4.4233720749617E-02
(PID.TID 0000.0001) %MON forcing_empmr_mean           =  -1.6561936758157E-06
(PID.TID 0000.0001) %MON forcing_empmr_sd             =   3.4005395542644E-04
(PID.TID 0000.0001) %MON forcing_empmr_del2           =   3.7648298608738E-06
(PID.TID 0000.0001) %MON forcing_fu_max               =   8.2247751951218E-01
(PID.TID 0000.0001) %MON forcing_fu_min               =  -1.3398071122091E+00
(PID.TID 0000.0001) %MON forcing_fu_mean              =   1.1481032850992E-02
(PID.TID 0000.0001) %MON forcing_fu_sd                =   1.2660263844351E-01
(PID.TID 0000.0001) %MON forcing_fu_del2              =   1.7174001687020E-04
(PID.TID 0000.0001) %MON forcing_fv_max               =   1.0447851678841E+00
(PID.TID 0000.0001) %MON forcing_fv_min               =  -1.4994637792131E+00
(PID.TID 0000.0001) %MON forcing_fv_mean              =  -5.9015826026564E-04
(PID.TID 0000.0001) %MON forcing_fv_sd                =   1.1433316178875E-01
(PID.TID 0000.0001) %MON forcing_fv_del2              =   1.5173715927529E-04
(PID.TID 0000.0001) %MON trAdv_CFL_u_max              =   2.4820078532417E-02
(PID.TID 0000.0001) %MON trAdv_CFL_v_max              =   1.7793183159441E-02
(PID.TID 0000.0001) %MON trAdv_CFL_w_max              =   8.7936921406798E-02
(PID.TID 0000.0001) %MON advcfl_uvel_max              =   2.5152081657295E-02
(PID.TID 0000.0001) %MON advcfl_vvel_max              =   1.7630921856254E-02
(PID.TID 0000.0001) %MON advcfl_wvel_max              =   8.3460345095821E-02
(PID.TID 0000.0001) %MON advcfl_W_hf_max              =   8.7936921406798E-02
(PID.TID 0000.0001) %MON pe_b_mean                    =   2.6139246778146E-03
(PID.TID 0000.0001) %MON ke_max                       =   2.0113708986484E+00
(PID.TID 0000.0001) %MON ke_mean                      =   1.3544271340422E-03
(PID.TID 0000.0001) %MON ke_vol                       =   1.3350064351420E+18
(PID.TID 0000.0001) %MON vort_r_min                   =  -8.4893921843328E-05
(PID.TID 0000.0001) %MON vort_r_max                   =   9.0667011315781E-05
(PID.TID 0000.0001) %MON vort_a_mean                  =  -1.9725081570470E-05
(PID.TID 0000.0001) %MON vort_a_sd                    =   7.4541218817470E-05
(PID.TID 0000.0001) %MON vort_p_mean                  =  -2.1669086992866E-05
(PID.TID 0000.0001) %MON vort_p_sd                    =   9.3616989696028E-05
(PID.TID 0000.0001) %MON surfExpan_theta_mean         =   1.3259738919098E-05
(PID.TID 0000.0001) %MON surfExpan_salt_mean          =   3.7387222614544E-06
(PID.TID 0000.0001) // =======================================================
(PID.TID 0000.0001) // End MONITOR dynamic field statistics
(PID.TID 0000.0001) // =======================================================
(PID.TID 0000.0001) // =======================================================
(PID.TID 0000.0001) // Begin MONITOR SEAICE statistics
(PID.TID 0000.0001) // =======================================================
(PID.TID 0000.0001) %MON seaice_tsnumber              =                174855
(PID.TID 0000.0001) %MON seaice_time_sec              =   7.8684750000000E+07
(PID.TID 0000.0001) %MON seaice_uice_max              =   1.2752428781588E+00
(PID.TID 0000.0001) %MON seaice_uice_min              =  -1.0485661204726E+00
(PID.TID 0000.0001) %MON seaice_uice_mean             =   9.3673551448385E-03
(PID.TID 0000.0001) %MON seaice_uice_sd               =   1.4982424825655E-01
(PID.TID 0000.0001) %MON seaice_uice_del2             =   3.5718610639073E-04
(PID.TID 0000.0001) %MON seaice_vice_max              =   1.0326838215767E+00
(PID.TID 0000.0001) %MON seaice_vice_min              =  -1.4729819933575E+00
(PID.TID 0000.0001) %MON seaice_vice_mean             =  -1.7108721044810E-02
(PID.TID 0000.0001) %MON seaice_vice_sd               =   1.6097861740472E-01
(PID.TID 0000.0001) %MON seaice_vice_del2             =   3.3980780435314E-04
(PID.TID 0000.0001) %MON seaice_area_max              =   1.0023530641670E+00
(PID.TID 0000.0001) %MON seaice_area_min              =   0.0000000000000E+00
(PID.TID 0000.0001) %MON seaice_area_mean             =   5.7543609551960E-02
(PID.TID 0000.0001) %MON seaice_area_sd               =   2.2085670088049E-01
(PID.TID 0000.0001) %MON seaice_area_del2             =   2.8714255053756E-04
(PID.TID 0000.0001) %MON seaice_heff_max              =   9.9476453655425E+00
(PID.TID 0000.0001) %MON seaice_heff_min              =   0.0000000000000E+00
(PID.TID 0000.0001) %MON seaice_heff_mean             =   1.4944964434840E-01
(PID.TID 0000.0001) %MON seaice_heff_sd               =   7.1978007173415E-01
(PID.TID 0000.0001) %MON seaice_heff_del2             =   1.3484552692834E-03
(PID.TID 0000.0001) %MON seaice_hsnow_max             =   3.2857319843327E+00
(PID.TID 0000.0001) %MON seaice_hsnow_min             =   0.0000000000000E+00
(PID.TID 0000.0001) %MON seaice_hsnow_mean            =   1.2617974916219E-02
(PID.TID 0000.0001) %MON seaice_hsnow_sd              =   6.7876239385761E-02
(PID.TID 0000.0001) %MON seaice_hsnow_del2            =   3.6557377204439E-04
(PID.TID 0000.0001) // =======================================================
(PID.TID 0000.0001) // End MONITOR SEAICE statistics
(PID.TID 0000.0001) // =======================================================
(PID.TID 0000.0001) // =======================================================
(PID.TID 0000.0001) // Begin MONITOR dynamic field statistics
(PID.TID 0000.0001) // =======================================================
(PID.TID 0000.0001) %MON time_tsnumber                =                174856
(PID.TID 0000.0001) %MON time_secondsf                =   7.8685200000000E+07
(PID.TID 0000.0001) %MON dynstat_eta_max              =   2.3718978628086E+00
(PID.TID 0000.0001) %MON dynstat_eta_min              =  -1.0557174462841E+01
(PID.TID 0000.0001) %MON dynstat_eta_mean             =   9.1697306983880E-02
(PID.TID 0000.0001) %MON dynstat_eta_sd               =   9.2571900783301E-01
(PID.TID 0000.0001) %MON dynstat_eta_del2             =   2.0117223018827E-03
(PID.TID 0000.0001) %MON dynstat_uvel_max             =   1.8814925578497E+00
(PID.TID 0000.0001) %MON dynstat_uvel_min             =  -2.4019745403602E+00
(PID.TID 0000.0001) %MON dynstat_uvel_mean            =   6.6450900125137E-03
(PID.TID 0000.0001) %MON dynstat_uvel_sd              =   3.7292543384325E-02
(PID.TID 0000.0001) %MON dynstat_uvel_del2            =   3.9674738867531E-05
(PID.TID 0000.0001) %MON dynstat_vvel_max             =   1.7215654118606E+00
(PID.TID 0000.0001) %MON dynstat_vvel_min             =  -2.0443544672715E+00
(PID.TID 0000.0001) %MON dynstat_vvel_mean            =   3.8666647900530E-03
(PID.TID 0000.0001) %MON dynstat_vvel_sd              =   3.7272344548048E-02
(PID.TID 0000.0001) %MON dynstat_vvel_del2            =   3.8219042018995E-05
(PID.TID 0000.0001) %MON dynstat_wvel_max             =   8.6742780287836E-03
(PID.TID 0000.0001) %MON dynstat_wvel_min             =  -7.6625687136531E-03
(PID.TID 0000.0001) %MON dynstat_wvel_mean            =   3.8535992666326E-07
(PID.TID 0000.0001) %MON dynstat_wvel_sd              =   1.5184836298140E-04
(PID.TID 0000.0001) %MON dynstat_wvel_del2            =   3.3142755398167E-07
(PID.TID 0000.0001) %MON dynstat_theta_max            =   3.2433371649226E+01
(PID.TID 0000.0001) %MON dynstat_theta_min            =  -2.0463886407552E+00
(PID.TID 0000.0001) %MON dynstat_theta_mean           =   3.5918764966839E+00
(PID.TID 0000.0001) %MON dynstat_theta_sd             =   4.4416728910528E+00
(PID.TID 0000.0001) %MON dynstat_theta_del2           =   1.2699870100690E-04
(PID.TID 0000.0001) %MON dynstat_salt_max             =   4.0655989613493E+01
(PID.TID 0000.0001) %MON dynstat_salt_min             =   1.5961317540249E+01
(PID.TID 0000.0001) %MON dynstat_salt_mean            =   3.4724792782354E+01
(PID.TID 0000.0001) %MON dynstat_salt_sd              =   3.7973936239244E-01
(PID.TID 0000.0001) %MON dynstat_salt_del2            =   6.3990919199220E-05
(PID.TID 0000.0001) %MON dynstat_sst_max              =   3.2433371649226E+01
(PID.TID 0000.0001) %MON dynstat_sst_min              =  -2.0463886407552E+00
(PID.TID 0000.0001) %MON dynstat_sst_mean             =   1.8174888617427E+01
(PID.TID 0000.0001) %MON dynstat_sst_sd               =   1.0200910249637E+01
(PID.TID 0000.0001) %MON dynstat_sst_del2             =   1.1046879025975E-03
(PID.TID 0000.0001) %MON dynstat_sss_max              =   3.9463011236126E+01
(PID.TID 0000.0001) %MON dynstat_sss_min              =   1.5961317540249E+01
(PID.TID 0000.0001) %MON dynstat_sss_mean             =   3.4642028550100E+01
(PID.TID 0000.0001) %MON dynstat_sss_sd               =   1.3020799414090E+00
(PID.TID 0000.0001) %MON dynstat_sss_del2             =   1.4705206974772E-03
(PID.TID 0000.0001) %MON forcing_qnet_max             =   8.4215630737763E+02
(PID.TID 0000.0001) %MON forcing_qnet_min             =  -4.3180322265625E+03
(PID.TID 0000.0001) %MON forcing_qnet_mean            =   3.6810075069918E+01
(PID.TID 0000.0001) %MON forcing_qnet_sd              =   1.9633575107615E+02
(PID.TID 0000.0001) %MON forcing_qnet_del2            =   4.8133613316943E-01
(PID.TID 0000.0001) %MON forcing_qsw_max              =   0.0000000000000E+00
(PID.TID 0000.0001) %MON forcing_qsw_min              =  -1.0955741197894E+02
(PID.TID 0000.0001) %MON forcing_qsw_mean             =  -1.4699953316033E+01
(PID.TID 0000.0001) %MON forcing_qsw_sd               =   2.5443341424337E+01
(PID.TID 0000.0001) %MON forcing_qsw_del2             =   2.0379531610512E-02
(PID.TID 0000.0001) %MON forcing_empmr_max            =   2.0454915240407E-02
(PID.TID 0000.0001) %MON forcing_empmr_min            =  -4.3074022978544E-02
(PID.TID 0000.0001) %MON forcing_empmr_mean           =  -2.3965702738682E-06
(PID.TID 0000.0001) %MON forcing_empmr_sd             =   3.0446255762136E-04
(PID.TID 0000.0001) %MON forcing_empmr_del2           =   3.4306394257579E-06
(PID.TID 0000.0001) %MON forcing_fu_max               =   8.1860166788101E-01
(PID.TID 0000.0001) %MON forcing_fu_min               =  -1.3462447182020E+00
(PID.TID 0000.0001) %MON forcing_fu_mean              =   1.1438883542212E-02
(PID.TID 0000.0001) %MON forcing_fu_sd                =   1.2662767824291E-01
(PID.TID 0000.0001) %MON forcing_fu_del2              =   1.7183048968550E-04
(PID.TID 0000.0001) %MON forcing_fv_max               =   1.0501609018642E+00
(PID.TID 0000.0001) %MON forcing_fv_min               =  -1.5611812201956E+00
(PID.TID 0000.0001) %MON forcing_fv_mean              =  -5.4781307568995E-04
(PID.TID 0000.0001) %MON forcing_fv_sd                =   1.1453002094780E-01
(PID.TID 0000.0001) %MON forcing_fv_del2              =   1.5190826575691E-04
(PID.TID 0000.0001) %MON trAdv_CFL_u_max              =   2.4775548153128E-02
(PID.TID 0000.0001) %MON trAdv_CFL_v_max              =   1.7754737872724E-02
(PID.TID 0000.0001) %MON trAdv_CFL_w_max              =   8.8655506574723E-02
(PID.TID 0000.0001) %MON advcfl_uvel_max              =   2.5106955622152E-02
(PID.TID 0000.0001) %MON advcfl_vvel_max              =   1.7621730668720E-02
(PID.TID 0000.0001) %MON advcfl_wvel_max              =   8.4131726111314E-02
(PID.TID 0000.0001) %MON advcfl_W_hf_max              =   8.8655506574723E-02
(PID.TID 0000.0001) %MON pe_b_mean                    =   2.6155171045813E-03
(PID.TID 0000.0001) %MON ke_max                       =   2.0039663358089E+00
(PID.TID 0000.0001) %MON ke_mean                      =   1.3689691468865E-03
(PID.TID 0000.0001) %MON ke_vol                       =   1.3350064351420E+18
(PID.TID 0000.0001) %MON vort_r_min                   =  -8.4725182833255E-05
(PID.TID 0000.0001) %MON vort_r_max                   =   9.0498391387488E-05
(PID.TID 0000.0001) %MON vort_a_mean                  =  -1.9725081556213E-05
(PID.TID 0000.0001) %MON vort_a_sd                    =   7.4541252738073E-05
(PID.TID 0000.0001) %MON vort_p_mean                  =  -2.1669086977204E-05
(PID.TID 0000.0001) %MON vort_p_sd                    =   9.3617083266618E-05
(PID.TID 0000.0001) %MON surfExpan_theta_mean         =   1.2731256661553E-05
(PID.TID 0000.0001) %MON surfExpan_salt_mean          =   3.5071371891575E-06
(PID.TID 0000.0001) // =======================================================
(PID.TID 0000.0001) // End MONITOR dynamic field statistics
(PID.TID 0000.0001) // =======================================================
(PID.TID 0000.0001) // =======================================================
(PID.TID 0000.0001) // Begin MONITOR SEAICE statistics
(PID.TID 0000.0001) // =======================================================
(PID.TID 0000.0001) %MON seaice_tsnumber              =                174856
(PID.TID 0000.0001) %MON seaice_time_sec              =   7.8685200000000E+07
(PID.TID 0000.0001) %MON seaice_uice_max              =   1.2732689853267E+00
(PID.TID 0000.0001) %MON seaice_uice_min              =  -1.0539148901014E+00
(PID.TID 0000.0001) %MON seaice_uice_mean             =   9.5251221396052E-03
(PID.TID 0000.0001) %MON seaice_uice_sd               =   1.4969225137062E-01
(PID.TID 0000.0001) %MON seaice_uice_del2             =   3.5757496264552E-04
(PID.TID 0000.0001) %MON seaice_vice_max              =   1.0333273738980E+00
(PID.TID 0000.0001) %MON seaice_vice_min              =  -1.4721665079137E+00
(PID.TID 0000.0001) %MON seaice_vice_mean             =  -1.6949926008885E-02
(PID.TID 0000.0001) %MON seaice_vice_sd               =   1.6092679540347E-01
(PID.TID 0000.0001) %MON seaice_vice_del2             =   3.4008549935286E-04
(PID.TID 0000.0001) %MON seaice_area_max              =   1.0023151659675E+00
(PID.TID 0000.0001) %MON seaice_area_min              =   0.0000000000000E+00
(PID.TID 0000.0001) %MON seaice_area_mean             =   5.7545636284145E-02
(PID.TID 0000.0001) %MON seaice_area_sd               =   2.2085388699299E-01
(PID.TID 0000.0001) %MON seaice_area_del2             =   2.8706210014392E-04
(PID.TID 0000.0001) %MON seaice_heff_max              =   9.9476348960999E+00
(PID.TID 0000.0001) %MON seaice_heff_min              =   0.0000000000000E+00
(PID.TID 0000.0001) %MON seaice_heff_mean             =   1.4944590711279E-01
(PID.TID 0000.0001) %MON seaice_heff_sd               =   7.1976834022231E-01
(PID.TID 0000.0001) %MON seaice_heff_del2             =   1.3477805318764E-03
(PID.TID 0000.0001) %MON seaice_hsnow_max             =   3.2857285769593E+00
(PID.TID 0000.0001) %MON seaice_hsnow_min             =   0.0000000000000E+00
(PID.TID 0000.0001) %MON seaice_hsnow_mean            =   1.2617387760214E-02
(PID.TID 0000.0001) %MON seaice_hsnow_sd              =   6.7867164859969E-02
(PID.TID 0000.0001) %MON seaice_hsnow_del2            =   3.6529510659651E-04
(PID.TID 0000.0001) // =======================================================
(PID.TID 0000.0001) // End MONITOR SEAICE statistics
(PID.TID 0000.0001) // =======================================================
(PID.TID 0000.0001) // =======================================================
(PID.TID 0000.0001) // Begin MONITOR dynamic field statistics
(PID.TID 0000.0001) // =======================================================
(PID.TID 0000.0001) %MON time_tsnumber                =                174857
(PID.TID 0000.0001) %MON time_secondsf                =   7.8685650000000E+07
(PID.TID 0000.0001) %MON dynstat_eta_max              =   2.3599541683861E+00
(PID.TID 0000.0001) %MON dynstat_eta_min              =  -1.0552582436729E+01
(PID.TID 0000.0001) %MON dynstat_eta_mean             =   9.1751624272262E-02
(PID.TID 0000.0001) %MON dynstat_eta_sd               =   9.2631059051814E-01
(PID.TID 0000.0001) %MON dynstat_eta_del2             =   2.0117698119280E-03
(PID.TID 0000.0001) %MON dynstat_uvel_max             =   1.8702853759597E+00
(PID.TID 0000.0001) %MON dynstat_uvel_min             =  -2.3976996772421E+00
(PID.TID 0000.0001) %MON dynstat_uvel_mean            =   6.7434716328813E-03
(PID.TID 0000.0001) %MON dynstat_uvel_sd              =   3.7474542120223E-02
(PID.TID 0000.0001) %MON dynstat_uvel_del2            =   3.9758485400501E-05
(PID.TID 0000.0001) %MON dynstat_vvel_max             =   1.7223986103908E+00
(PID.TID 0000.0001) %MON dynstat_vvel_min             =  -2.0393574458388E+00
(PID.TID 0000.0001) %MON dynstat_vvel_mean            =   3.8600271156410E-03
(PID.TID 0000.0001) %MON dynstat_vvel_sd              =   3.7481855100454E-02
(PID.TID 0000.0001) %MON dynstat_vvel_del2            =   3.8308336543653E-05
(PID.TID 0000.0001) %MON dynstat_wvel_max             =   8.7001588346504E-03
(PID.TID 0000.0001) %MON dynstat_wvel_min             =  -7.6645270143319E-03
(PID.TID 0000.0001) %MON dynstat_wvel_mean            =   3.8110765839082E-07
(PID.TID 0000.0001) %MON dynstat_wvel_sd              =   1.5268278707485E-04
(PID.TID 0000.0001) %MON dynstat_wvel_del2            =   3.3274901091522E-07
(PID.TID 0000.0001) %MON dynstat_theta_max            =   3.2433512227296E+01
(PID.TID 0000.0001) %MON dynstat_theta_min            =  -2.0464583905123E+00
(PID.TID 0000.0001) %MON dynstat_theta_mean           =   3.5918740247194E+00
(PID.TID 0000.0001) %MON dynstat_theta_sd             =   4.4416638272786E+00
(PID.TID 0000.0001) %MON dynstat_theta_del2           =   1.2704250552171E-04
(PID.TID 0000.0001) %MON dynstat_salt_max             =   4.0655989613332E+01
(PID.TID 0000.0001) %MON dynstat_salt_min             =   1.5960207430364E+01
(PID.TID 0000.0001) %MON dynstat_salt_mean            =   3.4724792827320E+01
(PID.TID 0000.0001) %MON dynstat_salt_sd              =   3.7973924508733E-01
(PID.TID 0000.0001) %MON dynstat_salt_del2            =   6.3957684577077E-05
(PID.TID 0000.0001) %MON dynstat_sst_max              =   3.2433512227296E+01
(PID.TID 0000.0001) %MON dynstat_sst_min              =  -2.0464583905123E+00
(PID.TID 0000.0001) %MON dynstat_sst_mean             =   1.8174682236899E+01
(PID.TID 0000.0001) %MON dynstat_sst_sd               =   1.0201024695369E+01
(PID.TID 0000.0001) %MON dynstat_sst_del2             =   1.1046498765763E-03
(PID.TID 0000.0001) %MON dynstat_sss_max              =   3.9462990157017E+01
(PID.TID 0000.0001) %MON dynstat_sss_min              =   1.5960207430364E+01
(PID.TID 0000.0001) %MON dynstat_sss_mean             =   3.4642003081688E+01
(PID.TID 0000.0001) %MON dynstat_sss_sd               =   1.3021336547013E+00
(PID.TID 0000.0001) %MON dynstat_sss_del2             =   1.4704524356239E-03
(PID.TID 0000.0001) %MON forcing_qnet_max             =   8.0017631126011E+02
(PID.TID 0000.0001) %MON forcing_qnet_min             =  -2.2151127929688E+03
(PID.TID 0000.0001) %MON forcing_qnet_mean            =   3.6639528890543E+01
(PID.TID 0000.0001) %MON forcing_qnet_sd              =   1.9498475470457E+02
(PID.TID 0000.0001) %MON forcing_qnet_del2            =   4.0884030325257E-01
(PID.TID 0000.0001) %MON forcing_qsw_max              =   0.0000000000000E+00
(PID.TID 0000.0001) %MON forcing_qsw_min              =  -1.0913184218896E+02
(PID.TID 0000.0001) %MON forcing_qsw_mean             =  -1.4725259175738E+01
(PID.TID 0000.0001) %MON forcing_qsw_sd               =   2.5347364853695E+01
(PID.TID 0000.0001) %MON forcing_qsw_del2             =   2.0461170010810E-02
(PID.TID 0000.0001) %MON forcing_empmr_max            =   2.0705023780465E-02
(PID.TID 0000.0001) %MON forcing_empmr_min            =  -4.1897092014551E-02
(PID.TID 0000.0001) %MON forcing_empmr_mean           =  -2.7555366530294E-06
(PID.TID 0000.0001) %MON forcing_empmr_sd             =   3.0155029616835E-04
(PID.TID 0000.0001) %MON forcing_empmr_del2           =   3.4131907285107E-06
(PID.TID 0000.0001) %MON forcing_fu_max               =   8.1977096199989E-01
(PID.TID 0000.0001) %MON forcing_fu_min               =  -1.3449007933931E+00
(PID.TID 0000.0001) %MON forcing_fu_mean              =   1.1395301969548E-02
(PID.TID 0000.0001) %MON forcing_fu_sd                =   1.2663501319574E-01
(PID.TID 0000.0001) %MON forcing_fu_del2              =   1.7186562204991E-04
(PID.TID 0000.0001) %MON forcing_fv_max               =   1.0556605151911E+00
(PID.TID 0000.0001) %MON forcing_fv_min               =  -1.6114995091485E+00
(PID.TID 0000.0001) %MON forcing_fv_mean              =  -5.1023445011524E-04
(PID.TID 0000.0001) %MON forcing_fv_sd                =   1.1474911859218E-01
(PID.TID 0000.0001) %MON forcing_fv_del2              =   1.5220123629557E-04
(PID.TID 0000.0001) %MON trAdv_CFL_u_max              =   2.4731454398073E-02
(PID.TID 0000.0001) %MON trAdv_CFL_v_max              =   1.7716968023838E-02
(PID.TID 0000.0001) %MON trAdv_CFL_w_max              =   8.9319473130994E-02
(PID.TID 0000.0001) %MON advcfl_uvel_max              =   2.5062272051700E-02
(PID.TID 0000.0001) %MON advcfl_vvel_max              =   1.7610652343452E-02
(PID.TID 0000.0001) %MON advcfl_wvel_max              =   8.4750455046437E-02
(PID.TID 0000.0001) %MON advcfl_W_hf_max              =   8.9319473130994E-02
(PID.TID 0000.0001) %MON pe_b_mean                    =   2.6170850417664E-03
(PID.TID 0000.0001) %MON ke_max                       =   1.9966631098950E+00
(PID.TID 0000.0001) %MON ke_mean                      =   1.3836929018260E-03
(PID.TID 0000.0001) %MON ke_vol                       =   1.3350064351420E+18
(PID.TID 0000.0001) %MON vort_r_min                   =  -8.4557357208435E-05
(PID.TID 0000.0001) %MON vort_r_max                   =   9.0331894429577E-05
(PID.TID 0000.0001) %MON vort_a_mean                  =  -1.9725081528346E-05
(PID.TID 0000.0001) %MON vort_a_sd                    =   7.4541286257879E-05
(PID.TID 0000.0001) %MON vort_p_mean                  =  -2.1669086946591E-05
(PID.TID 0000.0001) %MON vort_p_sd                    =   9.3617174474468E-05
(PID.TID 0000.0001) %MON surfExpan_theta_mean         =   1.2219319075858E-05
(PID.TID 0000.0001) %MON surfExpan_salt_mean          =   3.2772532597941E-06
(PID.TID 0000.0001) // =======================================================
(PID.TID 0000.0001) // End MONITOR dynamic field statistics
(PID.TID 0000.0001) // =======================================================
(PID.TID 0000.0001) // =======================================================
(PID.TID 0000.0001) // Begin MONITOR SEAICE statistics
(PID.TID 0000.0001) // =======================================================
(PID.TID 0000.0001) %MON seaice_tsnumber              =                174857
(PID.TID 0000.0001) %MON seaice_time_sec              =   7.8685650000000E+07
(PID.TID 0000.0001) %MON seaice_uice_max              =   1.2712958017704E+00
(PID.TID 0000.0001) %MON seaice_uice_min              =  -1.0601801515862E+00
(PID.TID 0000.0001) %MON seaice_uice_mean             =   9.6770609420877E-03
(PID.TID 0000.0001) %MON seaice_uice_sd               =   1.4957096458071E-01
(PID.TID 0000.0001) %MON seaice_uice_del2             =   3.5800317742005E-04
(PID.TID 0000.0001) %MON seaice_vice_max              =   1.0337418489179E+00
(PID.TID 0000.0001) %MON seaice_vice_min              =  -1.4713427749705E+00
(PID.TID 0000.0001) %MON seaice_vice_mean             =  -1.6786734933408E-02
(PID.TID 0000.0001) %MON seaice_vice_sd               =   1.6088060376391E-01
(PID.TID 0000.0001) %MON seaice_vice_del2             =   3.4037551680464E-04
(PID.TID 0000.0001) %MON seaice_area_max              =   1.0022767387681E+00
(PID.TID 0000.0001) %MON seaice_area_min              =   0.0000000000000E+00
(PID.TID 0000.0001) %MON seaice_area_mean             =   5.7547678982624E-02
(PID.TID 0000.0001) %MON seaice_area_sd               =   2.2085112703579E-01
(PID.TID 0000.0001) %MON seaice_area_del2             =   2.8698505272098E-04
(PID.TID 0000.0001) %MON seaice_heff_max              =   9.9476244266230E+00
(PID.TID 0000.0001) %MON seaice_heff_min              =   0.0000000000000E+00
(PID.TID 0000.0001) %MON seaice_heff_mean             =   1.4944217364788E-01
(PID.TID 0000.0001) %MON seaice_heff_sd               =   7.1975664704639E-01
(PID.TID 0000.0001) %MON seaice_heff_del2             =   1.3471079205290E-03
(PID.TID 0000.0001) %MON seaice_hsnow_max             =   3.2857251685732E+00
(PID.TID 0000.0001) %MON seaice_hsnow_min             =   0.0000000000000E+00
(PID.TID 0000.0001) %MON seaice_hsnow_mean            =   1.2616810870898E-02
(PID.TID 0000.0001) %MON seaice_hsnow_sd              =   6.7858076941959E-02
(PID.TID 0000.0001) %MON seaice_hsnow_del2            =   3.6501573693045E-04
(PID.TID 0000.0001) // =======================================================
(PID.TID 0000.0001) // End MONITOR SEAICE statistics
(PID.TID 0000.0001) // =======================================================
(PID.TID 0000.0001) // =======================================================
(PID.TID 0000.0001) // Begin MONITOR dynamic field statistics
(PID.TID 0000.0001) // =======================================================
(PID.TID 0000.0001) %MON time_tsnumber                =                174858
(PID.TID 0000.0001) %MON time_secondsf                =   7.8686100000000E+07
(PID.TID 0000.0001) %MON dynstat_eta_max              =   2.3388051965623E+00
(PID.TID 0000.0001) %MON dynstat_eta_min              =  -1.0547094967691E+01
(PID.TID 0000.0001) %MON dynstat_eta_mean             =   9.1803948540282E-02
(PID.TID 0000.0001) %MON dynstat_eta_sd               =   9.2692544669621E-01
(PID.TID 0000.0001) %MON dynstat_eta_del2             =   2.0118152937538E-03
(PID.TID 0000.0001) %MON dynstat_uvel_max             =   1.8589328059926E+00
(PID.TID 0000.0001) %MON dynstat_uvel_min             =  -2.3934489321106E+00
(PID.TID 0000.0001) %MON dynstat_uvel_mean            =   6.8381184925215E-03
(PID.TID 0000.0001) %MON dynstat_uvel_sd              =   3.7657812281286E-02
(PID.TID 0000.0001) %MON dynstat_uvel_del2            =   3.9843288321443E-05
(PID.TID 0000.0001) %MON dynstat_vvel_max             =   1.7233458509222E+00
(PID.TID 0000.0001) %MON dynstat_vvel_min             =  -2.0342373187037E+00
(PID.TID 0000.0001) %MON dynstat_vvel_mean            =   3.8530557032465E-03
(PID.TID 0000.0001) %MON dynstat_vvel_sd              =   3.7693200008258E-02
(PID.TID 0000.0001) %MON dynstat_vvel_del2            =   3.8398687376297E-05
(PID.TID 0000.0001) %MON dynstat_wvel_max             =   8.7262651646028E-03
(PID.TID 0000.0001) %MON dynstat_wvel_min             =  -7.6660047358983E-03
(PID.TID 0000.0001) %MON dynstat_wvel_mean            =   3.7660673528189E-07
(PID.TID 0000.0001) %MON dynstat_wvel_sd              =   1.5351662562761E-04
(PID.TID 0000.0001) %MON dynstat_wvel_del2            =   3.3407071438867E-07
(PID.TID 0000.0001) %MON dynstat_theta_max            =   3.2433763688651E+01
(PID.TID 0000.0001) %MON dynstat_theta_min            =  -2.0465158551179E+00
(PID.TID 0000.0001) %MON dynstat_theta_mean           =   3.5918716168202E+00
(PID.TID 0000.0001) %MON dynstat_theta_sd             =   4.4416548702810E+00
(PID.TID 0000.0001) %MON dynstat_theta_del2           =   1.2708728418072E-04
(PID.TID 0000.0001) %MON dynstat_salt_max             =   4.0655989613170E+01
(PID.TID 0000.0001) %MON dynstat_salt_min             =   1.5959124837079E+01
(PID.TID 0000.0001) %MON dynstat_salt_mean            =   3.4724792884879E+01
(PID.TID 0000.0001) %MON dynstat_salt_sd              =   3.7973914819834E-01
(PID.TID 0000.0001) %MON dynstat_salt_del2            =   6.3924735002353E-05
(PID.TID 0000.0001) %MON dynstat_sst_max              =   3.2433763688651E+01
(PID.TID 0000.0001) %MON dynstat_sst_min              =  -2.0465158551179E+00
(PID.TID 0000.0001) %MON dynstat_sst_mean             =   1.8174480300409E+01
(PID.TID 0000.0001) %MON dynstat_sst_sd               =   1.0201141139460E+01
(PID.TID 0000.0001) %MON dynstat_sst_del2             =   1.1046907811126E-03
(PID.TID 0000.0001) %MON dynstat_sss_max              =   3.9462970689762E+01
(PID.TID 0000.0001) %MON dynstat_sss_min              =   1.5959124837079E+01
(PID.TID 0000.0001) %MON dynstat_sss_mean             =   3.4641978593534E+01
(PID.TID 0000.0001) %MON dynstat_sss_sd               =   1.3021855076681E+00
(PID.TID 0000.0001) %MON dynstat_sss_del2             =   1.4703990719554E-03
(PID.TID 0000.0001) %MON forcing_qnet_max             =   8.0101684570312E+02
(PID.TID 0000.0001) %MON forcing_qnet_min             =  -4.9975849609375E+03
(PID.TID 0000.0001) %MON forcing_qnet_mean            =   3.6239869332236E+01
(PID.TID 0000.0001) %MON forcing_qnet_sd              =   1.9572722935511E+02
(PID.TID 0000.0001) %MON forcing_qnet_del2            =   5.3567789245358E-01
(PID.TID 0000.0001) %MON forcing_qsw_max              =   0.0000000000000E+00
(PID.TID 0000.0001) %MON forcing_qsw_min              =  -1.0859365664623E+02
(PID.TID 0000.0001) %MON forcing_qsw_mean             =  -1.4740840772029E+01
(PID.TID 0000.0001) %MON forcing_qsw_sd               =   2.5251555346707E+01
(PID.TID 0000.0001) %MON forcing_qsw_del2             =   2.0537729733247E-02
(PID.TID 0000.0001) %MON forcing_empmr_max            =   2.0931260660291E-02
(PID.TID 0000.0001) %MON forcing_empmr_min            =  -4.3407928198576E-02
(PID.TID 0000.0001) %MON forcing_empmr_mean           =  -2.5227782469576E-06
(PID.TID 0000.0001) %MON forcing_empmr_sd             =   3.0488930664975E-04
(PID.TID 0000.0001) %MON forcing_empmr_del2           =   3.4618867226625E-06
(PID.TID 0000.0001) %MON forcing_fu_max               =   8.2080298662186E-01
(PID.TID 0000.0001) %MON forcing_fu_min               =  -1.3491923631781E+00
(PID.TID 0000.0001) %MON forcing_fu_mean              =   1.1348096589795E-02
(PID.TID 0000.0001) %MON forcing_fu_sd                =   1.2664477522032E-01
(PID.TID 0000.0001) %MON forcing_fu_del2              =   1.7196707741774E-04
(PID.TID 0000.0001) %MON forcing_fv_max               =   1.0630645134808E+00
(PID.TID 0000.0001) %MON forcing_fv_min               =  -1.6500693501437E+00
(PID.TID 0000.0001) %MON forcing_fv_mean              =  -4.7868026930985E-04
(PID.TID 0000.0001) %MON forcing_fv_sd                =   1.1489202681583E-01
(PID.TID 0000.0001) %MON forcing_fv_del2              =   1.5236151843398E-04
(PID.TID 0000.0001) %MON trAdv_CFL_u_max              =   2.4687609411824E-02
(PID.TID 0000.0001) %MON trAdv_CFL_v_max              =   1.7679771179080E-02
(PID.TID 0000.0001) %MON trAdv_CFL_w_max              =   8.9934212695849E-02
(PID.TID 0000.0001) %MON advcfl_uvel_max              =   2.5017840577684E-02
(PID.TID 0000.0001) %MON advcfl_vvel_max              =   1.7597494209370E-02
(PID.TID 0000.0001) %MON advcfl_wvel_max              =   8.5321859614379E-02
(PID.TID 0000.0001) %MON advcfl_W_hf_max              =   8.9934212695849E-02
(PID.TID 0000.0001) %MON pe_b_mean                    =   2.6186285655187E-03
(PID.TID 0000.0001) %MON ke_max                       =   1.9894259446701E+00
(PID.TID 0000.0001) %MON ke_mean                      =   1.3985872886284E-03
(PID.TID 0000.0001) %MON ke_vol                       =   1.3350064351420E+18
(PID.TID 0000.0001) %MON vort_r_min                   =  -8.4389739663656E-05
(PID.TID 0000.0001) %MON vort_r_max                   =   9.0166695131028E-05
(PID.TID 0000.0001) %MON vort_a_mean                  =  -1.9725081487112E-05
(PID.TID 0000.0001) %MON vort_a_sd                    =   7.4541319374997E-05
(PID.TID 0000.0001) %MON vort_p_mean                  =  -2.1669086901292E-05
(PID.TID 0000.0001) %MON vort_p_sd                    =   9.3617263618347E-05
(PID.TID 0000.0001) %MON surfExpan_theta_mean         =   1.1721663400265E-05
(PID.TID 0000.0001) %MON surfExpan_salt_mean          =   3.0394932925899E-06
(PID.TID 0000.0001) // =======================================================
(PID.TID 0000.0001) // End MONITOR dynamic field statistics
(PID.TID 0000.0001) // =======================================================
(PID.TID 0000.0001) // =======================================================
(PID.TID 0000.0001) // Begin MONITOR SEAICE statistics
(PID.TID 0000.0001) // =======================================================
(PID.TID 0000.0001) %MON seaice_tsnumber              =                174858
(PID.TID 0000.0001) %MON seaice_time_sec              =   7.8686100000000E+07
(PID.TID 0000.0001) %MON seaice_uice_max              =   1.2693143945566E+00
(PID.TID 0000.0001) %MON seaice_uice_min              =  -1.0673415464004E+00
(PID.TID 0000.0001) %MON seaice_uice_mean             =   9.8247280934052E-03
(PID.TID 0000.0001) %MON seaice_uice_sd               =   1.4945547811328E-01
(PID.TID 0000.0001) %MON seaice_uice_del2             =   3.5842417541595E-04
(PID.TID 0000.0001) %MON seaice_vice_max              =   1.0339026013922E+00
(PID.TID 0000.0001) %MON seaice_vice_min              =  -1.4705404415109E+00
(PID.TID 0000.0001) %MON seaice_vice_mean             =  -1.6625195370439E-02
(PID.TID 0000.0001) %MON seaice_vice_sd               =   1.6083953794058E-01
(PID.TID 0000.0001) %MON seaice_vice_del2             =   3.4063527099126E-04
(PID.TID 0000.0001) %MON seaice_area_max              =   1.0022377552183E+00
(PID.TID 0000.0001) %MON seaice_area_min              =   0.0000000000000E+00
(PID.TID 0000.0001) %MON seaice_area_mean             =   5.7549736710351E-02
(PID.TID 0000.0001) %MON seaice_area_sd               =   2.2084841355462E-01
(PID.TID 0000.0001) %MON seaice_area_del2             =   2.8690978547446E-04
(PID.TID 0000.0001) %MON seaice_heff_max              =   9.9476139573346E+00
(PID.TID 0000.0001) %MON seaice_heff_min              =   0.0000000000000E+00
(PID.TID 0000.0001) %MON seaice_heff_mean             =   1.4943843871098E-01
(PID.TID 0000.0001) %MON seaice_heff_sd               =   7.1974497517453E-01
(PID.TID 0000.0001) %MON seaice_heff_del2             =   1.3464384809161E-03
(PID.TID 0000.0001) %MON seaice_hsnow_max             =   3.2857217605096E+00
(PID.TID 0000.0001) %MON seaice_hsnow_min             =   0.0000000000000E+00
(PID.TID 0000.0001) %MON seaice_hsnow_mean            =   1.2616228000780E-02
(PID.TID 0000.0001) %MON seaice_hsnow_sd              =   6.7848941970405E-02
(PID.TID 0000.0001) %MON seaice_hsnow_del2            =   3.6473578533862E-04
(PID.TID 0000.0001) // =======================================================
(PID.TID 0000.0001) // End MONITOR SEAICE statistics
(PID.TID 0000.0001) // =======================================================
(PID.TID 0000.0001) // =======================================================
(PID.TID 0000.0001) // Begin MONITOR dynamic field statistics
(PID.TID 0000.0001) // =======================================================
(PID.TID 0000.0001) %MON time_tsnumber                =                174859
(PID.TID 0000.0001) %MON time_secondsf                =   7.8686550000000E+07
(PID.TID 0000.0001) %MON dynstat_eta_max              =   2.3087550357934E+00
(PID.TID 0000.0001) %MON dynstat_eta_min              =  -1.0540747062345E+01
(PID.TID 0000.0001) %MON dynstat_eta_mean             =   9.1854495388240E-02
(PID.TID 0000.0001) %MON dynstat_eta_sd               =   9.2756745321716E-01
(PID.TID 0000.0001) %MON dynstat_eta_del2             =   2.0118573417028E-03
(PID.TID 0000.0001) %MON dynstat_uvel_max             =   1.8474289029350E+00
(PID.TID 0000.0001) %MON dynstat_uvel_min             =  -2.3892107102698E+00
(PID.TID 0000.0001) %MON dynstat_uvel_mean            =   6.9287519141302E-03
(PID.TID 0000.0001) %MON dynstat_uvel_sd              =   3.7842295998511E-02
(PID.TID 0000.0001) %MON dynstat_uvel_del2            =   3.9929250953309E-05
(PID.TID 0000.0001) %MON dynstat_vvel_max             =   1.7244072926439E+00
(PID.TID 0000.0001) %MON dynstat_vvel_min             =  -2.0289961205312E+00
(PID.TID 0000.0001) %MON dynstat_vvel_mean            =   3.8458052736569E-03
(PID.TID 0000.0001) %MON dynstat_vvel_sd              =   3.7906224338045E-02
(PID.TID 0000.0001) %MON dynstat_vvel_del2            =   3.8489906915320E-05
(PID.TID 0000.0001) %MON dynstat_wvel_max             =   8.7525801724822E-03
(PID.TID 0000.0001) %MON dynstat_wvel_min             =  -7.6669571162207E-03
(PID.TID 0000.0001) %MON dynstat_wvel_mean            =   3.7203139521080E-07
(PID.TID 0000.0001) %MON dynstat_wvel_sd              =   1.5434944803351E-04
(PID.TID 0000.0001) %MON dynstat_wvel_del2            =   3.3539288102899E-07
(PID.TID 0000.0001) %MON dynstat_theta_max            =   3.2434139057649E+01
(PID.TID 0000.0001) %MON dynstat_theta_min            =  -2.0465601494367E+00
(PID.TID 0000.0001) %MON dynstat_theta_mean           =   3.5918692562161E+00
(PID.TID 0000.0001) %MON dynstat_theta_sd             =   4.4416459505665E+00
(PID.TID 0000.0001) %MON dynstat_theta_del2           =   1.2713326796727E-04
(PID.TID 0000.0001) %MON dynstat_salt_max             =   4.0655989613008E+01
(PID.TID 0000.0001) %MON dynstat_salt_min             =   1.5958071921540E+01
(PID.TID 0000.0001) %MON dynstat_salt_mean            =   3.4724792948228E+01
(PID.TID 0000.0001) %MON dynstat_salt_sd              =   3.7973908256061E-01
(PID.TID 0000.0001) %MON dynstat_salt_del2            =   6.3891663160399E-05
(PID.TID 0000.0001) %MON dynstat_sst_max              =   3.2434139057649E+01
(PID.TID 0000.0001) %MON dynstat_sst_min              =  -2.0465601494367E+00
(PID.TID 0000.0001) %MON dynstat_sst_mean             =   1.8174274906913E+01
(PID.TID 0000.0001) %MON dynstat_sst_sd               =   1.0201250583684E+01
(PID.TID 0000.0001) %MON dynstat_sst_del2             =   1.1047179949089E-03
(PID.TID 0000.0001) %MON dynstat_sss_max              =   3.9462952283287E+01
(PID.TID 0000.0001) %MON dynstat_sss_min              =   1.5958071921540E+01
(PID.TID 0000.0001) %MON dynstat_sss_mean             =   3.4641953112346E+01
(PID.TID 0000.0001) %MON dynstat_sss_sd               =   1.3022363228505E+00
(PID.TID 0000.0001) %MON dynstat_sss_del2             =   1.4703323747258E-03
(PID.TID 0000.0001) %MON forcing_qnet_max             =   1.0370520019531E+03
(PID.TID 0000.0001) %MON forcing_qnet_min             =  -1.5214090523948E+03
(PID.TID 0000.0001) %MON forcing_qnet_mean            =   3.6261039060355E+01
(PID.TID 0000.0001) %MON forcing_qnet_sd              =   1.9356355806382E+02
(PID.TID 0000.0001) %MON forcing_qnet_del2            =   3.7053337707194E-01
(PID.TID 0000.0001) %MON forcing_qsw_max              =   0.0000000000000E+00
(PID.TID 0000.0001) %MON forcing_qsw_min              =  -1.0794306403128E+02
(PID.TID 0000.0001) %MON forcing_qsw_mean             =  -1.4746642588340E+01
(PID.TID 0000.0001) %MON forcing_qsw_sd               =   2.5156399567191E+01
(PID.TID 0000.0001) %MON forcing_qsw_del2             =   2.0608841506298E-02
(PID.TID 0000.0001) %MON forcing_empmr_max            =   2.1083170548081E-02
(PID.TID 0000.0001) %MON forcing_empmr_min            =  -4.4393617659807E-02
(PID.TID 0000.0001) %MON forcing_empmr_mean           =  -2.8666427440526E-06
(PID.TID 0000.0001) %MON forcing_empmr_sd             =   3.0925806218071E-04
(PID.TID 0000.0001) %MON forcing_empmr_del2           =   3.5200058771767E-06
(PID.TID 0000.0001) %MON forcing_fu_max               =   8.2783010601997E-01
(PID.TID 0000.0001) %MON forcing_fu_min               =  -1.3534360457747E+00
(PID.TID 0000.0001) %MON forcing_fu_mean              =   1.1298289249522E-02
(PID.TID 0000.0001) %MON forcing_fu_sd                =   1.2669853163522E-01
(PID.TID 0000.0001) %MON forcing_fu_del2              =   1.7225184632098E-04
(PID.TID 0000.0001) %MON forcing_fv_max               =   1.0729135716605E+00
(PID.TID 0000.0001) %MON forcing_fv_min               =  -1.6793019190914E+00
(PID.TID 0000.0001) %MON forcing_fv_mean              =  -4.4181834470924E-04
(PID.TID 0000.0001) %MON forcing_fv_sd                =   1.1505886663734E-01
(PID.TID 0000.0001) %MON forcing_fv_del2              =   1.5259517645979E-04
(PID.TID 0000.0001) %MON trAdv_CFL_u_max              =   2.4643893599048E-02
(PID.TID 0000.0001) %MON trAdv_CFL_v_max              =   1.7643058295537E-02
(PID.TID 0000.0001) %MON trAdv_CFL_w_max              =   9.0504572930362E-02
(PID.TID 0000.0001) %MON advcfl_uvel_max              =   2.4973540005016E-02
(PID.TID 0000.0001) %MON advcfl_vvel_max              =   1.7582061638910E-02
(PID.TID 0000.0001) %MON advcfl_wvel_max              =   8.5850680510049E-02
(PID.TID 0000.0001) %MON advcfl_W_hf_max              =   9.0504572930362E-02
(PID.TID 0000.0001) %MON pe_b_mean                    =   2.6201659216983E-03
(PID.TID 0000.0001) %MON ke_max                       =   1.9822295138024E+00
(PID.TID 0000.0001) %MON ke_mean                      =   1.4136436522312E-03
(PID.TID 0000.0001) %MON ke_vol                       =   1.3350064351420E+18
(PID.TID 0000.0001) %MON vort_r_min                   =  -8.4221825665612E-05
(PID.TID 0000.0001) %MON vort_r_max                   =   9.0002177617440E-05
(PID.TID 0000.0001) %MON vort_a_mean                  =  -1.9725081432910E-05
(PID.TID 0000.0001) %MON vort_a_sd                    =   7.4541352082766E-05
(PID.TID 0000.0001) %MON vort_p_mean                  =  -2.1669086841748E-05
(PID.TID 0000.0001) %MON vort_p_sd                    =   9.3617350625693E-05
(PID.TID 0000.0001) %MON surfExpan_theta_mean         =   1.1246819924257E-05
(PID.TID 0000.0001) %MON surfExpan_salt_mean          =   2.8058349317619E-06
(PID.TID 0000.0001) // =======================================================
(PID.TID 0000.0001) // End MONITOR dynamic field statistics
(PID.TID 0000.0001) // =======================================================
(PID.TID 0000.0001) // =======================================================
(PID.TID 0000.0001) // Begin MONITOR SEAICE statistics
(PID.TID 0000.0001) // =======================================================
(PID.TID 0000.0001) %MON seaice_tsnumber              =                174859
(PID.TID 0000.0001) %MON seaice_time_sec              =   7.8686550000000E+07
(PID.TID 0000.0001) %MON seaice_uice_max              =   1.2673391903039E+00
(PID.TID 0000.0001) %MON seaice_uice_min              =  -1.0753770368645E+00
(PID.TID 0000.0001) %MON seaice_uice_mean             =   9.9673213710788E-03
(PID.TID 0000.0001) %MON seaice_uice_sd               =   1.4935383129000E-01
(PID.TID 0000.0001) %MON seaice_uice_del2             =   3.5888337512890E-04
(PID.TID 0000.0001) %MON seaice_vice_max              =   1.0338228436043E+00
(PID.TID 0000.0001) %MON seaice_vice_min              =  -1.4698136787341E+00
(PID.TID 0000.0001) %MON seaice_vice_mean             =  -1.6460489285742E-02
(PID.TID 0000.0001) %MON seaice_vice_sd               =   1.6080139072406E-01
(PID.TID 0000.0001) %MON seaice_vice_del2             =   3.4091849341714E-04
(PID.TID 0000.0001) %MON seaice_area_max              =   1.0021969551574E+00
(PID.TID 0000.0001) %MON seaice_area_min              =   0.0000000000000E+00
(PID.TID 0000.0001) %MON seaice_area_mean             =   5.7551804521471E-02
(PID.TID 0000.0001) %MON seaice_area_sd               =   2.2084574100133E-01
(PID.TID 0000.0001) %MON seaice_area_del2             =   2.8683621768853E-04
(PID.TID 0000.0001) %MON seaice_heff_max              =   9.9476034880713E+00
(PID.TID 0000.0001) %MON seaice_heff_min              =   0.0000000000000E+00
(PID.TID 0000.0001) %MON seaice_heff_mean             =   1.4943470164537E-01
(PID.TID 0000.0001) %MON seaice_heff_sd               =   7.1973332021590E-01
(PID.TID 0000.0001) %MON seaice_heff_del2             =   1.3457724537074E-03
(PID.TID 0000.0001) %MON seaice_hsnow_max             =   3.2857183528663E+00
(PID.TID 0000.0001) %MON seaice_hsnow_min             =   0.0000000000000E+00
(PID.TID 0000.0001) %MON seaice_hsnow_mean            =   1.2615644961936E-02
(PID.TID 0000.0001) %MON seaice_hsnow_sd              =   6.7839744994340E-02
(PID.TID 0000.0001) %MON seaice_hsnow_del2            =   3.6445539233087E-04
(PID.TID 0000.0001) // =======================================================
(PID.TID 0000.0001) // End MONITOR SEAICE statistics
(PID.TID 0000.0001) // =======================================================
(PID.TID 0000.0001) // =======================================================
(PID.TID 0000.0001) // Begin MONITOR dynamic field statistics
(PID.TID 0000.0001) // =======================================================
(PID.TID 0000.0001) %MON time_tsnumber                =                174860
(PID.TID 0000.0001) %MON time_secondsf                =   7.8687000000000E+07
(PID.TID 0000.0001) %MON dynstat_eta_max              =   2.2701652012722E+00
(PID.TID 0000.0001) %MON dynstat_eta_min              =  -1.0533571906694E+01
(PID.TID 0000.0001) %MON dynstat_eta_mean             =   9.1903479306214E-02
(PID.TID 0000.0001) %MON dynstat_eta_sd               =   9.2823946845590E-01
(PID.TID 0000.0001) %MON dynstat_eta_del2             =   2.0118939152312E-03
(PID.TID 0000.0001) %MON dynstat_uvel_max             =   1.8357757968164E+00
(PID.TID 0000.0001) %MON dynstat_uvel_min             =  -2.3849708641616E+00
(PID.TID 0000.0001) %MON dynstat_uvel_mean            =   7.0151209530062E-03
(PID.TID 0000.0001) %MON dynstat_uvel_sd              =   3.8027975613316E-02
(PID.TID 0000.0001) %MON dynstat_uvel_del2            =   4.0016255082210E-05
(PID.TID 0000.0001) %MON dynstat_vvel_max             =   1.7255829575439E+00
(PID.TID 0000.0001) %MON dynstat_vvel_min             =  -2.0236350931764E+00
(PID.TID 0000.0001) %MON dynstat_vvel_mean            =   3.8383266531625E-03
(PID.TID 0000.0001) %MON dynstat_vvel_sd              =   3.8120792128546E-02
(PID.TID 0000.0001) %MON dynstat_vvel_del2            =   3.8582345102910E-05
(PID.TID 0000.0001) %MON dynstat_wvel_max             =   8.7790855768479E-03
(PID.TID 0000.0001) %MON dynstat_wvel_min             =  -7.6673045139220E-03
(PID.TID 0000.0001) %MON dynstat_wvel_mean            =   3.6815202945268E-07
(PID.TID 0000.0001) %MON dynstat_wvel_sd              =   1.5518032226339E-04
(PID.TID 0000.0001) %MON dynstat_wvel_del2            =   3.3671434254386E-07
(PID.TID 0000.0001) %MON dynstat_theta_max            =   3.2434628956587E+01
(PID.TID 0000.0001) %MON dynstat_theta_min            =  -2.0465904541391E+00
(PID.TID 0000.0001) %MON dynstat_theta_mean           =   3.5918669498041E+00
(PID.TID 0000.0001) %MON dynstat_theta_sd             =   4.4416371297312E+00
(PID.TID 0000.0001) %MON dynstat_theta_del2           =   1.2717872793898E-04
(PID.TID 0000.0001) %MON dynstat_salt_max             =   4.0655989612846E+01
(PID.TID 0000.0001) %MON dynstat_salt_min             =   1.5957049746287E+01
(PID.TID 0000.0001) %MON dynstat_salt_mean            =   3.4724793022214E+01
(PID.TID 0000.0001) %MON dynstat_salt_sd              =   3.7973903466918E-01
(PID.TID 0000.0001) %MON dynstat_salt_del2            =   6.3858178916538E-05
(PID.TID 0000.0001) %MON dynstat_sst_max              =   3.2434628956587E+01
(PID.TID 0000.0001) %MON dynstat_sst_min              =  -2.0465904541391E+00
(PID.TID 0000.0001) %MON dynstat_sst_mean             =   1.8174074669726E+01
(PID.TID 0000.0001) %MON dynstat_sst_sd               =   1.0201361727310E+01
(PID.TID 0000.0001) %MON dynstat_sst_del2             =   1.1047041295137E-03
(PID.TID 0000.0001) %MON dynstat_sss_max              =   3.9462935153604E+01
(PID.TID 0000.0001) %MON dynstat_sss_min              =   1.5957049746287E+01
(PID.TID 0000.0001) %MON dynstat_sss_mean             =   3.4641928471312E+01
(PID.TID 0000.0001) %MON dynstat_sss_sd               =   1.3022852957499E+00
(PID.TID 0000.0001) %MON dynstat_sss_del2             =   1.4702423495177E-03
(PID.TID 0000.0001) %MON forcing_qnet_max             =   1.1724575195312E+03
(PID.TID 0000.0001) %MON forcing_qnet_min             =  -1.4349191978845E+03
(PID.TID 0000.0001) %MON forcing_qnet_mean            =   3.5977630878869E+01
(PID.TID 0000.0001) %MON forcing_qnet_sd              =   1.9327672959867E+02
(PID.TID 0000.0001) %MON forcing_qnet_del2            =   3.8210372732502E-01
(PID.TID 0000.0001) %MON forcing_qsw_max              =   0.0000000000000E+00
(PID.TID 0000.0001) %MON forcing_qsw_min              =  -1.0718116679906E+02
(PID.TID 0000.0001) %MON forcing_qsw_mean             =  -1.4742506530550E+01
(PID.TID 0000.0001) %MON forcing_qsw_sd               =   2.5062397319175E+01
(PID.TID 0000.0001) %MON forcing_qsw_del2             =   2.0674023712922E-02
(PID.TID 0000.0001) %MON forcing_empmr_max            =   2.1165929734707E-02
(PID.TID 0000.0001) %MON forcing_empmr_min            =  -4.2683277279139E-02
(PID.TID 0000.0001) %MON forcing_empmr_mean           =  -2.5210504317984E-06
(PID.TID 0000.0001) %MON forcing_empmr_sd             =   3.0903782203664E-04
(PID.TID 0000.0001) %MON forcing_empmr_del2           =   3.5502155922347E-06
(PID.TID 0000.0001) %MON forcing_fu_max               =   8.2803845405579E-01
(PID.TID 0000.0001) %MON forcing_fu_min               =  -1.3552432406993E+00
(PID.TID 0000.0001) %MON forcing_fu_mean              =   1.1254416445448E-02
(PID.TID 0000.0001) %MON forcing_fu_sd                =   1.2670984178824E-01
(PID.TID 0000.0001) %MON forcing_fu_del2              =   1.7243419292604E-04
(PID.TID 0000.0001) %MON forcing_fv_max               =   1.0819155778481E+00
(PID.TID 0000.0001) %MON forcing_fv_min               =  -1.7022097719795E+00
(PID.TID 0000.0001) %MON forcing_fv_mean              =  -4.0939182507571E-04
(PID.TID 0000.0001) %MON forcing_fv_sd                =   1.1526199463391E-01
(PID.TID 0000.0001) %MON forcing_fv_del2              =   1.5288533662488E-04
(PID.TID 0000.0001) %MON trAdv_CFL_u_max              =   2.4600161032507E-02
(PID.TID 0000.0001) %MON trAdv_CFL_v_max              =   1.7606605531644E-02
(PID.TID 0000.0001) %MON trAdv_CFL_w_max              =   9.1036014134244E-02
(PID.TID 0000.0001) %MON advcfl_uvel_max              =   2.4929222454477E-02
(PID.TID 0000.0001) %MON advcfl_vvel_max              =   1.7564162571954E-02
(PID.TID 0000.0001) %MON advcfl_wvel_max              =   8.6342340189866E-02
(PID.TID 0000.0001) %MON advcfl_W_hf_max              =   9.1036014134244E-02
(PID.TID 0000.0001) %MON pe_b_mean                    =   2.6217123428362E-03
(PID.TID 0000.0001) %MON ke_max                       =   1.9750446159387E+00
(PID.TID 0000.0001) %MON ke_mean                      =   1.4288554732498E-03
(PID.TID 0000.0001) %MON ke_vol                       =   1.3350064351420E+18
(PID.TID 0000.0001) %MON vort_r_min                   =  -8.4052770556070E-05
(PID.TID 0000.0001) %MON vort_r_max                   =   8.9837635047940E-05
(PID.TID 0000.0001) %MON vort_a_mean                  =  -1.9725081366000E-05
(PID.TID 0000.0001) %MON vort_a_sd                    =   7.4541384378467E-05
(PID.TID 0000.0001) %MON vort_p_mean                  =  -2.1669086768244E-05
(PID.TID 0000.0001) %MON vort_p_sd                    =   9.3617435576616E-05
(PID.TID 0000.0001) %MON surfExpan_theta_mean         =   1.0809375406809E-05
(PID.TID 0000.0001) %MON surfExpan_salt_mean          =   2.6181018458879E-06
(PID.TID 0000.0001) // =======================================================
(PID.TID 0000.0001) // End MONITOR dynamic field statistics
(PID.TID 0000.0001) // =======================================================
(PID.TID 0000.0001) // =======================================================
(PID.TID 0000.0001) // Begin MONITOR SEAICE statistics
(PID.TID 0000.0001) // =======================================================
(PID.TID 0000.0001) %MON seaice_tsnumber              =                174860
(PID.TID 0000.0001) %MON seaice_time_sec              =   7.8687000000000E+07
(PID.TID 0000.0001) %MON seaice_uice_max              =   1.2653831803421E+00
(PID.TID 0000.0001) %MON seaice_uice_min              =  -1.0842555462990E+00
(PID.TID 0000.0001) %MON seaice_uice_mean             =   1.0105194163805E-02
(PID.TID 0000.0001) %MON seaice_uice_sd               =   1.4925879133231E-01
(PID.TID 0000.0001) %MON seaice_uice_del2             =   3.5934984678399E-04
(PID.TID 0000.0001) %MON seaice_vice_max              =   1.0334718117533E+00
(PID.TID 0000.0001) %MON seaice_vice_min              =  -1.4691477185754E+00
(PID.TID 0000.0001) %MON seaice_vice_mean             =  -1.6295464522996E-02
(PID.TID 0000.0001) %MON seaice_vice_sd               =   1.6076569549318E-01
(PID.TID 0000.0001) %MON seaice_vice_del2             =   3.4120240751018E-04
(PID.TID 0000.0001) %MON seaice_area_max              =   1.0021541420706E+00
(PID.TID 0000.0001) %MON seaice_area_min              =   0.0000000000000E+00
(PID.TID 0000.0001) %MON seaice_area_mean             =   5.7553895793580E-02
(PID.TID 0000.0001) %MON seaice_area_sd               =   2.2084312538086E-01
(PID.TID 0000.0001) %MON seaice_area_del2             =   2.8676431931456E-04
(PID.TID 0000.0001) %MON seaice_heff_max              =   9.9475977869602E+00
(PID.TID 0000.0001) %MON seaice_heff_min              =   0.0000000000000E+00
(PID.TID 0000.0001) %MON seaice_heff_mean             =   1.4943096577952E-01
(PID.TID 0000.0001) %MON seaice_heff_sd               =   7.1972168600945E-01
(PID.TID 0000.0001) %MON seaice_heff_del2             =   1.3451091100927E-03
(PID.TID 0000.0001) %MON seaice_hsnow_max             =   3.2857161721547E+00
(PID.TID 0000.0001) %MON seaice_hsnow_min             =   0.0000000000000E+00
(PID.TID 0000.0001) %MON seaice_hsnow_mean            =   1.2615053997110E-02
(PID.TID 0000.0001) %MON seaice_hsnow_sd              =   6.7830503295483E-02
(PID.TID 0000.0001) %MON seaice_hsnow_del2            =   3.6417420639485E-04
(PID.TID 0000.0001) // =======================================================
(PID.TID 0000.0001) // End MONITOR SEAICE statistics
(PID.TID 0000.0001) // =======================================================
(PID.TID 0000.0001) // =======================================================
(PID.TID 0000.0001) // Begin MONITOR dynamic field statistics
(PID.TID 0000.0001) // =======================================================
(PID.TID 0000.0001) %MON time_tsnumber                =                174861
(PID.TID 0000.0001) %MON time_secondsf                =   7.8687450000000E+07
(PID.TID 0000.0001) %MON dynstat_eta_max              =   2.2234562315480E+00
(PID.TID 0000.0001) %MON dynstat_eta_min              =  -1.0525598998545E+01
(PID.TID 0000.0001) %MON dynstat_eta_mean             =   9.1951472133860E-02
(PID.TID 0000.0001) %MON dynstat_eta_sd               =   9.2894447567488E-01
(PID.TID 0000.0001) %MON dynstat_eta_del2             =   2.0119245345407E-03
(PID.TID 0000.0001) %MON dynstat_uvel_max             =   1.8239813893963E+00
(PID.TID 0000.0001) %MON dynstat_uvel_min             =  -2.3807082895366E+00
(PID.TID 0000.0001) %MON dynstat_uvel_mean            =   7.0969996665805E-03
(PID.TID 0000.0001) %MON dynstat_uvel_sd              =   3.8214734298187E-02
(PID.TID 0000.0001) %MON dynstat_uvel_del2            =   4.0104231102587E-05
(PID.TID 0000.0001) %MON dynstat_vvel_max             =   1.7268722616278E+00
(PID.TID 0000.0001) %MON dynstat_vvel_min             =  -2.0181535077124E+00
(PID.TID 0000.0001) %MON dynstat_vvel_mean            =   3.8306740415669E-03
(PID.TID 0000.0001) %MON dynstat_vvel_sd              =   3.8336732301345E-02
(PID.TID 0000.0001) %MON dynstat_vvel_del2            =   3.8675431072313E-05
(PID.TID 0000.0001) %MON dynstat_wvel_max             =   8.8057600877562E-03
(PID.TID 0000.0001) %MON dynstat_wvel_min             =  -7.6669869736232E-03
(PID.TID 0000.0001) %MON dynstat_wvel_mean            =   3.6492466414125E-07
(PID.TID 0000.0001) %MON dynstat_wvel_sd              =   1.5600866962918E-04
(PID.TID 0000.0001) %MON dynstat_wvel_del2            =   3.3803448882613E-07
(PID.TID 0000.0001) %MON dynstat_theta_max            =   3.2435234805361E+01
(PID.TID 0000.0001) %MON dynstat_theta_min            =  -2.0466060773289E+00
(PID.TID 0000.0001) %MON dynstat_theta_mean           =   3.5918647494501E+00
(PID.TID 0000.0001) %MON dynstat_theta_sd             =   4.4416285668789E+00
(PID.TID 0000.0001) %MON dynstat_theta_del2           =   1.2722392913870E-04
(PID.TID 0000.0001) %MON dynstat_salt_max             =   4.0655989612685E+01
(PID.TID 0000.0001) %MON dynstat_salt_min             =   1.5956058579610E+01
(PID.TID 0000.0001) %MON dynstat_salt_mean            =   3.4724793104488E+01
(PID.TID 0000.0001) %MON dynstat_salt_sd              =   3.7973901473761E-01
(PID.TID 0000.0001) %MON dynstat_salt_del2            =   6.3824391278106E-05
(PID.TID 0000.0001) %MON dynstat_sst_max              =   3.2435234805361E+01
(PID.TID 0000.0001) %MON dynstat_sst_min              =  -2.0466060773289E+00
(PID.TID 0000.0001) %MON dynstat_sst_mean             =   1.8173872372453E+01
(PID.TID 0000.0001) %MON dynstat_sst_sd               =   1.0201457551246E+01
(PID.TID 0000.0001) %MON dynstat_sst_del2             =   1.1046177365596E-03
(PID.TID 0000.0001) %MON dynstat_sss_max              =   3.9462918494165E+01
(PID.TID 0000.0001) %MON dynstat_sss_min              =   1.5956058579610E+01
(PID.TID 0000.0001) %MON dynstat_sss_mean             =   3.4641903159624E+01
(PID.TID 0000.0001) %MON dynstat_sss_sd               =   1.3023331475951E+00
(PID.TID 0000.0001) %MON dynstat_sss_del2             =   1.4701344060275E-03
(PID.TID 0000.0001) %MON forcing_qnet_max             =   8.0705047607422E+02
(PID.TID 0000.0001) %MON forcing_qnet_min             =  -1.7629429931641E+03
(PID.TID 0000.0001) %MON forcing_qnet_mean            =   3.3739780469092E+01
(PID.TID 0000.0001) %MON forcing_qnet_sd              =   1.9184503515493E+02
(PID.TID 0000.0001) %MON forcing_qnet_del2            =   3.8565893989433E-01
(PID.TID 0000.0001) %MON forcing_qsw_max              =   0.0000000000000E+00
(PID.TID 0000.0001) %MON forcing_qsw_min              =  -1.0444384565445E+02
(PID.TID 0000.0001) %MON forcing_qsw_mean             =  -1.5007337347746E+01
(PID.TID 0000.0001) %MON forcing_qsw_sd               =   2.5156947417582E+01
(PID.TID 0000.0001) %MON forcing_qsw_del2             =   2.1025826509922E-02
(PID.TID 0000.0001) %MON forcing_empmr_max            =   2.0922308787704E-02
(PID.TID 0000.0001) %MON forcing_empmr_min            =  -4.3330818414688E-02
(PID.TID 0000.0001) %MON forcing_empmr_mean           =  -2.4682040351329E-06
(PID.TID 0000.0001) %MON forcing_empmr_sd             =   3.0426240506107E-04
(PID.TID 0000.0001) %MON forcing_empmr_del2           =   3.4764050736017E-06
(PID.TID 0000.0001) %MON forcing_fu_max               =   8.2206243276596E-01
(PID.TID 0000.0001) %MON forcing_fu_min               =  -1.3615524030185E+00
(PID.TID 0000.0001) %MON forcing_fu_mean              =   1.1219890349004E-02
(PID.TID 0000.0001) %MON forcing_fu_sd                =   1.2673128956246E-01
(PID.TID 0000.0001) %MON forcing_fu_del2              =   1.7255481761727E-04
(PID.TID 0000.0001) %MON forcing_fv_max               =   1.0935159724002E+00
(PID.TID 0000.0001) %MON forcing_fv_min               =  -1.7239876344190E+00
(PID.TID 0000.0001) %MON forcing_fv_mean              =  -3.7653225769812E-04
(PID.TID 0000.0001) %MON forcing_fv_sd                =   1.1544778406064E-01
(PID.TID 0000.0001) %MON forcing_fv_del2              =   1.5317808283373E-04
(PID.TID 0000.0001) %MON trAdv_CFL_u_max              =   2.4556194029067E-02
(PID.TID 0000.0001) %MON trAdv_CFL_v_max              =   1.7570269569604E-02
(PID.TID 0000.0001) %MON trAdv_CFL_w_max              =   9.1530696239631E-02
(PID.TID 0000.0001) %MON advcfl_uvel_max              =   2.4884667331120E-02
(PID.TID 0000.0001) %MON advcfl_vvel_max              =   1.7543624818884E-02
(PID.TID 0000.0001) %MON advcfl_wvel_max              =   8.6798668636613E-02
(PID.TID 0000.0001) %MON advcfl_W_hf_max              =   9.1530696239631E-02
(PID.TID 0000.0001) %MON pe_b_mean                    =   2.6232933830422E-03
(PID.TID 0000.0001) %MON ke_max                       =   1.9678319357799E+00
(PID.TID 0000.0001) %MON ke_mean                      =   1.4442113150215E-03
(PID.TID 0000.0001) %MON ke_vol                       =   1.3350064351420E+18
(PID.TID 0000.0001) %MON vort_r_min                   =  -8.3881733363840E-05
(PID.TID 0000.0001) %MON vort_r_max                   =   8.9672134931580E-05
(PID.TID 0000.0001) %MON vort_a_mean                  =  -1.9725081286272E-05
(PID.TID 0000.0001) %MON vort_a_sd                    =   7.4541416260164E-05
(PID.TID 0000.0001) %MON vort_p_mean                  =  -2.1669086680658E-05
(PID.TID 0000.0001) %MON vort_p_sd                    =   9.3617518649447E-05
(PID.TID 0000.0001) %MON surfExpan_theta_mean         =   1.0415613411932E-05
(PID.TID 0000.0001) %MON surfExpan_salt_mean          =   2.4716037806846E-06
(PID.TID 0000.0001) // =======================================================
(PID.TID 0000.0001) // End MONITOR dynamic field statistics
(PID.TID 0000.0001) // =======================================================
(PID.TID 0000.0001) // =======================================================
(PID.TID 0000.0001) // Begin MONITOR SEAICE statistics
(PID.TID 0000.0001) // =======================================================
(PID.TID 0000.0001) %MON seaice_tsnumber              =                174861
(PID.TID 0000.0001) %MON seaice_time_sec              =   7.8687450000000E+07
(PID.TID 0000.0001) %MON seaice_uice_max              =   1.2634540239561E+00
(PID.TID 0000.0001) %MON seaice_uice_min              =  -1.0939400218986E+00
(PID.TID 0000.0001) %MON seaice_uice_mean             =   1.0238376414800E-02
(PID.TID 0000.0001) %MON seaice_uice_sd               =   1.4917274531611E-01
(PID.TID 0000.0001) %MON seaice_uice_del2             =   3.5985208870084E-04
(PID.TID 0000.0001) %MON seaice_vice_max              =   1.0328552709534E+00
(PID.TID 0000.0001) %MON seaice_vice_min              =  -1.4685606652533E+00
(PID.TID 0000.0001) %MON seaice_vice_mean             =  -1.6127282604375E-02
(PID.TID 0000.0001) %MON seaice_vice_sd               =   1.6073603128332E-01
(PID.TID 0000.0001) %MON seaice_vice_del2             =   3.4152066133865E-04
(PID.TID 0000.0001) %MON seaice_area_max              =   1.0021550201487E+00
(PID.TID 0000.0001) %MON seaice_area_min              =   0.0000000000000E+00
(PID.TID 0000.0001) %MON seaice_area_mean             =   5.7555973697787E-02
(PID.TID 0000.0001) %MON seaice_area_sd               =   2.2084040165338E-01
(PID.TID 0000.0001) %MON seaice_area_del2             =   2.8669287481747E-04
(PID.TID 0000.0001) %MON seaice_heff_max              =   9.9475873176163E+00
(PID.TID 0000.0001) %MON seaice_heff_min              =   0.0000000000000E+00
(PID.TID 0000.0001) %MON seaice_heff_mean             =   1.4942723167311E-01
(PID.TID 0000.0001) %MON seaice_heff_sd               =   7.1971006966632E-01
(PID.TID 0000.0001) %MON seaice_heff_del2             =   1.3444488740570E-03
(PID.TID 0000.0001) %MON seaice_hsnow_max             =   3.2857130052013E+00
(PID.TID 0000.0001) %MON seaice_hsnow_min             =   0.0000000000000E+00
(PID.TID 0000.0001) %MON seaice_hsnow_mean            =   1.2614440935873E-02
(PID.TID 0000.0001) %MON seaice_hsnow_sd              =   6.7821115660423E-02
(PID.TID 0000.0001) %MON seaice_hsnow_del2            =   3.6389239140666E-04
(PID.TID 0000.0001) // =======================================================
(PID.TID 0000.0001) // End MONITOR SEAICE statistics
(PID.TID 0000.0001) // =======================================================
(PID.TID 0000.0001) // =======================================================
(PID.TID 0000.0001) // Begin MONITOR dynamic field statistics
(PID.TID 0000.0001) // =======================================================
(PID.TID 0000.0001) %MON time_tsnumber                =                174862
(PID.TID 0000.0001) %MON time_secondsf                =   7.8687900000000E+07
(PID.TID 0000.0001) %MON dynstat_eta_max              =   2.1690970060900E+00
(PID.TID 0000.0001) %MON dynstat_eta_min              =  -1.0516861653393E+01
(PID.TID 0000.0001) %MON dynstat_eta_mean             =   9.1998614138093E-02
(PID.TID 0000.0001) %MON dynstat_eta_sd               =   9.2968596275538E-01
(PID.TID 0000.0001) %MON dynstat_eta_del2             =   2.0119466183702E-03
(PID.TID 0000.0001) %MON dynstat_uvel_max             =   1.8120502755019E+00
(PID.TID 0000.0001) %MON dynstat_uvel_min             =  -2.3764107876317E+00
(PID.TID 0000.0001) %MON dynstat_uvel_mean            =   7.1741895688567E-03
(PID.TID 0000.0001) %MON dynstat_uvel_sd              =   3.8402721610059E-02
(PID.TID 0000.0001) %MON dynstat_uvel_del2            =   4.0193154265882E-05
(PID.TID 0000.0001) %MON dynstat_vvel_max             =   1.7282727074256E+00
(PID.TID 0000.0001) %MON dynstat_vvel_min             =  -2.0125528261721E+00
(PID.TID 0000.0001) %MON dynstat_vvel_mean            =   3.8228801201227E-03
(PID.TID 0000.0001) %MON dynstat_vvel_sd              =   3.8553824149381E-02
(PID.TID 0000.0001) %MON dynstat_vvel_del2            =   3.8769814217306E-05
(PID.TID 0000.0001) %MON dynstat_wvel_max             =   8.8325819704527E-03
(PID.TID 0000.0001) %MON dynstat_wvel_min             =  -7.6924314451312E-03
(PID.TID 0000.0001) %MON dynstat_wvel_mean            =   3.6188188107326E-07
(PID.TID 0000.0001) %MON dynstat_wvel_sd              =   1.5683435957599E-04
(PID.TID 0000.0001) %MON dynstat_wvel_del2            =   3.3935359673898E-07
(PID.TID 0000.0001) %MON dynstat_theta_max            =   3.2435966589551E+01
(PID.TID 0000.0001) %MON dynstat_theta_min            =  -2.0466064610653E+00
(PID.TID 0000.0001) %MON dynstat_theta_mean           =   3.5918626136731E+00
(PID.TID 0000.0001) %MON dynstat_theta_sd             =   4.4416201730775E+00
(PID.TID 0000.0001) %MON dynstat_theta_del2           =   1.2726987516665E-04
(PID.TID 0000.0001) %MON dynstat_salt_max             =   4.0655989612523E+01
(PID.TID 0000.0001) %MON dynstat_salt_min             =   1.5955097715377E+01
(PID.TID 0000.0001) %MON dynstat_salt_mean            =   3.4724793193971E+01
(PID.TID 0000.0001) %MON dynstat_salt_sd              =   3.7973901920789E-01
(PID.TID 0000.0001) %MON dynstat_salt_del2            =   6.3790501602685E-05
(PID.TID 0000.0001) %MON dynstat_sst_max              =   3.2435966589551E+01
(PID.TID 0000.0001) %MON dynstat_sst_min              =  -2.0466064610653E+00
(PID.TID 0000.0001) %MON dynstat_sst_mean             =   1.8173684396237E+01
(PID.TID 0000.0001) %MON dynstat_sst_sd               =   1.0201559191665E+01
(PID.TID 0000.0001) %MON dynstat_sst_del2             =   1.1045811302234E-03
(PID.TID 0000.0001) %MON dynstat_sss_max              =   3.9462902334516E+01
(PID.TID 0000.0001) %MON dynstat_sss_min              =   1.5955097715377E+01
(PID.TID 0000.0001) %MON dynstat_sss_mean             =   3.4641878415268E+01
(PID.TID 0000.0001) %MON dynstat_sss_sd               =   1.3023799216666E+00
(PID.TID 0000.0001) %MON dynstat_sss_del2             =   1.4700304294290E-03
(PID.TID 0000.0001) %MON forcing_qnet_max             =   2.4208833007812E+03
(PID.TID 0000.0001) %MON forcing_qnet_min             =  -4.0467741699219E+03
(PID.TID 0000.0001) %MON forcing_qnet_mean            =   3.2754929303265E+01
(PID.TID 0000.0001) %MON forcing_qnet_sd              =   1.9242172320124E+02
(PID.TID 0000.0001) %MON forcing_qnet_del2            =   4.6259278396051E-01
(PID.TID 0000.0001) %MON forcing_qsw_max              =   0.0000000000000E+00
(PID.TID 0000.0001) %MON forcing_qsw_min              =  -1.0347887086905E+02
(PID.TID 0000.0001) %MON forcing_qsw_mean             =  -1.5079245609587E+01
(PID.TID 0000.0001) %MON forcing_qsw_sd               =   2.5201910887687E+01
(PID.TID 0000.0001) %MON forcing_qsw_del2             =   2.1127398419353E-02
(PID.TID 0000.0001) %MON forcing_empmr_max            =   2.0890571177006E-02
(PID.TID 0000.0001) %MON forcing_empmr_min            =  -4.1537962853909E-02
(PID.TID 0000.0001) %MON forcing_empmr_mean           =  -2.4860828213012E-06
(PID.TID 0000.0001) %MON forcing_empmr_sd             =   3.0355694132061E-04
(PID.TID 0000.0001) %MON forcing_empmr_del2           =   3.5200195166001E-06
(PID.TID 0000.0001) %MON forcing_fu_max               =   8.2799485325813E-01
(PID.TID 0000.0001) %MON forcing_fu_min               =  -1.3644402611594E+00
(PID.TID 0000.0001) %MON forcing_fu_mean              =   1.1193241427322E-02
(PID.TID 0000.0001) %MON forcing_fu_sd                =   1.2675970108830E-01
(PID.TID 0000.0001) %MON forcing_fu_del2              =   1.7248311938533E-04
(PID.TID 0000.0001) %MON forcing_fv_max               =   1.1013150199490E+00
(PID.TID 0000.0001) %MON forcing_fv_min               =  -1.7422892112033E+00
(PID.TID 0000.0001) %MON forcing_fv_mean              =  -3.5479019327557E-04
(PID.TID 0000.0001) %MON forcing_fv_sd                =   1.1561199162396E-01
(PID.TID 0000.0001) %MON forcing_fv_del2              =   1.5349922357321E-04
(PID.TID 0000.0001) %MON trAdv_CFL_u_max              =   2.4511866762649E-02
(PID.TID 0000.0001) %MON trAdv_CFL_v_max              =   1.7533912078575E-02
(PID.TID 0000.0001) %MON trAdv_CFL_w_max              =   9.1993746219146E-02
(PID.TID 0000.0001) %MON advcfl_uvel_max              =   2.4839747125765E-02
(PID.TID 0000.0001) %MON advcfl_vvel_max              =   1.7520279747739E-02
(PID.TID 0000.0001) %MON advcfl_wvel_max              =   8.7224750469440E-02
(PID.TID 0000.0001) %MON advcfl_W_hf_max              =   9.1993746219146E-02
(PID.TID 0000.0001) %MON pe_b_mean                    =   2.6249241202186E-03
(PID.TID 0000.0001) %MON ke_max                       =   1.9605649049810E+00
(PID.TID 0000.0001) %MON ke_mean                      =   1.4597076367036E-03
(PID.TID 0000.0001) %MON ke_vol                       =   1.3350064351420E+18
(PID.TID 0000.0001) %MON vort_r_min                   =  -8.3708108624797E-05
(PID.TID 0000.0001) %MON vort_r_max                   =   8.9505010624163E-05
(PID.TID 0000.0001) %MON vort_a_mean                  =  -1.9725081194695E-05
(PID.TID 0000.0001) %MON vort_a_sd                    =   7.4541447734646E-05
(PID.TID 0000.0001) %MON vort_p_mean                  =  -2.1669086580056E-05
(PID.TID 0000.0001) %MON vort_p_sd                    =   9.3617599835695E-05
(PID.TID 0000.0001) %MON surfExpan_theta_mean         =   1.0059494098182E-05
(PID.TID 0000.0001) %MON surfExpan_salt_mean          =   2.3408894605281E-06
(PID.TID 0000.0001) // =======================================================
(PID.TID 0000.0001) // End MONITOR dynamic field statistics
(PID.TID 0000.0001) // =======================================================
(PID.TID 0000.0001) // =======================================================
(PID.TID 0000.0001) // Begin MONITOR SEAICE statistics
(PID.TID 0000.0001) // =======================================================
(PID.TID 0000.0001) %MON seaice_tsnumber              =                174862
(PID.TID 0000.0001) %MON seaice_time_sec              =   7.8687900000000E+07
(PID.TID 0000.0001) %MON seaice_uice_max              =   1.2615594022876E+00
(PID.TID 0000.0001) %MON seaice_uice_min              =  -1.1043987254957E+00
(PID.TID 0000.0001) %MON seaice_uice_mean             =   1.0382472871208E-02
(PID.TID 0000.0001) %MON seaice_uice_sd               =   1.4909888081691E-01
(PID.TID 0000.0001) %MON seaice_uice_del2             =   3.6023190462119E-04
(PID.TID 0000.0001) %MON seaice_vice_max              =   1.0319550287977E+00
(PID.TID 0000.0001) %MON seaice_vice_min              =  -1.4680221740879E+00
(PID.TID 0000.0001) %MON seaice_vice_mean             =  -1.5954992197610E-02
(PID.TID 0000.0001) %MON seaice_vice_sd               =   1.6071469841830E-01
(PID.TID 0000.0001) %MON seaice_vice_del2             =   3.4177389108324E-04
(PID.TID 0000.0001) %MON seaice_area_max              =   1.0022028934900E+00
(PID.TID 0000.0001) %MON seaice_area_min              =   0.0000000000000E+00
(PID.TID 0000.0001) %MON seaice_area_mean             =   5.7558064748442E-02
(PID.TID 0000.0001) %MON seaice_area_sd               =   2.2083767995848E-01
(PID.TID 0000.0001) %MON seaice_area_del2             =   2.8662168548238E-04
(PID.TID 0000.0001) %MON seaice_heff_max              =   9.9475778010844E+00
(PID.TID 0000.0001) %MON seaice_heff_min              =   0.0000000000000E+00
(PID.TID 0000.0001) %MON seaice_heff_mean             =   1.4942350728890E-01
(PID.TID 0000.0001) %MON seaice_heff_sd               =   7.1969851082127E-01
(PID.TID 0000.0001) %MON seaice_heff_del2             =   1.3437914508493E-03
(PID.TID 0000.0001) %MON seaice_hsnow_max             =   3.2857088824222E+00
(PID.TID 0000.0001) %MON seaice_hsnow_min             =   0.0000000000000E+00
(PID.TID 0000.0001) %MON seaice_hsnow_mean            =   1.2613825674263E-02
(PID.TID 0000.0001) %MON seaice_hsnow_sd              =   6.7811706230265E-02
(PID.TID 0000.0001) %MON seaice_hsnow_del2            =   3.6360997244739E-04
(PID.TID 0000.0001) // =======================================================
(PID.TID 0000.0001) // End MONITOR SEAICE statistics
(PID.TID 0000.0001) // =======================================================
(PID.TID 0000.0001) // =======================================================
(PID.TID 0000.0001) // Begin MONITOR dynamic field statistics
(PID.TID 0000.0001) // =======================================================
(PID.TID 0000.0001) %MON time_tsnumber                =                174863
(PID.TID 0000.0001) %MON time_secondsf                =   7.8688350000000E+07
(PID.TID 0000.0001) %MON dynstat_eta_max              =   2.1076048801358E+00
(PID.TID 0000.0001) %MON dynstat_eta_min              =  -1.0507395452648E+01
(PID.TID 0000.0001) %MON dynstat_eta_mean             =   9.2045039599242E-02
(PID.TID 0000.0001) %MON dynstat_eta_sd               =   9.3046653441587E-01
(PID.TID 0000.0001) %MON dynstat_eta_del2             =   2.0119786640148E-03
(PID.TID 0000.0001) %MON dynstat_uvel_max             =   1.7999847642875E+00
(PID.TID 0000.0001) %MON dynstat_uvel_min             =  -2.3720648438662E+00
(PID.TID 0000.0001) %MON dynstat_uvel_mean            =   7.2465207550161E-03
(PID.TID 0000.0001) %MON dynstat_uvel_sd              =   3.8591848403859E-02
(PID.TID 0000.0001) %MON dynstat_uvel_del2            =   4.0283086803778E-05
(PID.TID 0000.0001) %MON dynstat_vvel_max             =   1.7297823799184E+00
(PID.TID 0000.0001) %MON dynstat_vvel_min             =  -2.0068351143514E+00
(PID.TID 0000.0001) %MON dynstat_vvel_mean            =   3.8149518234926E-03
(PID.TID 0000.0001) %MON dynstat_vvel_sd              =   3.8772019191002E-02
(PID.TID 0000.0001) %MON dynstat_vvel_del2            =   3.8864978315881E-05
(PID.TID 0000.0001) %MON dynstat_wvel_max             =   8.8595294818357E-03
(PID.TID 0000.0001) %MON dynstat_wvel_min             =  -7.7686991684364E-03
(PID.TID 0000.0001) %MON dynstat_wvel_mean            =   3.5898070628384E-07
(PID.TID 0000.0001) %MON dynstat_wvel_sd              =   1.5765693192516E-04
(PID.TID 0000.0001) %MON dynstat_wvel_del2            =   3.4067134482055E-07
(PID.TID 0000.0001) %MON dynstat_theta_max            =   3.2436747167280E+01
(PID.TID 0000.0001) %MON dynstat_theta_min            =  -2.0465911312411E+00
(PID.TID 0000.0001) %MON dynstat_theta_mean           =   3.5918605212246E+00
(PID.TID 0000.0001) %MON dynstat_theta_sd             =   4.4416118603438E+00
(PID.TID 0000.0001) %MON dynstat_theta_del2           =   1.2731618740269E-04
(PID.TID 0000.0001) %MON dynstat_salt_max             =   4.0655989612361E+01
(PID.TID 0000.0001) %MON dynstat_salt_min             =   1.5954167546292E+01
(PID.TID 0000.0001) %MON dynstat_salt_mean            =   3.4724793288359E+01
(PID.TID 0000.0001) %MON dynstat_salt_sd              =   3.7973905675778E-01
(PID.TID 0000.0001) %MON dynstat_salt_del2            =   6.3756974414884E-05
(PID.TID 0000.0001) %MON dynstat_sst_max              =   3.2436747167280E+01
(PID.TID 0000.0001) %MON dynstat_sst_min              =  -2.0465911312411E+00
(PID.TID 0000.0001) %MON dynstat_sst_mean             =   1.8173496284330E+01
(PID.TID 0000.0001) %MON dynstat_sst_sd               =   1.0201655229633E+01
(PID.TID 0000.0001) %MON dynstat_sst_del2             =   1.1045290528102E-03
(PID.TID 0000.0001) %MON dynstat_sss_max              =   3.9462887030106E+01
(PID.TID 0000.0001) %MON dynstat_sss_min              =   1.5954167546292E+01
(PID.TID 0000.0001) %MON dynstat_sss_mean             =   3.4641853063756E+01
(PID.TID 0000.0001) %MON dynstat_sss_sd               =   1.3024255502448E+00
(PID.TID 0000.0001) %MON dynstat_sss_del2             =   1.4699370894793E-03
(PID.TID 0000.0001) %MON forcing_qnet_max             =   8.4357739257812E+02
(PID.TID 0000.0001) %MON forcing_qnet_min             =  -2.8865471191406E+03
(PID.TID 0000.0001) %MON forcing_qnet_mean            =   3.2338753406701E+01
(PID.TID 0000.0001) %MON forcing_qnet_sd              =   1.9207855367180E+02
(PID.TID 0000.0001) %MON forcing_qnet_del2            =   3.7201229242467E-01
(PID.TID 0000.0001) %MON forcing_qsw_max              =   0.0000000000000E+00
(PID.TID 0000.0001) %MON forcing_qsw_min              =  -1.0240714382241E+02
(PID.TID 0000.0001) %MON forcing_qsw_mean             =  -1.5140874241353E+01
(PID.TID 0000.0001) %MON forcing_qsw_sd               =   2.5249128091450E+01
(PID.TID 0000.0001) %MON forcing_qsw_del2             =   2.1220895578103E-02
(PID.TID 0000.0001) %MON forcing_empmr_max            =   2.1638454869390E-02
(PID.TID 0000.0001) %MON forcing_empmr_min            =  -4.5067694038153E-02
(PID.TID 0000.0001) %MON forcing_empmr_mean           =  -2.8194916445027E-06
(PID.TID 0000.0001) %MON forcing_empmr_sd             =   3.0953629814072E-04
(PID.TID 0000.0001) %MON forcing_empmr_del2           =   3.4981135550821E-06
(PID.TID 0000.0001) %MON forcing_fu_max               =   8.4641185402870E-01
(PID.TID 0000.0001) %MON forcing_fu_min               =  -1.3663066692691E+00
(PID.TID 0000.0001) %MON forcing_fu_mean              =   1.1166356395660E-02
(PID.TID 0000.0001) %MON forcing_fu_sd                =   1.2677687820170E-01
(PID.TID 0000.0001) %MON forcing_fu_del2              =   1.7244577295554E-04
(PID.TID 0000.0001) %MON forcing_fv_max               =   1.1127445757365E+00
(PID.TID 0000.0001) %MON forcing_fv_min               =  -1.7580297558569E+00
(PID.TID 0000.0001) %MON forcing_fv_mean              =  -3.1310499522327E-04
(PID.TID 0000.0001) %MON forcing_fv_sd                =   1.1583966705017E-01
(PID.TID 0000.0001) %MON forcing_fv_del2              =   1.5371055226619E-04
(PID.TID 0000.0001) %MON trAdv_CFL_u_max              =   2.4467039834959E-02
(PID.TID 0000.0001) %MON trAdv_CFL_v_max              =   1.7497379131094E-02
(PID.TID 0000.0001) %MON trAdv_CFL_w_max              =   9.2430561785561E-02
(PID.TID 0000.0001) %MON advcfl_uvel_max              =   2.4794320575473E-02
(PID.TID 0000.0001) %MON advcfl_vvel_max              =   1.7494004393630E-02
(PID.TID 0000.0001) %MON advcfl_wvel_max              =   8.7626009670885E-02
(PID.TID 0000.0001) %MON advcfl_W_hf_max              =   9.2430561785561E-02
(PID.TID 0000.0001) %MON pe_b_mean                    =   2.6266182957132E-03
(PID.TID 0000.0001) %MON ke_max                       =   1.9532154137867E+00
(PID.TID 0000.0001) %MON ke_mean                      =   1.4753384941161E-03
(PID.TID 0000.0001) %MON ke_vol                       =   1.3350064351420E+18
(PID.TID 0000.0001) %MON vort_r_min                   =  -8.3531232746769E-05
(PID.TID 0000.0001) %MON vort_r_max                   =   8.9335559041440E-05
(PID.TID 0000.0001) %MON vort_a_mean                  =  -1.9725081093510E-05
(PID.TID 0000.0001) %MON vort_a_sd                    =   7.4541478797649E-05
(PID.TID 0000.0001) %MON vort_p_mean                  =  -2.1669086468899E-05
(PID.TID 0000.0001) %MON vort_p_sd                    =   9.3617679128288E-05
(PID.TID 0000.0001) %MON surfExpan_theta_mean         =   9.7372319462119E-06
(PID.TID 0000.0001) %MON surfExpan_salt_mean          =   2.2169959692941E-06
(PID.TID 0000.0001) // =======================================================
(PID.TID 0000.0001) // End MONITOR dynamic field statistics
(PID.TID 0000.0001) // =======================================================
(PID.TID 0000.0001) // =======================================================
(PID.TID 0000.0001) // Begin MONITOR SEAICE statistics
(PID.TID 0000.0001) // =======================================================
(PID.TID 0000.0001) %MON seaice_tsnumber              =                174863
(PID.TID 0000.0001) %MON seaice_time_sec              =   7.8688350000000E+07
(PID.TID 0000.0001) %MON seaice_uice_max              =   1.2596998287607E+00
(PID.TID 0000.0001) %MON seaice_uice_min              =  -1.1155935671581E+00
(PID.TID 0000.0001) %MON seaice_uice_mean             =   1.0513885807616E-02
(PID.TID 0000.0001) %MON seaice_uice_sd               =   1.4903593903944E-01
(PID.TID 0000.0001) %MON seaice_uice_del2             =   3.6073097809116E-04
(PID.TID 0000.0001) %MON seaice_vice_max              =   1.0308740421845E+00
(PID.TID 0000.0001) %MON seaice_vice_min              =  -1.4675509407746E+00
(PID.TID 0000.0001) %MON seaice_vice_mean             =  -1.5783963105051E-02
(PID.TID 0000.0001) %MON seaice_vice_sd               =   1.6069629424067E-01
(PID.TID 0000.0001) %MON seaice_vice_del2             =   3.4210572756706E-04
(PID.TID 0000.0001) %MON seaice_area_max              =   1.0022507330351E+00
(PID.TID 0000.0001) %MON seaice_area_min              =   0.0000000000000E+00
(PID.TID 0000.0001) %MON seaice_area_mean             =   5.7560173947802E-02
(PID.TID 0000.0001) %MON seaice_area_sd               =   2.2083501169447E-01
(PID.TID 0000.0001) %MON seaice_area_del2             =   2.8655120158831E-04
(PID.TID 0000.0001) %MON seaice_heff_max              =   9.9475740036893E+00
(PID.TID 0000.0001) %MON seaice_heff_min              =   0.0000000000000E+00
(PID.TID 0000.0001) %MON seaice_heff_mean             =   1.4941978709713E-01
(PID.TID 0000.0001) %MON seaice_heff_sd               =   7.1968700898663E-01
(PID.TID 0000.0001) %MON seaice_heff_del2             =   1.3431370877723E-03
(PID.TID 0000.0001) %MON seaice_hsnow_max             =   3.2857079130596E+00
(PID.TID 0000.0001) %MON seaice_hsnow_min             =   0.0000000000000E+00
(PID.TID 0000.0001) %MON seaice_hsnow_mean            =   1.2613197400755E-02
(PID.TID 0000.0001) %MON seaice_hsnow_sd              =   6.7802182763090E-02
(PID.TID 0000.0001) %MON seaice_hsnow_del2            =   3.6332654732764E-04
(PID.TID 0000.0001) // =======================================================
(PID.TID 0000.0001) // End MONITOR SEAICE statistics
(PID.TID 0000.0001) // =======================================================
(PID.TID 0000.0001) // =======================================================
(PID.TID 0000.0001) // Begin MONITOR dynamic field statistics
(PID.TID 0000.0001) // =======================================================
(PID.TID 0000.0001) %MON time_tsnumber                =                174864
(PID.TID 0000.0001) %MON time_secondsf                =   7.8688800000000E+07
(PID.TID 0000.0001) %MON dynstat_eta_max              =   2.0901828491118E+00
(PID.TID 0000.0001) %MON dynstat_eta_min              =  -1.0497242765979E+01
(PID.TID 0000.0001) %MON dynstat_eta_mean             =   9.2090825193560E-02
(PID.TID 0000.0001) %MON dynstat_eta_sd               =   9.3128768512237E-01
(PID.TID 0000.0001) %MON dynstat_eta_del2             =   2.0119962481834E-03
(PID.TID 0000.0001) %MON dynstat_uvel_max             =   1.7877906894427E+00
(PID.TID 0000.0001) %MON dynstat_uvel_min             =  -2.3676509486485E+00
(PID.TID 0000.0001) %MON dynstat_uvel_mean            =   7.3138554510610E-03
(PID.TID 0000.0001) %MON dynstat_uvel_sd              =   3.8782147874431E-02
(PID.TID 0000.0001) %MON dynstat_uvel_del2            =   4.0373827819628E-05
(PID.TID 0000.0001) %MON dynstat_vvel_max             =   1.7313990437385E+00
(PID.TID 0000.0001) %MON dynstat_vvel_min             =  -2.0010035550003E+00
(PID.TID 0000.0001) %MON dynstat_vvel_mean            =   3.8068844836864E-03
(PID.TID 0000.0001) %MON dynstat_vvel_sd              =   3.8991092890721E-02
(PID.TID 0000.0001) %MON dynstat_vvel_del2            =   3.8961549148915E-05
(PID.TID 0000.0001) %MON dynstat_wvel_max             =   8.8865805952995E-03
(PID.TID 0000.0001) %MON dynstat_wvel_min             =  -7.8444463574870E-03
(PID.TID 0000.0001) %MON dynstat_wvel_mean            =   3.5671529686701E-07
(PID.TID 0000.0001) %MON dynstat_wvel_sd              =   1.5847605569922E-04
(PID.TID 0000.0001) %MON dynstat_wvel_del2            =   3.4198714493336E-07
(PID.TID 0000.0001) %MON dynstat_theta_max            =   3.2437508577577E+01
(PID.TID 0000.0001) %MON dynstat_theta_min            =  -2.0465597830204E+00
(PID.TID 0000.0001) %MON dynstat_theta_mean           =   3.5918584766188E+00
(PID.TID 0000.0001) %MON dynstat_theta_sd             =   4.4416036807543E+00
(PID.TID 0000.0001) %MON dynstat_theta_del2           =   1.2736385590658E-04
(PID.TID 0000.0001) %MON dynstat_salt_max             =   4.0655989612199E+01
(PID.TID 0000.0001) %MON dynstat_salt_min             =   1.5953264598878E+01
(PID.TID 0000.0001) %MON dynstat_salt_mean            =   3.4724793391061E+01
(PID.TID 0000.0001) %MON dynstat_salt_sd              =   3.7973910660581E-01
(PID.TID 0000.0001) %MON dynstat_salt_del2            =   6.3722912093011E-05
(PID.TID 0000.0001) %MON dynstat_sst_max              =   3.2437508577577E+01
(PID.TID 0000.0001) %MON dynstat_sst_min              =  -2.0465597830204E+00
(PID.TID 0000.0001) %MON dynstat_sst_mean             =   1.8173317473733E+01
(PID.TID 0000.0001) %MON dynstat_sst_sd               =   1.0201754846255E+01
(PID.TID 0000.0001) %MON dynstat_sst_del2             =   1.1045236209840E-03
(PID.TID 0000.0001) %MON dynstat_sss_max              =   3.9462872362297E+01
(PID.TID 0000.0001) %MON dynstat_sss_min              =   1.5953264598878E+01
(PID.TID 0000.0001) %MON dynstat_sss_mean             =   3.4641829435630E+01
(PID.TID 0000.0001) %MON dynstat_sss_sd               =   1.3024690015783E+00
(PID.TID 0000.0001) %MON dynstat_sss_del2             =   1.4698096173827E-03
(PID.TID 0000.0001) %MON forcing_qnet_max             =   8.6231170654297E+02
(PID.TID 0000.0001) %MON forcing_qnet_min             =  -4.5914848632812E+03
(PID.TID 0000.0001) %MON forcing_qnet_mean            =   3.1677391393325E+01
(PID.TID 0000.0001) %MON forcing_qnet_sd              =   1.9281860215955E+02
(PID.TID 0000.0001) %MON forcing_qnet_del2            =   4.8018115134331E-01
(PID.TID 0000.0001) %MON forcing_qsw_max              =   0.0000000000000E+00
(PID.TID 0000.0001) %MON forcing_qsw_min              =  -1.0249586484673E+02
(PID.TID 0000.0001) %MON forcing_qsw_mean             =  -1.5192392060220E+01
(PID.TID 0000.0001) %MON forcing_qsw_sd               =   2.5298287276555E+01
(PID.TID 0000.0001) %MON forcing_qsw_del2             =   2.1306040433738E-02
(PID.TID 0000.0001) %MON forcing_empmr_max            =   2.2407770156860E-02
(PID.TID 0000.0001) %MON forcing_empmr_min            =  -4.2929168790579E-02
(PID.TID 0000.0001) %MON forcing_empmr_mean           =  -2.3425912361999E-06
(PID.TID 0000.0001) %MON forcing_empmr_sd             =   3.0581321108306E-04
(PID.TID 0000.0001) %MON forcing_empmr_del2           =   3.4495430366399E-06
(PID.TID 0000.0001) %MON forcing_fu_max               =   8.3968976140022E-01
(PID.TID 0000.0001) %MON forcing_fu_min               =  -1.3675356764210E+00
(PID.TID 0000.0001) %MON forcing_fu_mean              =   1.1140493159109E-02
(PID.TID 0000.0001) %MON forcing_fu_sd                =   1.2679249579202E-01
(PID.TID 0000.0001) %MON forcing_fu_del2              =   1.7242296507408E-04
(PID.TID 0000.0001) %MON forcing_fv_max               =   1.1219836218569E+00
(PID.TID 0000.0001) %MON forcing_fv_min               =  -1.7704814429303E+00
(PID.TID 0000.0001) %MON forcing_fv_mean              =  -2.7652804199057E-04
(PID.TID 0000.0001) %MON forcing_fv_sd                =   1.1607236937321E-01
(PID.TID 0000.0001) %MON forcing_fv_del2              =   1.5408892123400E-04
(PID.TID 0000.0001) %MON trAdv_CFL_u_max              =   2.4421512011215E-02
(PID.TID 0000.0001) %MON trAdv_CFL_v_max              =   1.7465111007102E-02
(PID.TID 0000.0001) %MON trAdv_CFL_w_max              =   9.2844747381063E-02
(PID.TID 0000.0001) %MON advcfl_uvel_max              =   2.4748183753667E-02
(PID.TID 0000.0001) %MON advcfl_vvel_max              =   1.7464698958645E-02
(PID.TID 0000.0001) %MON advcfl_wvel_max              =   8.8005961811166E-02
(PID.TID 0000.0001) %MON advcfl_W_hf_max              =   9.2844747381063E-02
(PID.TID 0000.0001) %MON pe_b_mean                    =   2.6283849019685E-03
(PID.TID 0000.0001) %MON ke_max                       =   1.9457492566225E+00
(PID.TID 0000.0001) %MON ke_mean                      =   1.4910960019510E-03
(PID.TID 0000.0001) %MON ke_vol                       =   1.3350064351420E+18
(PID.TID 0000.0001) %MON vort_r_min                   =  -8.3350209123724E-05
(PID.TID 0000.0001) %MON vort_r_max                   =   8.9162961632246E-05
(PID.TID 0000.0001) %MON vort_a_mean                  =  -1.9725080983268E-05
(PID.TID 0000.0001) %MON vort_a_sd                    =   7.4541509463394E-05
(PID.TID 0000.0001) %MON vort_p_mean                  =  -2.1669086347792E-05
(PID.TID 0000.0001) %MON vort_p_sd                    =   9.3617757005624E-05
(PID.TID 0000.0001) %MON surfExpan_theta_mean         =   9.4559069339217E-06
(PID.TID 0000.0001) %MON surfExpan_salt_mean          =   2.1344706374915E-06
(PID.TID 0000.0001) // =======================================================
(PID.TID 0000.0001) // End MONITOR dynamic field statistics
(PID.TID 0000.0001) // =======================================================
(PID.TID 0000.0001) // =======================================================
(PID.TID 0000.0001) // Begin MONITOR SEAICE statistics
(PID.TID 0000.0001) // =======================================================
(PID.TID 0000.0001) %MON seaice_tsnumber              =                174864
(PID.TID 0000.0001) %MON seaice_time_sec              =   7.8688800000000E+07
(PID.TID 0000.0001) %MON seaice_uice_max              =   1.2578693701056E+00
(PID.TID 0000.0001) %MON seaice_uice_min              =  -1.1274784635523E+00
(PID.TID 0000.0001) %MON seaice_uice_mean             =   1.0638024036656E-02
(PID.TID 0000.0001) %MON seaice_uice_sd               =   1.4897835899798E-01
(PID.TID 0000.0001) %MON seaice_uice_del2             =   3.6123541386395E-04
(PID.TID 0000.0001) %MON seaice_vice_max              =   1.0296455187914E+00
(PID.TID 0000.0001) %MON seaice_vice_min              =  -1.4671375897737E+00
(PID.TID 0000.0001) %MON seaice_vice_mean             =  -1.5615692230246E-02
(PID.TID 0000.0001) %MON seaice_vice_sd               =   1.6068277333328E-01
(PID.TID 0000.0001) %MON seaice_vice_del2             =   3.4244964471016E-04
(PID.TID 0000.0001) %MON seaice_area_max              =   1.0022976649921E+00
(PID.TID 0000.0001) %MON seaice_area_min              =   0.0000000000000E+00
(PID.TID 0000.0001) %MON seaice_area_mean             =   5.7562319330549E-02
(PID.TID 0000.0001) %MON seaice_area_sd               =   2.2083242564038E-01
(PID.TID 0000.0001) %MON seaice_area_del2             =   2.8648233990137E-04
(PID.TID 0000.0001) %MON seaice_heff_max              =   9.9475692607585E+00
(PID.TID 0000.0001) %MON seaice_heff_min              =   0.0000000000000E+00
(PID.TID 0000.0001) %MON seaice_heff_mean             =   1.4941606573380E-01
(PID.TID 0000.0001) %MON seaice_heff_sd               =   7.1967552247715E-01
(PID.TID 0000.0001) %MON seaice_heff_del2             =   1.3424858492036E-03
(PID.TID 0000.0001) %MON seaice_hsnow_max             =   3.2857067051857E+00
(PID.TID 0000.0001) %MON seaice_hsnow_min             =   0.0000000000000E+00
(PID.TID 0000.0001) %MON seaice_hsnow_mean            =   1.2612565832122E-02
(PID.TID 0000.0001) %MON seaice_hsnow_sd              =   6.7792616534769E-02
(PID.TID 0000.0001) %MON seaice_hsnow_del2            =   3.6304235854800E-04
(PID.TID 0000.0001) // =======================================================
(PID.TID 0000.0001) // End MONITOR SEAICE statistics
(PID.TID 0000.0001) // =======================================================
(PID.TID 0000.0001) // =======================================================
(PID.TID 0000.0001) // Begin MONITOR dynamic field statistics
(PID.TID 0000.0001) // =======================================================
(PID.TID 0000.0001) %MON time_tsnumber                =                174865
(PID.TID 0000.0001) %MON time_secondsf                =   7.8689250000000E+07
(PID.TID 0000.0001) %MON dynstat_eta_max              =   2.0921792971540E+00
(PID.TID 0000.0001) %MON dynstat_eta_min              =  -1.0486440418679E+01
(PID.TID 0000.0001) %MON dynstat_eta_mean             =   9.2136744996084E-02
(PID.TID 0000.0001) %MON dynstat_eta_sd               =   9.3215085309293E-01
(PID.TID 0000.0001) %MON dynstat_eta_del2             =   2.0120002760294E-03
(PID.TID 0000.0001) %MON dynstat_uvel_max             =   1.7754774301911E+00
(PID.TID 0000.0001) %MON dynstat_uvel_min             =  -2.3631700284574E+00
(PID.TID 0000.0001) %MON dynstat_uvel_mean            =   7.3760790638277E-03
(PID.TID 0000.0001) %MON dynstat_uvel_sd              =   3.8973626345774E-02
(PID.TID 0000.0001) %MON dynstat_uvel_del2            =   4.0465596578900E-05
(PID.TID 0000.0001) %MON dynstat_vvel_max             =   1.7331198925866E+00
(PID.TID 0000.0001) %MON dynstat_vvel_min             =  -1.9950622553171E+00
(PID.TID 0000.0001) %MON dynstat_vvel_mean            =   3.7986667515492E-03
(PID.TID 0000.0001) %MON dynstat_vvel_sd              =   3.9211034244634E-02
(PID.TID 0000.0001) %MON dynstat_vvel_del2            =   3.9058881190814E-05
(PID.TID 0000.0001) %MON dynstat_wvel_max             =   8.9137102988091E-03
(PID.TID 0000.0001) %MON dynstat_wvel_min             =  -7.9196456050647E-03
(PID.TID 0000.0001) %MON dynstat_wvel_mean            =   3.5497894699413E-07
(PID.TID 0000.0001) %MON dynstat_wvel_sd              =   1.5929133385172E-04
(PID.TID 0000.0001) %MON dynstat_wvel_del2            =   3.4330139216304E-07
(PID.TID 0000.0001) %MON dynstat_theta_max            =   3.2438244407231E+01
(PID.TID 0000.0001) %MON dynstat_theta_min            =  -2.0465122912334E+00
(PID.TID 0000.0001) %MON dynstat_theta_mean           =   3.5918564586047E+00
(PID.TID 0000.0001) %MON dynstat_theta_sd             =   4.4415955495256E+00
(PID.TID 0000.0001) %MON dynstat_theta_del2           =   1.2741039430367E-04
(PID.TID 0000.0001) %MON dynstat_salt_max             =   4.0655989612037E+01
(PID.TID 0000.0001) %MON dynstat_salt_min             =   1.5952387595432E+01
(PID.TID 0000.0001) %MON dynstat_salt_mean            =   3.4724793494255E+01
(PID.TID 0000.0001) %MON dynstat_salt_sd              =   3.7973919959983E-01
(PID.TID 0000.0001) %MON dynstat_salt_del2            =   6.3688591950001E-05
(PID.TID 0000.0001) %MON dynstat_sst_max              =   3.2438244407231E+01
(PID.TID 0000.0001) %MON dynstat_sst_min              =  -2.0465122912334E+00
(PID.TID 0000.0001) %MON dynstat_sst_mean             =   1.8173137924140E+01
(PID.TID 0000.0001) %MON dynstat_sst_sd               =   1.0201849703079E+01
(PID.TID 0000.0001) %MON dynstat_sst_del2             =   1.1043936623961E-03
(PID.TID 0000.0001) %MON dynstat_sss_max              =   3.9462858054086E+01
(PID.TID 0000.0001) %MON dynstat_sss_min              =   1.5952387595432E+01
(PID.TID 0000.0001) %MON dynstat_sss_mean             =   3.4641804529501E+01
(PID.TID 0000.0001) %MON dynstat_sss_sd               =   1.3025128060800E+00
(PID.TID 0000.0001) %MON dynstat_sss_del2             =   1.4696570331694E-03
(PID.TID 0000.0001) %MON forcing_qnet_max             =   8.8047473144531E+02
(PID.TID 0000.0001) %MON forcing_qnet_min             =  -2.7396213378906E+03
(PID.TID 0000.0001) %MON forcing_qnet_mean            =   3.1479339635687E+01
(PID.TID 0000.0001) %MON forcing_qnet_sd              =   1.9180074853433E+02
(PID.TID 0000.0001) %MON forcing_qnet_del2            =   3.8843057309438E-01
(PID.TID 0000.0001) %MON forcing_qsw_max              =   0.0000000000000E+00
(PID.TID 0000.0001) %MON forcing_qsw_min              =  -1.0346465956676E+02
(PID.TID 0000.0001) %MON forcing_qsw_mean             =  -1.5233658436474E+01
(PID.TID 0000.0001) %MON forcing_qsw_sd               =   2.5349199652751E+01
(PID.TID 0000.0001) %MON forcing_qsw_del2             =   2.1382648526111E-02
(PID.TID 0000.0001) %MON forcing_empmr_max            =   2.3236762732267E-02
(PID.TID 0000.0001) %MON forcing_empmr_min            =  -4.3453380465508E-02
(PID.TID 0000.0001) %MON forcing_empmr_mean           =  -2.8107468800867E-06
(PID.TID 0000.0001) %MON forcing_empmr_sd             =   3.0775699831969E-04
(PID.TID 0000.0001) %MON forcing_empmr_del2           =   3.4494259036192E-06
(PID.TID 0000.0001) %MON forcing_fu_max               =   8.3948236703873E-01
(PID.TID 0000.0001) %MON forcing_fu_min               =  -1.3714762888889E+00
(PID.TID 0000.0001) %MON forcing_fu_mean              =   1.1113615135175E-02
(PID.TID 0000.0001) %MON forcing_fu_sd                =   1.2680033735910E-01
(PID.TID 0000.0001) %MON forcing_fu_del2              =   1.7252601382224E-04
(PID.TID 0000.0001) %MON forcing_fv_max               =   1.1305358981394E+00
(PID.TID 0000.0001) %MON forcing_fv_min               =  -1.7799777055376E+00
(PID.TID 0000.0001) %MON forcing_fv_mean              =  -2.4454504667073E-04
(PID.TID 0000.0001) %MON forcing_fv_sd                =   1.1625221229622E-01
(PID.TID 0000.0001) %MON forcing_fv_del2              =   1.5447120787885E-04
(PID.TID 0000.0001) %MON trAdv_CFL_u_max              =   2.4375292847732E-02
(PID.TID 0000.0001) %MON trAdv_CFL_v_max              =   1.7432731464311E-02
(PID.TID 0000.0001) %MON trAdv_CFL_w_max              =   9.3240364190777E-02
(PID.TID 0000.0001) %MON advcfl_uvel_max              =   2.4701346344488E-02
(PID.TID 0000.0001) %MON advcfl_vvel_max              =   1.7432320179774E-02
(PID.TID 0000.0001) %MON advcfl_wvel_max              =   8.8368619476396E-02
(PID.TID 0000.0001) %MON advcfl_W_hf_max              =   9.3240364190777E-02
(PID.TID 0000.0001) %MON pe_b_mean                    =   2.6302513619483E-03
(PID.TID 0000.0001) %MON ke_max                       =   1.9381620516441E+00
(PID.TID 0000.0001) %MON ke_mean                      =   1.5069793577194E-03
(PID.TID 0000.0001) %MON ke_vol                       =   1.3350064351420E+18
(PID.TID 0000.0001) %MON vort_r_min                   =  -8.3164823630898E-05
(PID.TID 0000.0001) %MON vort_r_max                   =   8.8987044983331E-05
(PID.TID 0000.0001) %MON vort_a_mean                  =  -1.9725080862572E-05
(PID.TID 0000.0001) %MON vort_a_sd                    =   7.4541539733597E-05
(PID.TID 0000.0001) %MON vort_p_mean                  =  -2.1669086215201E-05
(PID.TID 0000.0001) %MON vort_p_sd                    =   9.3617832904306E-05
(PID.TID 0000.0001) %MON surfExpan_theta_mean         =   9.2203438780285E-06
(PID.TID 0000.0001) %MON surfExpan_salt_mean          =   2.0890500222218E-06
(PID.TID 0000.0001) // =======================================================
(PID.TID 0000.0001) // End MONITOR dynamic field statistics
(PID.TID 0000.0001) // =======================================================
(PID.TID 0000.0001) // =======================================================
(PID.TID 0000.0001) // Begin MONITOR SEAICE statistics
(PID.TID 0000.0001) // =======================================================
(PID.TID 0000.0001) %MON seaice_tsnumber              =                174865
(PID.TID 0000.0001) %MON seaice_time_sec              =   7.8689250000000E+07
(PID.TID 0000.0001) %MON seaice_uice_max              =   1.2560741254765E+00
(PID.TID 0000.0001) %MON seaice_uice_min              =  -1.1400034580801E+00
(PID.TID 0000.0001) %MON seaice_uice_mean             =   1.0755031273111E-02
(PID.TID 0000.0001) %MON seaice_uice_sd               =   1.4893350297292E-01
(PID.TID 0000.0001) %MON seaice_uice_del2             =   3.6174724594594E-04
(PID.TID 0000.0001) %MON seaice_vice_max              =   1.0283022028264E+00
(PID.TID 0000.0001) %MON seaice_vice_min              =  -1.4667816525276E+00
(PID.TID 0000.0001) %MON seaice_vice_mean             =  -1.5446915286310E-02
(PID.TID 0000.0001) %MON seaice_vice_sd               =   1.6067134857221E-01
(PID.TID 0000.0001) %MON seaice_vice_del2             =   3.4284954641219E-04
(PID.TID 0000.0001) %MON seaice_area_max              =   1.0023409717030E+00
(PID.TID 0000.0001) %MON seaice_area_min              =   0.0000000000000E+00
(PID.TID 0000.0001) %MON seaice_area_mean             =   5.7564490379228E-02
(PID.TID 0000.0001) %MON seaice_area_sd               =   2.2082993010609E-01
(PID.TID 0000.0001) %MON seaice_area_del2             =   2.8641426680586E-04
(PID.TID 0000.0001) %MON seaice_heff_max              =   9.9475587941387E+00
(PID.TID 0000.0001) %MON seaice_heff_min              =   0.0000000000000E+00
(PID.TID 0000.0001) %MON seaice_heff_mean             =   1.4941234331251E-01
(PID.TID 0000.0001) %MON seaice_heff_sd               =   7.1966405176553E-01
(PID.TID 0000.0001) %MON seaice_heff_del2             =   1.3418375983357E-03
(PID.TID 0000.0001) %MON seaice_hsnow_max             =   3.2857033000557E+00
(PID.TID 0000.0001) %MON seaice_hsnow_min             =   0.0000000000000E+00
(PID.TID 0000.0001) %MON seaice_hsnow_mean            =   1.2611938511348E-02
(PID.TID 0000.0001) %MON seaice_hsnow_sd              =   6.7782990610187E-02
(PID.TID 0000.0001) %MON seaice_hsnow_del2            =   3.6275697681943E-04
(PID.TID 0000.0001) // =======================================================
(PID.TID 0000.0001) // End MONITOR SEAICE statistics
(PID.TID 0000.0001) // =======================================================
(PID.TID 0000.0001) // =======================================================
(PID.TID 0000.0001) // Begin MONITOR dynamic field statistics
(PID.TID 0000.0001) // =======================================================
(PID.TID 0000.0001) %MON time_tsnumber                =                174866
(PID.TID 0000.0001) %MON time_secondsf                =   7.8689700000000E+07
(PID.TID 0000.0001) %MON dynstat_eta_max              =   2.0869420355308E+00
(PID.TID 0000.0001) %MON dynstat_eta_min              =  -1.0475019993974E+01
(PID.TID 0000.0001) %MON dynstat_eta_mean             =   9.2183083488002E-02
(PID.TID 0000.0001) %MON dynstat_eta_sd               =   9.3305758257771E-01
(PID.TID 0000.0001) %MON dynstat_eta_del2             =   2.0119948198292E-03
(PID.TID 0000.0001) %MON dynstat_uvel_max             =   1.7630539811545E+00
(PID.TID 0000.0001) %MON dynstat_uvel_min             =  -2.3586050446674E+00
(PID.TID 0000.0001) %MON dynstat_uvel_mean            =   7.4331111549372E-03
(PID.TID 0000.0001) %MON dynstat_uvel_sd              =   3.9166327393628E-02
(PID.TID 0000.0001) %MON dynstat_uvel_del2            =   4.0558149863943E-05
(PID.TID 0000.0001) %MON dynstat_vvel_max             =   1.7349405991217E+00
(PID.TID 0000.0001) %MON dynstat_vvel_min             =  -1.9890184652303E+00
(PID.TID 0000.0001) %MON dynstat_vvel_mean            =   3.7902800569438E-03
(PID.TID 0000.0001) %MON dynstat_vvel_sd              =   3.9431643807056E-02
(PID.TID 0000.0001) %MON dynstat_vvel_del2            =   3.9157398826687E-05
(PID.TID 0000.0001) %MON dynstat_wvel_max             =   8.9408927626579E-03
(PID.TID 0000.0001) %MON dynstat_wvel_min             =  -7.9942506664599E-03
(PID.TID 0000.0001) %MON dynstat_wvel_mean            =   3.5388361715324E-07
(PID.TID 0000.0001) %MON dynstat_wvel_sd              =   1.6010248237641E-04
(PID.TID 0000.0001) %MON dynstat_wvel_del2            =   3.4461329186402E-07
(PID.TID 0000.0001) %MON dynstat_theta_max            =   3.2438981041290E+01
(PID.TID 0000.0001) %MON dynstat_theta_min            =  -2.0464485013440E+00
(PID.TID 0000.0001) %MON dynstat_theta_mean           =   3.5918544626724E+00
(PID.TID 0000.0001) %MON dynstat_theta_sd             =   4.4415874687362E+00
(PID.TID 0000.0001) %MON dynstat_theta_del2           =   1.2745748113819E-04
(PID.TID 0000.0001) %MON dynstat_salt_max             =   4.0655989611876E+01
(PID.TID 0000.0001) %MON dynstat_salt_min             =   1.5951533005996E+01
(PID.TID 0000.0001) %MON dynstat_salt_mean            =   3.4724793598791E+01
(PID.TID 0000.0001) %MON dynstat_salt_sd              =   3.7973932406312E-01
(PID.TID 0000.0001) %MON dynstat_salt_del2            =   6.3653647242823E-05
(PID.TID 0000.0001) %MON dynstat_sst_max              =   3.2438981041290E+01
(PID.TID 0000.0001) %MON dynstat_sst_min              =  -2.0464485013440E+00
(PID.TID 0000.0001) %MON dynstat_sst_mean             =   1.8172961411431E+01
(PID.TID 0000.0001) %MON dynstat_sst_sd               =   1.0201942741618E+01
(PID.TID 0000.0001) %MON dynstat_sst_del2             =   1.1042735375938E-03
(PID.TID 0000.0001) %MON dynstat_sss_max              =   3.9462843696425E+01
(PID.TID 0000.0001) %MON dynstat_sss_min              =   1.5951533005996E+01
(PID.TID 0000.0001) %MON dynstat_sss_mean             =   3.4641779649437E+01
(PID.TID 0000.0001) %MON dynstat_sss_sd               =   1.3025557362315E+00
(PID.TID 0000.0001) %MON dynstat_sss_del2             =   1.4694684338831E-03
(PID.TID 0000.0001) %MON forcing_qnet_max             =   8.9487792968750E+02
(PID.TID 0000.0001) %MON forcing_qnet_min             =  -1.1234307861328E+03
(PID.TID 0000.0001) %MON forcing_qnet_mean            =   3.1230138865392E+01
(PID.TID 0000.0001) %MON forcing_qnet_sd              =   1.9096135361587E+02
(PID.TID 0000.0001) %MON forcing_qnet_del2            =   3.4966710673423E-01
(PID.TID 0000.0001) %MON forcing_qsw_max              =   0.0000000000000E+00
(PID.TID 0000.0001) %MON forcing_qsw_min              =  -1.0432260487922E+02
(PID.TID 0000.0001) %MON forcing_qsw_mean             =  -1.5264590757952E+01
(PID.TID 0000.0001) %MON forcing_qsw_sd               =   2.5401600786873E+01
(PID.TID 0000.0001) %MON forcing_qsw_del2             =   2.1450461886766E-02
(PID.TID 0000.0001) %MON forcing_empmr_max            =   2.4105088785291E-02
(PID.TID 0000.0001) %MON forcing_empmr_min            =  -4.0677711367607E-02
(PID.TID 0000.0001) %MON forcing_empmr_mean           =  -3.0374225459353E-06
(PID.TID 0000.0001) %MON forcing_empmr_sd             =   3.0155438883539E-04
(PID.TID 0000.0001) %MON forcing_empmr_del2           =   3.4038896175585E-06
(PID.TID 0000.0001) %MON forcing_fu_max               =   8.4041243791580E-01
(PID.TID 0000.0001) %MON forcing_fu_min               =  -1.3723842206699E+00
(PID.TID 0000.0001) %MON forcing_fu_mean              =   1.1082345918317E-02
(PID.TID 0000.0001) %MON forcing_fu_sd                =   1.2682253492171E-01
(PID.TID 0000.0001) %MON forcing_fu_del2              =   1.7246534558478E-04
(PID.TID 0000.0001) %MON forcing_fv_max               =   1.1394084620263E+00
(PID.TID 0000.0001) %MON forcing_fv_min               =  -1.7872419757805E+00
(PID.TID 0000.0001) %MON forcing_fv_mean              =  -2.1053766783842E-04
(PID.TID 0000.0001) %MON forcing_fv_sd                =   1.1641505374917E-01
(PID.TID 0000.0001) %MON forcing_fv_del2              =   1.5470781668326E-04
(PID.TID 0000.0001) %MON trAdv_CFL_u_max              =   2.4328206596897E-02
(PID.TID 0000.0001) %MON trAdv_CFL_v_max              =   1.7397277000068E-02
(PID.TID 0000.0001) %MON trAdv_CFL_w_max              =   9.3620658152088E-02
(PID.TID 0000.0001) %MON advcfl_uvel_max              =   2.4653630249457E-02
(PID.TID 0000.0001) %MON advcfl_vvel_max              =   1.7396866551996E-02
(PID.TID 0000.0001) %MON advcfl_wvel_max              =   8.8717043014850E-02
(PID.TID 0000.0001) %MON advcfl_W_hf_max              =   9.3620658152088E-02
(PID.TID 0000.0001) %MON pe_b_mean                    =   2.6322329382225E-03
(PID.TID 0000.0001) %MON ke_max                       =   1.9304253047510E+00
(PID.TID 0000.0001) %MON ke_mean                      =   1.5229822660853E-03
(PID.TID 0000.0001) %MON ke_vol                       =   1.3350064351420E+18
(PID.TID 0000.0001) %MON vort_r_min                   =  -8.2974384108465E-05
(PID.TID 0000.0001) %MON vort_r_max                   =   8.8807123370245E-05
(PID.TID 0000.0001) %MON vort_a_mean                  =  -1.9725080735668E-05
(PID.TID 0000.0001) %MON vort_a_sd                    =   7.4541569626001E-05
(PID.TID 0000.0001) %MON vort_p_mean                  =  -2.1669086075790E-05
(PID.TID 0000.0001) %MON vort_p_sd                    =   9.3617907499407E-05
(PID.TID 0000.0001) %MON surfExpan_theta_mean         =   9.0449314754925E-06
(PID.TID 0000.0001) %MON surfExpan_salt_mean          =   2.0836234590223E-06
(PID.TID 0000.0001) // =======================================================
(PID.TID 0000.0001) // End MONITOR dynamic field statistics
(PID.TID 0000.0001) // =======================================================
(PID.TID 0000.0001) // =======================================================
(PID.TID 0000.0001) // Begin MONITOR SEAICE statistics
(PID.TID 0000.0001) // =======================================================
(PID.TID 0000.0001) %MON seaice_tsnumber              =                174866
(PID.TID 0000.0001) %MON seaice_time_sec              =   7.8689700000000E+07
(PID.TID 0000.0001) %MON seaice_uice_max              =   1.2542985640945E+00
(PID.TID 0000.0001) %MON seaice_uice_min              =  -1.1531155315512E+00
(PID.TID 0000.0001) %MON seaice_uice_mean             =   1.0864364005790E-02
(PID.TID 0000.0001) %MON seaice_uice_sd               =   1.4889510136178E-01
(PID.TID 0000.0001) %MON seaice_uice_del2             =   3.6228955620292E-04
(PID.TID 0000.0001) %MON seaice_vice_max              =   1.0268482556353E+00
(PID.TID 0000.0001) %MON seaice_vice_min              =  -1.4664789877060E+00
(PID.TID 0000.0001) %MON seaice_vice_mean             =  -1.5283057525599E-02
(PID.TID 0000.0001) %MON seaice_vice_sd               =   1.6066436697334E-01
(PID.TID 0000.0001) %MON seaice_vice_del2             =   3.4325812746000E-04
(PID.TID 0000.0001) %MON seaice_area_max              =   1.0023786244146E+00
(PID.TID 0000.0001) %MON seaice_area_min              =   0.0000000000000E+00
(PID.TID 0000.0001) %MON seaice_area_mean             =   5.7566675784541E-02
(PID.TID 0000.0001) %MON seaice_area_sd               =   2.2082748180006E-01
(PID.TID 0000.0001) %MON seaice_area_del2             =   2.8634721924112E-04
(PID.TID 0000.0001) %MON seaice_heff_max              =   9.9475492772515E+00
(PID.TID 0000.0001) %MON seaice_heff_min              =   0.0000000000000E+00
(PID.TID 0000.0001) %MON seaice_heff_mean             =   1.4940862407126E-01
(PID.TID 0000.0001) %MON seaice_heff_sd               =   7.1965260958708E-01
(PID.TID 0000.0001) %MON seaice_heff_del2             =   1.3411930970732E-03
(PID.TID 0000.0001) %MON seaice_hsnow_max             =   3.2856996561704E+00
(PID.TID 0000.0001) %MON seaice_hsnow_min             =   0.0000000000000E+00
(PID.TID 0000.0001) %MON seaice_hsnow_mean            =   1.2611298537899E-02
(PID.TID 0000.0001) %MON seaice_hsnow_sd              =   6.7773322335315E-02
(PID.TID 0000.0001) %MON seaice_hsnow_del2            =   3.6247076732095E-04
(PID.TID 0000.0001) // =======================================================
(PID.TID 0000.0001) // End MONITOR SEAICE statistics
(PID.TID 0000.0001) // =======================================================
(PID.TID 0000.0001) // =======================================================
(PID.TID 0000.0001) // Begin MONITOR dynamic field statistics
(PID.TID 0000.0001) // =======================================================
(PID.TID 0000.0001) %MON time_tsnumber                =                174867
(PID.TID 0000.0001) %MON time_secondsf                =   7.8690150000000E+07
(PID.TID 0000.0001) %MON dynstat_eta_max              =   2.0745301967281E+00
(PID.TID 0000.0001) %MON dynstat_eta_min              =  -1.0463006229239E+01
(PID.TID 0000.0001) %MON dynstat_eta_mean             =   9.2229757499221E-02
(PID.TID 0000.0001) %MON dynstat_eta_sd               =   9.3400890333106E-01
(PID.TID 0000.0001) %MON dynstat_eta_del2             =   2.0119845138068E-03
(PID.TID 0000.0001) %MON dynstat_uvel_max             =   1.7505238782811E+00
(PID.TID 0000.0001) %MON dynstat_uvel_min             =  -2.3539465832009E+00
(PID.TID 0000.0001) %MON dynstat_uvel_mean            =   7.4849071604028E-03
(PID.TID 0000.0001) %MON dynstat_uvel_sd              =   3.9360248360689E-02
(PID.TID 0000.0001) %MON dynstat_uvel_del2            =   4.0651618882063E-05
(PID.TID 0000.0001) %MON dynstat_vvel_max             =   1.7368591955613E+00
(PID.TID 0000.0001) %MON dynstat_vvel_min             =  -1.9828752165351E+00
(PID.TID 0000.0001) %MON dynstat_vvel_mean            =   3.7816830907492E-03
(PID.TID 0000.0001) %MON dynstat_vvel_sd              =   3.9652876377579E-02
(PID.TID 0000.0001) %MON dynstat_vvel_del2            =   3.9256763111147E-05
(PID.TID 0000.0001) %MON dynstat_wvel_max             =   8.9681109135597E-03
(PID.TID 0000.0001) %MON dynstat_wvel_min             =  -8.0682136284571E-03
(PID.TID 0000.0001) %MON dynstat_wvel_mean            =   3.5312512977332E-07
(PID.TID 0000.0001) %MON dynstat_wvel_sd              =   1.6090978654475E-04
(PID.TID 0000.0001) %MON dynstat_wvel_del2            =   3.4592300848110E-07
(PID.TID 0000.0001) %MON dynstat_theta_max            =   3.2439699889242E+01
(PID.TID 0000.0001) %MON dynstat_theta_min            =  -2.0463682400976E+00
(PID.TID 0000.0001) %MON dynstat_theta_mean           =   3.5918524893481E+00
(PID.TID 0000.0001) %MON dynstat_theta_sd             =   4.4415794658630E+00
(PID.TID 0000.0001) %MON dynstat_theta_del2           =   1.2750436032601E-04
(PID.TID 0000.0001) %MON dynstat_salt_max             =   4.0655989611714E+01
(PID.TID 0000.0001) %MON dynstat_salt_min             =   1.5950698561928E+01
(PID.TID 0000.0001) %MON dynstat_salt_mean            =   3.4724793705152E+01
(PID.TID 0000.0001) %MON dynstat_salt_sd              =   3.7973948383609E-01
(PID.TID 0000.0001) %MON dynstat_salt_del2            =   6.3619034375893E-05
(PID.TID 0000.0001) %MON dynstat_sst_max              =   3.2439699889242E+01
(PID.TID 0000.0001) %MON dynstat_sst_min              =  -2.0463682400976E+00
(PID.TID 0000.0001) %MON dynstat_sst_mean             =   1.8172787245947E+01
(PID.TID 0000.0001) %MON dynstat_sst_sd               =   1.0202034819394E+01
(PID.TID 0000.0001) %MON dynstat_sst_del2             =   1.1041002539837E-03
(PID.TID 0000.0001) %MON dynstat_sss_max              =   3.9462830263523E+01
(PID.TID 0000.0001) %MON dynstat_sss_min              =   1.5950698561928E+01
(PID.TID 0000.0001) %MON dynstat_sss_mean             =   3.4641755025160E+01
(PID.TID 0000.0001) %MON dynstat_sss_sd               =   1.3025988320876E+00
(PID.TID 0000.0001) %MON dynstat_sss_del2             =   1.4692836523308E-03
(PID.TID 0000.0001) %MON forcing_qnet_max             =   9.4851129150391E+02
(PID.TID 0000.0001) %MON forcing_qnet_min             =  -1.0552128906250E+03
(PID.TID 0000.0001) %MON forcing_qnet_mean            =   3.0807661417950E+01
(PID.TID 0000.0001) %MON forcing_qnet_sd              =   1.9100504385716E+02
(PID.TID 0000.0001) %MON forcing_qnet_del2            =   3.5901527579232E-01
(PID.TID 0000.0001) %MON forcing_qsw_max              =   0.0000000000000E+00
(PID.TID 0000.0001) %MON forcing_qsw_min              =  -1.0506851357046E+02
(PID.TID 0000.0001) %MON forcing_qsw_mean             =  -1.5285410953779E+01
(PID.TID 0000.0001) %MON forcing_qsw_sd               =   2.5455004270605E+01
(PID.TID 0000.0001) %MON forcing_qsw_del2             =   2.1509420120812E-02
(PID.TID 0000.0001) %MON forcing_empmr_max            =   2.5103082880378E-02
(PID.TID 0000.0001) %MON forcing_empmr_min            =  -4.3698668479919E-02
(PID.TID 0000.0001) %MON forcing_empmr_mean           =  -3.0086733625614E-06
(PID.TID 0000.0001) %MON forcing_empmr_sd             =   3.1238039320752E-04
(PID.TID 0000.0001) %MON forcing_empmr_del2           =   3.5352155769046E-06
(PID.TID 0000.0001) %MON forcing_fu_max               =   8.4558498859406E-01
(PID.TID 0000.0001) %MON forcing_fu_min               =  -1.3755592571271E+00
(PID.TID 0000.0001) %MON forcing_fu_mean              =   1.1049883000929E-02
(PID.TID 0000.0001) %MON forcing_fu_sd                =   1.2684664496854E-01
(PID.TID 0000.0001) %MON forcing_fu_del2              =   1.7248068042240E-04
(PID.TID 0000.0001) %MON forcing_fv_max               =   1.1432409620345E+00
(PID.TID 0000.0001) %MON forcing_fv_min               =  -1.7926037912716E+00
(PID.TID 0000.0001) %MON forcing_fv_mean              =  -1.8531508858567E-04
(PID.TID 0000.0001) %MON forcing_fv_sd                =   1.1657863775956E-01
(PID.TID 0000.0001) %MON forcing_fv_del2              =   1.5506346728315E-04
(PID.TID 0000.0001) %MON trAdv_CFL_u_max              =   2.4280156155710E-02
(PID.TID 0000.0001) %MON trAdv_CFL_v_max              =   1.7358799808600E-02
(PID.TID 0000.0001) %MON trAdv_CFL_w_max              =   9.3992409758038E-02
(PID.TID 0000.0001) %MON advcfl_uvel_max              =   2.4604937066685E-02
(PID.TID 0000.0001) %MON advcfl_vvel_max              =   1.7358390268308E-02
(PID.TID 0000.0001) %MON advcfl_wvel_max              =   8.9058103136722E-02
(PID.TID 0000.0001) %MON advcfl_W_hf_max              =   9.3992409758038E-02
(PID.TID 0000.0001) %MON pe_b_mean                    =   2.6343334577528E-03
(PID.TID 0000.0001) %MON ke_max                       =   1.9225213641933E+00
(PID.TID 0000.0001) %MON ke_mean                      =   1.5391026808586E-03
(PID.TID 0000.0001) %MON ke_vol                       =   1.3350064351420E+18
(PID.TID 0000.0001) %MON vort_r_min                   =  -8.2778315753281E-05
(PID.TID 0000.0001) %MON vort_r_max                   =   8.8622739445338E-05
(PID.TID 0000.0001) %MON vort_a_mean                  =  -1.9725080601777E-05
(PID.TID 0000.0001) %MON vort_a_sd                    =   7.4541599147312E-05
(PID.TID 0000.0001) %MON vort_p_mean                  =  -2.1669085928703E-05
(PID.TID 0000.0001) %MON vort_p_sd                    =   9.3617980116321E-05
(PID.TID 0000.0001) %MON surfExpan_theta_mean         =   8.9187839492359E-06
(PID.TID 0000.0001) %MON surfExpan_salt_mean          =   2.0906471339639E-06
(PID.TID 0000.0001) // =======================================================
(PID.TID 0000.0001) // End MONITOR dynamic field statistics
(PID.TID 0000.0001) // =======================================================
(PID.TID 0000.0001) // =======================================================
(PID.TID 0000.0001) // Begin MONITOR SEAICE statistics
(PID.TID 0000.0001) // =======================================================
(PID.TID 0000.0001) %MON seaice_tsnumber              =                174867
(PID.TID 0000.0001) %MON seaice_time_sec              =   7.8690150000000E+07
(PID.TID 0000.0001) %MON seaice_uice_max              =   1.2525525808131E+00
(PID.TID 0000.0001) %MON seaice_uice_min              =  -1.1667611848139E+00
(PID.TID 0000.0001) %MON seaice_uice_mean             =   1.0968600711578E-02
(PID.TID 0000.0001) %MON seaice_uice_sd               =   1.4886981910459E-01
(PID.TID 0000.0001) %MON seaice_uice_del2             =   3.6285411170655E-04
(PID.TID 0000.0001) %MON seaice_vice_max              =   1.0348795119152E+00
(PID.TID 0000.0001) %MON seaice_vice_min              =  -1.4662180768740E+00
(PID.TID 0000.0001) %MON seaice_vice_mean             =  -1.5117790483180E-02
(PID.TID 0000.0001) %MON seaice_vice_sd               =   1.6065959336276E-01
(PID.TID 0000.0001) %MON seaice_vice_del2             =   3.4374181928979E-04
(PID.TID 0000.0001) %MON seaice_area_max              =   1.0024098050776E+00
(PID.TID 0000.0001) %MON seaice_area_min              =   0.0000000000000E+00
(PID.TID 0000.0001) %MON seaice_area_mean             =   5.7568846005023E-02
(PID.TID 0000.0001) %MON seaice_area_sd               =   2.2082500488939E-01
(PID.TID 0000.0001) %MON seaice_area_del2             =   2.8627785228435E-04
(PID.TID 0000.0001) %MON seaice_heff_max              =   9.9475397595598E+00
(PID.TID 0000.0001) %MON seaice_heff_min              =   0.0000000000000E+00
(PID.TID 0000.0001) %MON seaice_heff_mean             =   1.4940490734393E-01
(PID.TID 0000.0001) %MON seaice_heff_sd               =   7.1964120001442E-01
(PID.TID 0000.0001) %MON seaice_heff_del2             =   1.3405521907576E-03
(PID.TID 0000.0001) %MON seaice_hsnow_max             =   3.2856964890372E+00
(PID.TID 0000.0001) %MON seaice_hsnow_min             =   0.0000000000000E+00
(PID.TID 0000.0001) %MON seaice_hsnow_mean            =   1.2610637519696E-02
(PID.TID 0000.0001) %MON seaice_hsnow_sd              =   6.7763532183330E-02
(PID.TID 0000.0001) %MON seaice_hsnow_del2            =   3.6218384451270E-04
(PID.TID 0000.0001) // =======================================================
(PID.TID 0000.0001) // End MONITOR SEAICE statistics
(PID.TID 0000.0001) // =======================================================
(PID.TID 0000.0001) // =======================================================
(PID.TID 0000.0001) // Begin MONITOR dynamic field statistics
(PID.TID 0000.0001) // =======================================================
(PID.TID 0000.0001) %MON time_tsnumber                =                174868
(PID.TID 0000.0001) %MON time_secondsf                =   7.8690600000000E+07
(PID.TID 0000.0001) %MON dynstat_eta_max              =   2.0550740490668E+00
(PID.TID 0000.0001) %MON dynstat_eta_min              =  -1.0450427453050E+01
(PID.TID 0000.0001) %MON dynstat_eta_mean             =   9.2277028942100E-02
(PID.TID 0000.0001) %MON dynstat_eta_sd               =   9.3500510384759E-01
(PID.TID 0000.0001) %MON dynstat_eta_del2             =   2.0119680556242E-03
(PID.TID 0000.0001) %MON dynstat_uvel_max             =   1.7378949739164E+00
(PID.TID 0000.0001) %MON dynstat_uvel_min             =  -2.3491883444030E+00
(PID.TID 0000.0001) %MON dynstat_uvel_mean            =   7.5314440244834E-03
(PID.TID 0000.0001) %MON dynstat_uvel_sd              =   3.9555446576230E-02
(PID.TID 0000.0001) %MON dynstat_uvel_del2            =   4.0745835699328E-05
(PID.TID 0000.0001) %MON dynstat_vvel_max             =   1.7388738467803E+00
(PID.TID 0000.0001) %MON dynstat_vvel_min             =  -1.9766332406525E+00
(PID.TID 0000.0001) %MON dynstat_vvel_mean            =   3.7728313185221E-03
(PID.TID 0000.0001) %MON dynstat_vvel_sd              =   3.9874609516189E-02
(PID.TID 0000.0001) %MON dynstat_vvel_del2            =   3.9357441428259E-05
(PID.TID 0000.0001) %MON dynstat_wvel_max             =   8.9953485944259E-03
(PID.TID 0000.0001) %MON dynstat_wvel_min             =  -8.1414921811636E-03
(PID.TID 0000.0001) %MON dynstat_wvel_mean            =   3.5303957773335E-07
(PID.TID 0000.0001) %MON dynstat_wvel_sd              =   1.6171337331330E-04
(PID.TID 0000.0001) %MON dynstat_wvel_del2            =   3.4723018646618E-07
(PID.TID 0000.0001) %MON dynstat_theta_max            =   3.2440393724805E+01
(PID.TID 0000.0001) %MON dynstat_theta_min            =  -2.0462717010186E+00
(PID.TID 0000.0001) %MON dynstat_theta_mean           =   3.5918505256176E+00
(PID.TID 0000.0001) %MON dynstat_theta_sd             =   4.4415715013727E+00
(PID.TID 0000.0001) %MON dynstat_theta_del2           =   1.2755259829947E-04
(PID.TID 0000.0001) %MON dynstat_salt_max             =   4.0655989611552E+01
(PID.TID 0000.0001) %MON dynstat_salt_min             =   1.5949880455117E+01
(PID.TID 0000.0001) %MON dynstat_salt_mean            =   3.4724793812326E+01
(PID.TID 0000.0001) %MON dynstat_salt_sd              =   3.7973966764067E-01
(PID.TID 0000.0001) %MON dynstat_salt_del2            =   6.3584033810526E-05
(PID.TID 0000.0001) %MON dynstat_sst_max              =   3.2440393724805E+01
(PID.TID 0000.0001) %MON dynstat_sst_min              =  -2.0462717010186E+00
(PID.TID 0000.0001) %MON dynstat_sst_mean             =   1.8172614502760E+01
(PID.TID 0000.0001) %MON dynstat_sst_sd               =   1.0202124714675E+01
(PID.TID 0000.0001) %MON dynstat_sst_del2             =   1.1039666915824E-03
(PID.TID 0000.0001) %MON dynstat_sss_max              =   3.9462817245880E+01
(PID.TID 0000.0001) %MON dynstat_sss_min              =   1.5949880455117E+01
(PID.TID 0000.0001) %MON dynstat_sss_mean             =   3.4641730960384E+01
(PID.TID 0000.0001) %MON dynstat_sss_sd               =   1.3026400210219E+00
(PID.TID 0000.0001) %MON dynstat_sss_del2             =   1.4690812685742E-03
(PID.TID 0000.0001) %MON forcing_qnet_max             =   1.1512609863281E+03
(PID.TID 0000.0001) %MON forcing_qnet_min             =  -9.9186761474609E+02
(PID.TID 0000.0001) %MON forcing_qnet_mean            =   3.0620423740192E+01
(PID.TID 0000.0001) %MON forcing_qnet_sd              =   1.9083734570560E+02
(PID.TID 0000.0001) %MON forcing_qnet_del2            =   3.5455466859374E-01
(PID.TID 0000.0001) %MON forcing_qsw_max              =   0.0000000000000E+00
(PID.TID 0000.0001) %MON forcing_qsw_min              =  -1.0574635227626E+02
(PID.TID 0000.0001) %MON forcing_qsw_mean             =  -1.5295900636491E+01
(PID.TID 0000.0001) %MON forcing_qsw_sd               =   2.5509134680263E+01
(PID.TID 0000.0001) %MON forcing_qsw_del2             =   2.1559268857486E-02
(PID.TID 0000.0001) %MON forcing_empmr_max            =   2.6247831061482E-02
(PID.TID 0000.0001) %MON forcing_empmr_min            =  -4.0754996240139E-02
(PID.TID 0000.0001) %MON forcing_empmr_mean           =  -2.9299407828951E-06
(PID.TID 0000.0001) %MON forcing_empmr_sd             =   3.0654148331460E-04
(PID.TID 0000.0001) %MON forcing_empmr_del2           =   3.5078695564235E-06
(PID.TID 0000.0001) %MON forcing_fu_max               =   8.4565454721451E-01
(PID.TID 0000.0001) %MON forcing_fu_min               =  -1.3793321095657E+00
(PID.TID 0000.0001) %MON forcing_fu_mean              =   1.1009505847296E-02
(PID.TID 0000.0001) %MON forcing_fu_sd                =   1.2690034560267E-01
(PID.TID 0000.0001) %MON forcing_fu_del2              =   1.7247850453260E-04
(PID.TID 0000.0001) %MON forcing_fv_max               =   1.1482975612030E+00
(PID.TID 0000.0001) %MON forcing_fv_min               =  -1.7965543057979E+00
(PID.TID 0000.0001) %MON forcing_fv_mean              =  -1.5302737525261E-04
(PID.TID 0000.0001) %MON forcing_fv_sd                =   1.1677812579421E-01
(PID.TID 0000.0001) %MON forcing_fv_del2              =   1.5536927498455E-04
(PID.TID 0000.0001) %MON trAdv_CFL_u_max              =   2.4231076545381E-02
(PID.TID 0000.0001) %MON trAdv_CFL_v_max              =   1.7445471385449E-02
(PID.TID 0000.0001) %MON trAdv_CFL_w_max              =   9.4359612769690E-02
(PID.TID 0000.0001) %MON advcfl_uvel_max              =   2.4555200948199E-02
(PID.TID 0000.0001) %MON advcfl_vvel_max              =   1.7389255426709E-02
(PID.TID 0000.0001) %MON advcfl_wvel_max              =   8.9395698285438E-02
(PID.TID 0000.0001) %MON advcfl_W_hf_max              =   9.4359612769690E-02
(PID.TID 0000.0001) %MON pe_b_mean                    =   2.6365635940504E-03
(PID.TID 0000.0001) %MON ke_max                       =   1.9144369768469E+00
(PID.TID 0000.0001) %MON ke_mean                      =   1.5553380540130E-03
(PID.TID 0000.0001) %MON ke_vol                       =   1.3350064351420E+18
(PID.TID 0000.0001) %MON vort_r_min                   =  -8.2576239422660E-05
(PID.TID 0000.0001) %MON vort_r_max                   =   8.8433526036819E-05
(PID.TID 0000.0001) %MON vort_a_mean                  =  -1.9725080461548E-05
(PID.TID 0000.0001) %MON vort_a_sd                    =   7.4541628322713E-05
(PID.TID 0000.0001) %MON vort_p_mean                  =  -2.1669085774653E-05
(PID.TID 0000.0001) %MON vort_p_sd                    =   9.3618051574966E-05
(PID.TID 0000.0001) %MON surfExpan_theta_mean         =   8.8468587232656E-06
(PID.TID 0000.0001) %MON surfExpan_salt_mean          =   2.1309356305059E-06
(PID.TID 0000.0001) // =======================================================
(PID.TID 0000.0001) // End MONITOR dynamic field statistics
(PID.TID 0000.0001) // =======================================================
(PID.TID 0000.0001) // =======================================================
(PID.TID 0000.0001) // Begin MONITOR SEAICE statistics
(PID.TID 0000.0001) // =======================================================
(PID.TID 0000.0001) %MON seaice_tsnumber              =                174868
(PID.TID 0000.0001) %MON seaice_time_sec              =   7.8690600000000E+07
(PID.TID 0000.0001) %MON seaice_uice_max              =   1.2508419568398E+00
(PID.TID 0000.0001) %MON seaice_uice_min              =  -1.1808892157750E+00
(PID.TID 0000.0001) %MON seaice_uice_mean             =   1.1062852511966E-02
(PID.TID 0000.0001) %MON seaice_uice_sd               =   1.4884888630914E-01
(PID.TID 0000.0001) %MON seaice_uice_del2             =   3.6343644908845E-04
(PID.TID 0000.0001) %MON seaice_vice_max              =   1.0451802624068E+00
(PID.TID 0000.0001) %MON seaice_vice_min              =  -1.4660035370797E+00
(PID.TID 0000.0001) %MON seaice_vice_mean             =  -1.4957858171656E-02
(PID.TID 0000.0001) %MON seaice_vice_sd               =   1.6065873542260E-01
(PID.TID 0000.0001) %MON seaice_vice_del2             =   3.4423920533802E-04
(PID.TID 0000.0001) %MON seaice_area_max              =   1.0024345469118E+00
(PID.TID 0000.0001) %MON seaice_area_min              =   0.0000000000000E+00
(PID.TID 0000.0001) %MON seaice_area_mean             =   5.7571037985775E-02
(PID.TID 0000.0001) %MON seaice_area_sd               =   2.2082257592764E-01
(PID.TID 0000.0001) %MON seaice_area_del2             =   2.8620936056064E-04
(PID.TID 0000.0001) %MON seaice_heff_max              =   9.9475302423455E+00
(PID.TID 0000.0001) %MON seaice_heff_min              =   0.0000000000000E+00
(PID.TID 0000.0001) %MON seaice_heff_mean             =   1.4940119651789E-01
(PID.TID 0000.0001) %MON seaice_heff_sd               =   7.1962983533296E-01
(PID.TID 0000.0001) %MON seaice_heff_del2             =   1.3399142244358E-03
(PID.TID 0000.0001) %MON seaice_hsnow_max             =   3.2856933222043E+00
(PID.TID 0000.0001) %MON seaice_hsnow_min             =   0.0000000000000E+00
(PID.TID 0000.0001) %MON seaice_hsnow_mean            =   1.2609977743692E-02
(PID.TID 0000.0001) %MON seaice_hsnow_sd              =   6.7753668594120E-02
(PID.TID 0000.0001) %MON seaice_hsnow_del2            =   3.6189570868623E-04
(PID.TID 0000.0001) // =======================================================
(PID.TID 0000.0001) // End MONITOR SEAICE statistics
(PID.TID 0000.0001) // =======================================================
(PID.TID 0000.0001) // =======================================================
(PID.TID 0000.0001) // Begin MONITOR dynamic field statistics
(PID.TID 0000.0001) // =======================================================
(PID.TID 0000.0001) %MON time_tsnumber                =                174869
(PID.TID 0000.0001) %MON time_secondsf                =   7.8691050000000E+07
(PID.TID 0000.0001) %MON dynstat_eta_max              =   2.0431605239573E+00
(PID.TID 0000.0001) %MON dynstat_eta_min              =  -1.0437314137387E+01
(PID.TID 0000.0001) %MON dynstat_eta_mean             =   9.2325176965698E-02
(PID.TID 0000.0001) %MON dynstat_eta_sd               =   9.3604622328169E-01
(PID.TID 0000.0001) %MON dynstat_eta_del2             =   2.0119428885749E-03
(PID.TID 0000.0001) %MON dynstat_uvel_max             =   1.7251783711779E+00
(PID.TID 0000.0001) %MON dynstat_uvel_min             =  -2.3443283613580E+00
(PID.TID 0000.0001) %MON dynstat_uvel_mean            =   7.5727318737863E-03
(PID.TID 0000.0001) %MON dynstat_uvel_sd              =   3.9751880650145E-02
(PID.TID 0000.0001) %MON dynstat_uvel_del2            =   4.0840902236599E-05
(PID.TID 0000.0001) %MON dynstat_vvel_max             =   1.7409801612296E+00
(PID.TID 0000.0001) %MON dynstat_vvel_min             =  -1.9702988986003E+00
(PID.TID 0000.0001) %MON dynstat_vvel_mean            =   3.7636679894844E-03
(PID.TID 0000.0001) %MON dynstat_vvel_sd              =   4.0096869230503E-02
(PID.TID 0000.0001) %MON dynstat_vvel_del2            =   3.9458793627355E-05
(PID.TID 0000.0001) %MON dynstat_wvel_max             =   9.0225887076073E-03
(PID.TID 0000.0001) %MON dynstat_wvel_min             =  -8.2140435484062E-03
(PID.TID 0000.0001) %MON dynstat_wvel_mean            =   3.5364233238162E-07
(PID.TID 0000.0001) %MON dynstat_wvel_sd              =   1.6251325346589E-04
(PID.TID 0000.0001) %MON dynstat_wvel_del2            =   3.4853518899610E-07
(PID.TID 0000.0001) %MON dynstat_theta_max            =   3.2441078590425E+01
(PID.TID 0000.0001) %MON dynstat_theta_min            =  -2.0461592023938E+00
(PID.TID 0000.0001) %MON dynstat_theta_mean           =   3.5918486306978E+00
(PID.TID 0000.0001) %MON dynstat_theta_sd             =   4.4415637951222E+00
(PID.TID 0000.0001) %MON dynstat_theta_del2           =   1.2759991871332E-04
(PID.TID 0000.0001) %MON dynstat_salt_max             =   4.0655989611390E+01
(PID.TID 0000.0001) %MON dynstat_salt_min             =   1.5949075972361E+01
(PID.TID 0000.0001) %MON dynstat_salt_mean            =   3.4724793919570E+01
(PID.TID 0000.0001) %MON dynstat_salt_sd              =   3.7973987924229E-01
(PID.TID 0000.0001) %MON dynstat_salt_del2            =   6.3549019621554E-05
(PID.TID 0000.0001) %MON dynstat_sst_max              =   3.2441078590425E+01
(PID.TID 0000.0001) %MON dynstat_sst_min              =  -2.0461592023938E+00
(PID.TID 0000.0001) %MON dynstat_sst_mean             =   1.8172443096619E+01
(PID.TID 0000.0001) %MON dynstat_sst_sd               =   1.0202202856973E+01
(PID.TID 0000.0001) %MON dynstat_sst_del2             =   1.1037486305173E-03
(PID.TID 0000.0001) %MON dynstat_sss_max              =   3.9462804955327E+01
(PID.TID 0000.0001) %MON dynstat_sss_min              =   1.5949075972361E+01
(PID.TID 0000.0001) %MON dynstat_sss_mean             =   3.4641707184264E+01
(PID.TID 0000.0001) %MON dynstat_sss_sd               =   1.3026799760345E+00
(PID.TID 0000.0001) %MON dynstat_sss_del2             =   1.4688602638575E-03
(PID.TID 0000.0001) %MON forcing_qnet_max             =   1.3862552490234E+03
(PID.TID 0000.0001) %MON forcing_qnet_min             =  -2.4874267578125E+03
(PID.TID 0000.0001) %MON forcing_qnet_mean            =   2.8224239958401E+01
(PID.TID 0000.0001) %MON forcing_qnet_sd              =   1.9123975872099E+02
(PID.TID 0000.0001) %MON forcing_qnet_del2            =   3.9393158856227E-01
(PID.TID 0000.0001) %MON forcing_qsw_max              =   0.0000000000000E+00
(PID.TID 0000.0001) %MON forcing_qsw_min              =  -1.0736317578550E+02
(PID.TID 0000.0001) %MON forcing_qsw_mean             =  -1.5585670239459E+01
(PID.TID 0000.0001) %MON forcing_qsw_sd               =   2.6114738067565E+01
(PID.TID 0000.0001) %MON forcing_qsw_del2             =   2.1533920661603E-02
(PID.TID 0000.0001) %MON forcing_empmr_max            =   2.7540691196918E-02
(PID.TID 0000.0001) %MON forcing_empmr_min            =  -4.2065825313330E-02
(PID.TID 0000.0001) %MON forcing_empmr_mean           =  -2.7535708674986E-06
(PID.TID 0000.0001) %MON forcing_empmr_sd             =   3.1117720254973E-04
(PID.TID 0000.0001) %MON forcing_empmr_del2           =   3.5768089880285E-06
(PID.TID 0000.0001) %MON forcing_fu_max               =   8.4774899482727E-01
(PID.TID 0000.0001) %MON forcing_fu_min               =  -1.3803496126299E+00
(PID.TID 0000.0001) %MON forcing_fu_mean              =   1.0978791762063E-02
(PID.TID 0000.0001) %MON forcing_fu_sd                =   1.2692226247177E-01
(PID.TID 0000.0001) %MON forcing_fu_del2              =   1.7242828527977E-04
(PID.TID 0000.0001) %MON forcing_fv_max               =   1.1611882645209E+00
(PID.TID 0000.0001) %MON forcing_fv_min               =  -1.7991444939306E+00
(PID.TID 0000.0001) %MON forcing_fv_mean              =  -1.2982212286306E-04
(PID.TID 0000.0001) %MON forcing_fv_sd                =   1.1698629676396E-01
(PID.TID 0000.0001) %MON forcing_fv_del2              =   1.5568039465321E-04
(PID.TID 0000.0001) %MON trAdv_CFL_u_max              =   2.4180947477844E-02
(PID.TID 0000.0001) %MON trAdv_CFL_v_max              =   1.7564731361022E-02
(PID.TID 0000.0001) %MON trAdv_CFL_w_max              =   9.4725858666224E-02
(PID.TID 0000.0001) %MON advcfl_uvel_max              =   2.4504401334554E-02
(PID.TID 0000.0001) %MON advcfl_vvel_max              =   1.7508131101180E-02
(PID.TID 0000.0001) %MON advcfl_wvel_max              =   8.9733360857157E-02
(PID.TID 0000.0001) %MON advcfl_W_hf_max              =   9.4725858666224E-02
(PID.TID 0000.0001) %MON pe_b_mean                    =   2.6389354343662E-03
(PID.TID 0000.0001) %MON ke_max                       =   1.9171890652925E+00
(PID.TID 0000.0001) %MON ke_mean                      =   1.5716880137967E-03
(PID.TID 0000.0001) %MON ke_vol                       =   1.3350064351420E+18
(PID.TID 0000.0001) %MON vort_r_min                   =  -8.2367929781310E-05
(PID.TID 0000.0001) %MON vort_r_max                   =   8.8239361618485E-05
(PID.TID 0000.0001) %MON vort_a_mean                  =  -1.9725080316563E-05
(PID.TID 0000.0001) %MON vort_a_sd                    =   7.4541657157416E-05
(PID.TID 0000.0001) %MON vort_p_mean                  =  -2.1669085615380E-05
(PID.TID 0000.0001) %MON vort_p_sd                    =   9.3618121351562E-05
(PID.TID 0000.0001) %MON surfExpan_theta_mean         =   8.8295222565269E-06
(PID.TID 0000.0001) %MON surfExpan_salt_mean          =   2.2068348034039E-06
(PID.TID 0000.0001) // =======================================================
(PID.TID 0000.0001) // End MONITOR dynamic field statistics
(PID.TID 0000.0001) // =======================================================
(PID.TID 0000.0001) // =======================================================
(PID.TID 0000.0001) // Begin MONITOR SEAICE statistics
(PID.TID 0000.0001) // =======================================================
(PID.TID 0000.0001) %MON seaice_tsnumber              =                174869
(PID.TID 0000.0001) %MON seaice_time_sec              =   7.8691050000000E+07
(PID.TID 0000.0001) %MON seaice_uice_max              =   1.2607851371289E+00
(PID.TID 0000.0001) %MON seaice_uice_min              =  -1.1954345716991E+00
(PID.TID 0000.0001) %MON seaice_uice_mean             =   1.1151362568767E-02
(PID.TID 0000.0001) %MON seaice_uice_sd               =   1.4883893063426E-01
(PID.TID 0000.0001) %MON seaice_uice_del2             =   3.6402950998860E-04
(PID.TID 0000.0001) %MON seaice_vice_max              =   1.0559724144378E+00
(PID.TID 0000.0001) %MON seaice_vice_min              =  -1.4658351279195E+00
(PID.TID 0000.0001) %MON seaice_vice_mean             =  -1.4799734995901E-02
(PID.TID 0000.0001) %MON seaice_vice_sd               =   1.6065797777466E-01
(PID.TID 0000.0001) %MON seaice_vice_del2             =   3.4477690099380E-04
(PID.TID 0000.0001) %MON seaice_area_max              =   1.0024526597807E+00
(PID.TID 0000.0001) %MON seaice_area_min              =   0.0000000000000E+00
(PID.TID 0000.0001) %MON seaice_area_mean             =   5.7573283183428E-02
(PID.TID 0000.0001) %MON seaice_area_sd               =   2.2082029706971E-01
(PID.TID 0000.0001) %MON seaice_area_del2             =   2.8614210705010E-04
(PID.TID 0000.0001) %MON seaice_heff_max              =   9.9475207256447E+00
(PID.TID 0000.0001) %MON seaice_heff_min              =   0.0000000000000E+00
(PID.TID 0000.0001) %MON seaice_heff_mean             =   1.4939750193593E-01
(PID.TID 0000.0001) %MON seaice_heff_sd               =   7.1961855341425E-01
(PID.TID 0000.0001) %MON seaice_heff_del2             =   1.3392794635592E-03
(PID.TID 0000.0001) %MON seaice_hsnow_max             =   3.2856901553028E+00
(PID.TID 0000.0001) %MON seaice_hsnow_min             =   0.0000000000000E+00
(PID.TID 0000.0001) %MON seaice_hsnow_mean            =   1.2609303428419E-02
(PID.TID 0000.0001) %MON seaice_hsnow_sd              =   6.7743748687415E-02
(PID.TID 0000.0001) %MON seaice_hsnow_del2            =   3.6160646019418E-04
(PID.TID 0000.0001) // =======================================================
(PID.TID 0000.0001) // End MONITOR SEAICE statistics
(PID.TID 0000.0001) // =======================================================
(PID.TID 0000.0001) // =======================================================
(PID.TID 0000.0001) // Begin MONITOR dynamic field statistics
(PID.TID 0000.0001) // =======================================================
(PID.TID 0000.0001) %MON time_tsnumber                =                174870
(PID.TID 0000.0001) %MON time_secondsf                =   7.8691500000000E+07
(PID.TID 0000.0001) %MON dynstat_eta_max              =   2.0431860992911E+00
(PID.TID 0000.0001) %MON dynstat_eta_min              =  -1.0423690722565E+01
(PID.TID 0000.0001) %MON dynstat_eta_mean             =   9.2374522487480E-02
(PID.TID 0000.0001) %MON dynstat_eta_sd               =   9.3713196113074E-01
(PID.TID 0000.0001) %MON dynstat_eta_del2             =   2.0119072343225E-03
(PID.TID 0000.0001) %MON dynstat_uvel_max             =   1.7123821801577E+00
(PID.TID 0000.0001) %MON dynstat_uvel_min             =  -2.3393669083693E+00
(PID.TID 0000.0001) %MON dynstat_uvel_mean            =   7.6087932778003E-03
(PID.TID 0000.0001) %MON dynstat_uvel_sd              =   3.9949715036605E-02
(PID.TID 0000.0001) %MON dynstat_uvel_del2            =   4.0936627905553E-05
(PID.TID 0000.0001) %MON dynstat_vvel_max             =   1.7431726281895E+00
(PID.TID 0000.0001) %MON dynstat_vvel_min             =  -1.9638783765377E+00
(PID.TID 0000.0001) %MON dynstat_vvel_mean            =   3.7541263624777E-03
(PID.TID 0000.0001) %MON dynstat_vvel_sd              =   4.0319529512788E-02
(PID.TID 0000.0001) %MON dynstat_vvel_del2            =   3.9561340872309E-05
(PID.TID 0000.0001) %MON dynstat_wvel_max             =   9.0498171413253E-03
(PID.TID 0000.0001) %MON dynstat_wvel_min             =  -8.2858513805863E-03
(PID.TID 0000.0001) %MON dynstat_wvel_mean            =   3.5459287889277E-07
(PID.TID 0000.0001) %MON dynstat_wvel_sd              =   1.6330932229942E-04
(PID.TID 0000.0001) %MON dynstat_wvel_del2            =   3.4983825242724E-07
(PID.TID 0000.0001) %MON dynstat_theta_max            =   3.2441744457275E+01
(PID.TID 0000.0001) %MON dynstat_theta_min            =  -2.0460312070159E+00
(PID.TID 0000.0001) %MON dynstat_theta_mean           =   3.5918467535482E+00
(PID.TID 0000.0001) %MON dynstat_theta_sd             =   4.4415561986232E+00
(PID.TID 0000.0001) %MON dynstat_theta_del2           =   1.2764828580332E-04
(PID.TID 0000.0001) %MON dynstat_salt_max             =   4.0655989611228E+01
(PID.TID 0000.0001) %MON dynstat_salt_min             =   1.5948281781701E+01
(PID.TID 0000.0001) %MON dynstat_salt_mean            =   3.4724794024969E+01
(PID.TID 0000.0001) %MON dynstat_salt_sd              =   3.7974012035737E-01
(PID.TID 0000.0001) %MON dynstat_salt_del2            =   6.3514150046636E-05
(PID.TID 0000.0001) %MON dynstat_sst_max              =   3.2441744457275E+01
(PID.TID 0000.0001) %MON dynstat_sst_min              =  -2.0460312070159E+00
(PID.TID 0000.0001) %MON dynstat_sst_mean             =   1.8172285697131E+01
(PID.TID 0000.0001) %MON dynstat_sst_sd               =   1.0202286692329E+01
(PID.TID 0000.0001) %MON dynstat_sst_del2             =   1.1036050615668E-03
(PID.TID 0000.0001) %MON dynstat_sss_max              =   3.9462794005735E+01
(PID.TID 0000.0001) %MON dynstat_sss_min              =   1.5948281781701E+01
(PID.TID 0000.0001) %MON dynstat_sss_mean             =   3.4641683853073E+01
(PID.TID 0000.0001) %MON dynstat_sss_sd               =   1.3027193099949E+00
(PID.TID 0000.0001) %MON dynstat_sss_del2             =   1.4686573532530E-03
(PID.TID 0000.0001) %MON forcing_qnet_max             =   8.7927203362088E+02
(PID.TID 0000.0001) %MON forcing_qnet_min             =  -1.3377502441406E+03
(PID.TID 0000.0001) %MON forcing_qnet_mean            =   2.7317597344874E+01
(PID.TID 0000.0001) %MON forcing_qnet_sd              =   1.9123480398366E+02
(PID.TID 0000.0001) %MON forcing_qnet_del2            =   3.7542814266415E-01
(PID.TID 0000.0001) %MON forcing_qsw_max              =   0.0000000000000E+00
(PID.TID 0000.0001) %MON forcing_qsw_min              =  -1.0783401412023E+02
(PID.TID 0000.0001) %MON forcing_qsw_mean             =  -1.5656370327290E+01
(PID.TID 0000.0001) %MON forcing_qsw_sd               =   2.6293070570947E+01
(PID.TID 0000.0001) %MON forcing_qsw_del2             =   2.1606644965185E-02
(PID.TID 0000.0001) %MON forcing_empmr_max            =   2.9169650748372E-02
(PID.TID 0000.0001) %MON forcing_empmr_min            =  -4.2346157133579E-02
(PID.TID 0000.0001) %MON forcing_empmr_mean           =  -2.9535526417030E-06
(PID.TID 0000.0001) %MON forcing_empmr_sd             =   3.1112116176786E-04
(PID.TID 0000.0001) %MON forcing_empmr_del2           =   3.6425357505648E-06
(PID.TID 0000.0001) %MON forcing_fu_max               =   8.5196694731712E-01
(PID.TID 0000.0001) %MON forcing_fu_min               =  -1.3821709912962E+00
(PID.TID 0000.0001) %MON forcing_fu_mean              =   1.0944872395919E-02
(PID.TID 0000.0001) %MON forcing_fu_sd                =   1.2693206559734E-01
(PID.TID 0000.0001) %MON forcing_fu_del2              =   1.7267371024268E-04
(PID.TID 0000.0001) %MON forcing_fv_max               =   1.1671392263380E+00
(PID.TID 0000.0001) %MON forcing_fv_min               =  -1.8006805088307E+00
(PID.TID 0000.0001) %MON forcing_fv_mean              =  -1.0640419387303E-04
(PID.TID 0000.0001) %MON forcing_fv_sd                =   1.1711842848071E-01
(PID.TID 0000.0001) %MON forcing_fv_del2              =   1.5589921951924E-04
(PID.TID 0000.0001) %MON trAdv_CFL_u_max              =   2.4129771782446E-02
(PID.TID 0000.0001) %MON trAdv_CFL_v_max              =   1.7686607607563E-02
(PID.TID 0000.0001) %MON trAdv_CFL_w_max              =   9.5092149981605E-02
(PID.TID 0000.0001) %MON advcfl_uvel_max              =   2.4452541092942E-02
(PID.TID 0000.0001) %MON advcfl_vvel_max              =   1.7629614615999E-02
(PID.TID 0000.0001) %MON advcfl_wvel_max              =   9.0071897075135E-02
(PID.TID 0000.0001) %MON advcfl_W_hf_max              =   9.5092149981605E-02
(PID.TID 0000.0001) %MON pe_b_mean                    =   2.6414592996721E-03
(PID.TID 0000.0001) %MON ke_max                       =   1.9276451792981E+00
(PID.TID 0000.0001) %MON ke_mean                      =   1.5881543411238E-03
(PID.TID 0000.0001) %MON ke_vol                       =   1.3350064351420E+18
(PID.TID 0000.0001) %MON vort_r_min                   =  -8.2153265593855E-05
(PID.TID 0000.0001) %MON vort_r_max                   =   8.8040137876280E-05
(PID.TID 0000.0001) %MON vort_a_mean                  =  -1.9725080167446E-05
(PID.TID 0000.0001) %MON vort_a_sd                    =   7.4541685679209E-05
(PID.TID 0000.0001) %MON vort_p_mean                  =  -2.1669085451566E-05
(PID.TID 0000.0001) %MON vort_p_sd                    =   9.3618189853289E-05
(PID.TID 0000.0001) %MON surfExpan_theta_mean         =   8.8665180310418E-06
(PID.TID 0000.0001) %MON surfExpan_salt_mean          =   2.3052737021293E-06
(PID.TID 0000.0001) // =======================================================
(PID.TID 0000.0001) // End MONITOR dynamic field statistics
(PID.TID 0000.0001) // =======================================================
(PID.TID 0000.0001) // =======================================================
(PID.TID 0000.0001) // Begin MONITOR SEAICE statistics
(PID.TID 0000.0001) // =======================================================
(PID.TID 0000.0001) %MON seaice_tsnumber              =                174870
(PID.TID 0000.0001) %MON seaice_time_sec              =   7.8691500000000E+07
(PID.TID 0000.0001) %MON seaice_uice_max              =   1.2616583191988E+00
(PID.TID 0000.0001) %MON seaice_uice_min              =  -1.2103404987076E+00
(PID.TID 0000.0001) %MON seaice_uice_mean             =   1.1252237616318E-02
(PID.TID 0000.0001) %MON seaice_uice_sd               =   1.4883496753472E-01
(PID.TID 0000.0001) %MON seaice_uice_del2             =   3.6468066325250E-04
(PID.TID 0000.0001) %MON seaice_vice_max              =   1.0648339446617E+00
(PID.TID 0000.0001) %MON seaice_vice_min              =  -1.4657128959512E+00
(PID.TID 0000.0001) %MON seaice_vice_mean             =  -1.4644921404641E-02
(PID.TID 0000.0001) %MON seaice_vice_sd               =   1.6066471730531E-01
(PID.TID 0000.0001) %MON seaice_vice_del2             =   3.4536212782600E-04
(PID.TID 0000.0001) %MON seaice_area_max              =   1.0024615730693E+00
(PID.TID 0000.0001) %MON seaice_area_min              =   0.0000000000000E+00
(PID.TID 0000.0001) %MON seaice_area_mean             =   5.7575559394488E-02
(PID.TID 0000.0001) %MON seaice_area_sd               =   2.2081803916788E-01
(PID.TID 0000.0001) %MON seaice_area_del2             =   2.8607629835014E-04
(PID.TID 0000.0001) %MON seaice_heff_max              =   9.9475112090857E+00
(PID.TID 0000.0001) %MON seaice_heff_min              =   0.0000000000000E+00
(PID.TID 0000.0001) %MON seaice_heff_mean             =   1.4939382165024E-01
(PID.TID 0000.0001) %MON seaice_heff_sd               =   7.1960735956170E-01
(PID.TID 0000.0001) %MON seaice_heff_del2             =   1.3386483832742E-03
(PID.TID 0000.0001) %MON seaice_hsnow_max             =   3.2856869887831E+00
(PID.TID 0000.0001) %MON seaice_hsnow_min             =   0.0000000000000E+00
(PID.TID 0000.0001) %MON seaice_hsnow_mean            =   1.2608637491336E-02
(PID.TID 0000.0001) %MON seaice_hsnow_sd              =   6.7733825607970E-02
(PID.TID 0000.0001) %MON seaice_hsnow_del2            =   3.6131616584657E-04
(PID.TID 0000.0001) // =======================================================
(PID.TID 0000.0001) // End MONITOR SEAICE statistics
(PID.TID 0000.0001) // =======================================================
(PID.TID 0000.0001) // =======================================================
(PID.TID 0000.0001) // Begin MONITOR dynamic field statistics
(PID.TID 0000.0001) // =======================================================
(PID.TID 0000.0001) %MON time_tsnumber                =                174871
(PID.TID 0000.0001) %MON time_secondsf                =   7.8691950000000E+07
(PID.TID 0000.0001) %MON dynstat_eta_max              =   2.0428826126263E+00
(PID.TID 0000.0001) %MON dynstat_eta_min              =  -1.0409574314477E+01
(PID.TID 0000.0001) %MON dynstat_eta_mean             =   9.2425085200513E-02
(PID.TID 0000.0001) %MON dynstat_eta_sd               =   9.3826202515779E-01
(PID.TID 0000.0001) %MON dynstat_eta_del2             =   2.0118579921362E-03
(PID.TID 0000.0001) %MON dynstat_uvel_max             =   1.6995141248196E+00
(PID.TID 0000.0001) %MON dynstat_uvel_min             =  -2.3343033804150E+00
(PID.TID 0000.0001) %MON dynstat_uvel_mean            =   7.6396813997912E-03
(PID.TID 0000.0001) %MON dynstat_uvel_sd              =   4.0148903715966E-02
(PID.TID 0000.0001) %MON dynstat_uvel_del2            =   4.1033190305783E-05
(PID.TID 0000.0001) %MON dynstat_vvel_max             =   1.7496194256464E+00
(PID.TID 0000.0001) %MON dynstat_vvel_min             =  -1.9573756204311E+00
(PID.TID 0000.0001) %MON dynstat_vvel_mean            =   3.7441353852014E-03
(PID.TID 0000.0001) %MON dynstat_vvel_sd              =   4.0542589836440E-02
(PID.TID 0000.0001) %MON dynstat_vvel_del2            =   3.9664552962917E-05
(PID.TID 0000.0001) %MON dynstat_wvel_max             =   9.0770250986819E-03
(PID.TID 0000.0001) %MON dynstat_wvel_min             =  -8.3569345848815E-03
(PID.TID 0000.0001) %MON dynstat_wvel_mean            =   3.5602724285123E-07
(PID.TID 0000.0001) %MON dynstat_wvel_sd              =   1.6410168767905E-04
(PID.TID 0000.0001) %MON dynstat_wvel_del2            =   3.5113911215216E-07
(PID.TID 0000.0001) %MON dynstat_theta_max            =   3.2442412308637E+01
(PID.TID 0000.0001) %MON dynstat_theta_min            =  -2.0458883852091E+00
(PID.TID 0000.0001) %MON dynstat_theta_mean           =   3.5918448779483E+00
(PID.TID 0000.0001) %MON dynstat_theta_sd             =   4.4415486600163E+00
(PID.TID 0000.0001) %MON dynstat_theta_del2           =   1.2769638857809E-04
(PID.TID 0000.0001) %MON dynstat_salt_max             =   4.0655989611066E+01
(PID.TID 0000.0001) %MON dynstat_salt_min             =   1.5947496498885E+01
(PID.TID 0000.0001) %MON dynstat_salt_mean            =   3.4724794128070E+01
(PID.TID 0000.0001) %MON dynstat_salt_sd              =   3.7974038806353E-01
(PID.TID 0000.0001) %MON dynstat_salt_del2            =   6.3479117196386E-05
(PID.TID 0000.0001) %MON dynstat_sst_max              =   3.2442412308637E+01
(PID.TID 0000.0001) %MON dynstat_sst_min              =  -2.0458883852091E+00
(PID.TID 0000.0001) %MON dynstat_sst_mean             =   1.8172130138826E+01
(PID.TID 0000.0001) %MON dynstat_sst_sd               =   1.0202367639857E+01
(PID.TID 0000.0001) %MON dynstat_sst_del2             =   1.1034192450964E-03
(PID.TID 0000.0001) %MON dynstat_sss_max              =   3.9462783506858E+01
(PID.TID 0000.0001) %MON dynstat_sss_min              =   1.5947496498885E+01
(PID.TID 0000.0001) %MON dynstat_sss_mean             =   3.4641661019558E+01
(PID.TID 0000.0001) %MON dynstat_sss_sd               =   1.3027582919526E+00
(PID.TID 0000.0001) %MON dynstat_sss_del2             =   1.4684243878035E-03
(PID.TID 0000.0001) %MON forcing_qnet_max             =   9.2378155965091E+02
(PID.TID 0000.0001) %MON forcing_qnet_min             =  -2.1630761718750E+03
(PID.TID 0000.0001) %MON forcing_qnet_mean            =   2.6757065894138E+01
(PID.TID 0000.0001) %MON forcing_qnet_sd              =   1.9206494876820E+02
(PID.TID 0000.0001) %MON forcing_qnet_del2            =   4.0221659193935E-01
(PID.TID 0000.0001) %MON forcing_qsw_max              =   0.0000000000000E+00
(PID.TID 0000.0001) %MON forcing_qsw_min              =  -1.0818945957466E+02
(PID.TID 0000.0001) %MON forcing_qsw_mean             =  -1.5715485652754E+01
(PID.TID 0000.0001) %MON forcing_qsw_sd               =   2.6467916380078E+01
(PID.TID 0000.0001) %MON forcing_qsw_del2             =   2.1670450525752E-02
(PID.TID 0000.0001) %MON forcing_empmr_max            =   3.0942926183343E-02
(PID.TID 0000.0001) %MON forcing_empmr_min            =  -4.2852420359850E-02
(PID.TID 0000.0001) %MON forcing_empmr_mean           =  -2.8735142806290E-06
(PID.TID 0000.0001) %MON forcing_empmr_sd             =   3.1701658985404E-04
(PID.TID 0000.0001) %MON forcing_empmr_del2           =   3.7657453712152E-06
(PID.TID 0000.0001) %MON forcing_fu_max               =   8.4242868423462E-01
(PID.TID 0000.0001) %MON forcing_fu_min               =  -1.3822142850718E+00
(PID.TID 0000.0001) %MON forcing_fu_mean              =   1.0917210388426E-02
(PID.TID 0000.0001) %MON forcing_fu_sd                =   1.2694040985042E-01
(PID.TID 0000.0001) %MON forcing_fu_del2              =   1.7259778250812E-04
(PID.TID 0000.0001) %MON forcing_fv_max               =   1.1704693820524E+00
(PID.TID 0000.0001) %MON forcing_fv_min               =  -1.8011338993532E+00
(PID.TID 0000.0001) %MON forcing_fv_mean              =  -8.0037430021278E-05
(PID.TID 0000.0001) %MON forcing_fv_sd                =   1.1726873549192E-01
(PID.TID 0000.0001) %MON forcing_fv_del2              =   1.5601186837792E-04
(PID.TID 0000.0001) %MON trAdv_CFL_u_max              =   2.4077543218593E-02
(PID.TID 0000.0001) %MON trAdv_CFL_v_max              =   1.7810471247720E-02
(PID.TID 0000.0001) %MON trAdv_CFL_w_max              =   9.5458760912348E-02
(PID.TID 0000.0001) %MON advcfl_uvel_max              =   2.4399613899292E-02
(PID.TID 0000.0001) %MON advcfl_vvel_max              =   1.7753079120292E-02
(PID.TID 0000.0001) %MON advcfl_wvel_max              =   9.0411416309727E-02
(PID.TID 0000.0001) %MON advcfl_W_hf_max              =   9.5458760912348E-02
(PID.TID 0000.0001) %MON pe_b_mean                    =   2.6441386356336E-03
(PID.TID 0000.0001) %MON ke_max                       =   1.9380385772349E+00
(PID.TID 0000.0001) %MON ke_mean                      =   1.6047358935329E-03
(PID.TID 0000.0001) %MON ke_vol                       =   1.3350064351420E+18
(PID.TID 0000.0001) %MON vort_r_min                   =  -8.1932036414033E-05
(PID.TID 0000.0001) %MON vort_r_max                   =   8.7835735667190E-05
(PID.TID 0000.0001) %MON vort_a_mean                  =  -1.9725080014951E-05
(PID.TID 0000.0001) %MON vort_a_sd                    =   7.4541713898500E-05
(PID.TID 0000.0001) %MON vort_p_mean                  =  -2.1669085284042E-05
(PID.TID 0000.0001) %MON vort_p_sd                    =   9.3618256756921E-05
(PID.TID 0000.0001) %MON surfExpan_theta_mean         =   8.9647646511580E-06
(PID.TID 0000.0001) %MON surfExpan_salt_mean          =   2.4259373495315E-06
(PID.TID 0000.0001) // =======================================================
(PID.TID 0000.0001) // End MONITOR dynamic field statistics
(PID.TID 0000.0001) // =======================================================
(PID.TID 0000.0001) // =======================================================
(PID.TID 0000.0001) // Begin MONITOR SEAICE statistics
(PID.TID 0000.0001) // =======================================================
(PID.TID 0000.0001) %MON seaice_tsnumber              =                174871
(PID.TID 0000.0001) %MON seaice_time_sec              =   7.8691950000000E+07
(PID.TID 0000.0001) %MON seaice_uice_max              =   1.2724935818587E+00
(PID.TID 0000.0001) %MON seaice_uice_min              =  -1.2255439437483E+00
(PID.TID 0000.0001) %MON seaice_uice_mean             =   1.1335241749193E-02
(PID.TID 0000.0001) %MON seaice_uice_sd               =   1.4884221398744E-01
(PID.TID 0000.0001) %MON seaice_uice_del2             =   3.6532865476421E-04
(PID.TID 0000.0001) %MON seaice_vice_max              =   1.0738389030066E+00
(PID.TID 0000.0001) %MON seaice_vice_min              =  -1.4656213446714E+00
(PID.TID 0000.0001) %MON seaice_vice_mean             =  -1.4493985378261E-02
(PID.TID 0000.0001) %MON seaice_vice_sd               =   1.6067196156293E-01
(PID.TID 0000.0001) %MON seaice_vice_del2             =   3.4598195154165E-04
(PID.TID 0000.0001) %MON seaice_area_max              =   1.0024645228096E+00
(PID.TID 0000.0001) %MON seaice_area_min              =   0.0000000000000E+00
(PID.TID 0000.0001) %MON seaice_area_mean             =   5.7577813049587E-02
(PID.TID 0000.0001) %MON seaice_area_sd               =   2.2081560233513E-01
(PID.TID 0000.0001) %MON seaice_area_del2             =   2.8601203179500E-04
(PID.TID 0000.0001) %MON seaice_heff_max              =   9.9475026457473E+00
(PID.TID 0000.0001) %MON seaice_heff_min              =   0.0000000000000E+00
(PID.TID 0000.0001) %MON seaice_heff_mean             =   1.4939015061014E-01
(PID.TID 0000.0001) %MON seaice_heff_sd               =   7.1959621376642E-01
(PID.TID 0000.0001) %MON seaice_heff_del2             =   1.3380210829012E-03
(PID.TID 0000.0001) %MON seaice_hsnow_max             =   3.2856838232309E+00
(PID.TID 0000.0001) %MON seaice_hsnow_min             =   0.0000000000000E+00
(PID.TID 0000.0001) %MON seaice_hsnow_mean            =   1.2607958395317E-02
(PID.TID 0000.0001) %MON seaice_hsnow_sd              =   6.7723841020955E-02
(PID.TID 0000.0001) %MON seaice_hsnow_del2            =   3.6102503785574E-04
(PID.TID 0000.0001) // =======================================================
(PID.TID 0000.0001) // End MONITOR SEAICE statistics
(PID.TID 0000.0001) // =======================================================
(PID.TID 0000.0001) // =======================================================
(PID.TID 0000.0001) // Begin MONITOR dynamic field statistics
(PID.TID 0000.0001) // =======================================================
(PID.TID 0000.0001) %MON time_tsnumber                =                174872
(PID.TID 0000.0001) %MON time_secondsf                =   7.8692400000000E+07
(PID.TID 0000.0001) %MON dynstat_eta_max              =   2.0963842362904E+00
(PID.TID 0000.0001) %MON dynstat_eta_min              =  -1.0394981221106E+01
(PID.TID 0000.0001) %MON dynstat_eta_mean             =   9.2476785042407E-02
(PID.TID 0000.0001) %MON dynstat_eta_sd               =   9.3943557186197E-01
(PID.TID 0000.0001) %MON dynstat_eta_del2             =   2.0117989910494E-03
(PID.TID 0000.0001) %MON dynstat_uvel_max             =   1.6865806451763E+00
(PID.TID 0000.0001) %MON dynstat_uvel_min             =  -2.3291341855500E+00
(PID.TID 0000.0001) %MON dynstat_uvel_mean            =   7.6654673409155E-03
(PID.TID 0000.0001) %MON dynstat_uvel_sd              =   4.0349514792915E-02
(PID.TID 0000.0001) %MON dynstat_uvel_del2            =   4.1130477795135E-05
(PID.TID 0000.0001) %MON dynstat_vvel_max             =   1.7619222226634E+00
(PID.TID 0000.0001) %MON dynstat_vvel_min             =  -1.9507926629237E+00
(PID.TID 0000.0001) %MON dynstat_vvel_mean            =   3.7336203616212E-03
(PID.TID 0000.0001) %MON dynstat_vvel_sd              =   4.0765972029707E-02
(PID.TID 0000.0001) %MON dynstat_vvel_del2            =   3.9769004276811E-05
(PID.TID 0000.0001) %MON dynstat_wvel_max             =   9.1042083125464E-03
(PID.TID 0000.0001) %MON dynstat_wvel_min             =  -8.4272426011621E-03
(PID.TID 0000.0001) %MON dynstat_wvel_mean            =   3.5777228175242E-07
(PID.TID 0000.0001) %MON dynstat_wvel_sd              =   1.6489052884974E-04
(PID.TID 0000.0001) %MON dynstat_wvel_del2            =   3.5243820634758E-07
(PID.TID 0000.0001) %MON dynstat_theta_max            =   3.2443063716389E+01
(PID.TID 0000.0001) %MON dynstat_theta_min            =  -2.0457314892738E+00
(PID.TID 0000.0001) %MON dynstat_theta_mean           =   3.5918430010358E+00
(PID.TID 0000.0001) %MON dynstat_theta_sd             =   4.4415411883584E+00
(PID.TID 0000.0001) %MON dynstat_theta_del2           =   1.2774612982336E-04
(PID.TID 0000.0001) %MON dynstat_salt_max             =   4.0655989610903E+01
(PID.TID 0000.0001) %MON dynstat_salt_min             =   1.5946715798224E+01
(PID.TID 0000.0001) %MON dynstat_salt_mean            =   3.4724794227619E+01
(PID.TID 0000.0001) %MON dynstat_salt_sd              =   3.7974067460317E-01
(PID.TID 0000.0001) %MON dynstat_salt_del2            =   6.3444294995162E-05
(PID.TID 0000.0001) %MON dynstat_sst_max              =   3.2443063716389E+01
(PID.TID 0000.0001) %MON dynstat_sst_min              =  -2.0457314892738E+00
(PID.TID 0000.0001) %MON dynstat_sst_mean             =   1.8171982424743E+01
(PID.TID 0000.0001) %MON dynstat_sst_sd               =   1.0202451488347E+01
(PID.TID 0000.0001) %MON dynstat_sst_del2             =   1.1032801872109E-03
(PID.TID 0000.0001) %MON dynstat_sss_max              =   3.9462774717933E+01
(PID.TID 0000.0001) %MON dynstat_sss_min              =   1.5946715798224E+01
(PID.TID 0000.0001) %MON dynstat_sss_mean             =   3.4641639294996E+01
(PID.TID 0000.0001) %MON dynstat_sss_sd               =   1.3027963416345E+00
(PID.TID 0000.0001) %MON dynstat_sss_del2             =   1.4682235877177E-03
(PID.TID 0000.0001) %MON forcing_qnet_max             =   9.4594589816915E+02
(PID.TID 0000.0001) %MON forcing_qnet_min             =  -2.4186520996094E+03
(PID.TID 0000.0001) %MON forcing_qnet_mean            =   2.6136222879414E+01
(PID.TID 0000.0001) %MON forcing_qnet_sd              =   1.9246135221049E+02
(PID.TID 0000.0001) %MON forcing_qnet_del2            =   4.1370725309600E-01
(PID.TID 0000.0001) %MON forcing_qsw_max              =   0.0000000000000E+00
(PID.TID 0000.0001) %MON forcing_qsw_min              =  -1.0842896044342E+02
(PID.TID 0000.0001) %MON forcing_qsw_mean             =  -1.5764267311363E+01
(PID.TID 0000.0001) %MON forcing_qsw_sd               =   2.6637914804912E+01
(PID.TID 0000.0001) %MON forcing_qsw_del2             =   2.1725310117411E-02
(PID.TID 0000.0001) %MON forcing_empmr_max            =   3.0790474265814E-02
(PID.TID 0000.0001) %MON forcing_empmr_min            =  -4.2909193783998E-02
(PID.TID 0000.0001) %MON forcing_empmr_mean           =  -2.7520680722450E-06
(PID.TID 0000.0001) %MON forcing_empmr_sd             =   3.1308350779110E-04
(PID.TID 0000.0001) %MON forcing_empmr_del2           =   3.6389991099748E-06
(PID.TID 0000.0001) %MON forcing_fu_max               =   8.4680077433586E-01
(PID.TID 0000.0001) %MON forcing_fu_min               =  -1.3835438347506E+00
(PID.TID 0000.0001) %MON forcing_fu_mean              =   1.0891440747401E-02
(PID.TID 0000.0001) %MON forcing_fu_sd                =   1.2694927889884E-01
(PID.TID 0000.0001) %MON forcing_fu_del2              =   1.7236389833329E-04
(PID.TID 0000.0001) %MON forcing_fv_max               =   1.1749927392411E+00
(PID.TID 0000.0001) %MON forcing_fv_min               =  -1.8003477572825E+00
(PID.TID 0000.0001) %MON forcing_fv_mean              =  -5.9848693815031E-05
(PID.TID 0000.0001) %MON forcing_fv_sd                =   1.1740157019567E-01
(PID.TID 0000.0001) %MON forcing_fv_del2              =   1.5622330913978E-04
(PID.TID 0000.0001) %MON trAdv_CFL_u_max              =   2.4024224736594E-02
(PID.TID 0000.0001) %MON trAdv_CFL_v_max              =   1.7935709119068E-02
(PID.TID 0000.0001) %MON trAdv_CFL_w_max              =   9.5829168775017E-02
(PID.TID 0000.0001) %MON advcfl_uvel_max              =   2.4345582208324E-02
(PID.TID 0000.0001) %MON advcfl_vvel_max              =   1.7877913427480E-02
(PID.TID 0000.0001) %MON advcfl_wvel_max              =   9.0755430538281E-02
(PID.TID 0000.0001) %MON advcfl_W_hf_max              =   9.5829168775017E-02
(PID.TID 0000.0001) %MON pe_b_mean                    =   2.6469715869534E-03
(PID.TID 0000.0001) %MON ke_max                       =   1.9483632519359E+00
(PID.TID 0000.0001) %MON ke_mean                      =   1.6214330929971E-03
(PID.TID 0000.0001) %MON ke_vol                       =   1.3350064351420E+18
(PID.TID 0000.0001) %MON vort_r_min                   =  -8.1704098877708E-05
(PID.TID 0000.0001) %MON vort_r_max                   =   8.7626024115816E-05
(PID.TID 0000.0001) %MON vort_a_mean                  =  -1.9725079860140E-05
(PID.TID 0000.0001) %MON vort_a_sd                    =   7.4541741846484E-05
(PID.TID 0000.0001) %MON vort_p_mean                  =  -2.1669085113974E-05
(PID.TID 0000.0001) %MON vort_p_sd                    =   9.3618322423856E-05
(PID.TID 0000.0001) %MON surfExpan_theta_mean         =   9.1060161678731E-06
(PID.TID 0000.0001) %MON surfExpan_salt_mean          =   2.5528981104093E-06
(PID.TID 0000.0001) // =======================================================
(PID.TID 0000.0001) // End MONITOR dynamic field statistics
(PID.TID 0000.0001) // =======================================================
(PID.TID 0000.0001) // =======================================================
(PID.TID 0000.0001) // Begin MONITOR SEAICE statistics
(PID.TID 0000.0001) // =======================================================
(PID.TID 0000.0001) %MON seaice_tsnumber              =                174872
(PID.TID 0000.0001) %MON seaice_time_sec              =   7.8692400000000E+07
(PID.TID 0000.0001) %MON seaice_uice_max              =   1.2724555297785E+00
(PID.TID 0000.0001) %MON seaice_uice_min              =  -1.2409852817860E+00
(PID.TID 0000.0001) %MON seaice_uice_mean             =   1.1410120162408E-02
(PID.TID 0000.0001) %MON seaice_uice_sd               =   1.4884838862431E-01
(PID.TID 0000.0001) %MON seaice_uice_del2             =   3.6596741052264E-04
(PID.TID 0000.0001) %MON seaice_vice_max              =   1.0810253610988E+00
(PID.TID 0000.0001) %MON seaice_vice_min              =  -1.4655628080071E+00
(PID.TID 0000.0001) %MON seaice_vice_mean             =  -1.4348314575894E-02
(PID.TID 0000.0001) %MON seaice_vice_sd               =   1.6068148699756E-01
(PID.TID 0000.0001) %MON seaice_vice_del2             =   3.4659863051201E-04
(PID.TID 0000.0001) %MON seaice_area_max              =   1.0024601006612E+00
(PID.TID 0000.0001) %MON seaice_area_min              =   0.0000000000000E+00
(PID.TID 0000.0001) %MON seaice_area_mean             =   5.7580090488709E-02
(PID.TID 0000.0001) %MON seaice_area_sd               =   2.2081318607817E-01
(PID.TID 0000.0001) %MON seaice_area_del2             =   2.8594613033602E-04
(PID.TID 0000.0001) %MON seaice_heff_max              =   9.9474940819497E+00
(PID.TID 0000.0001) %MON seaice_heff_min              =   0.0000000000000E+00
(PID.TID 0000.0001) %MON seaice_heff_mean             =   1.4938648883135E-01
(PID.TID 0000.0001) %MON seaice_heff_sd               =   7.1958512222789E-01
(PID.TID 0000.0001) %MON seaice_heff_del2             =   1.3373984197095E-03
(PID.TID 0000.0001) %MON seaice_hsnow_max             =   3.2856806568254E+00
(PID.TID 0000.0001) %MON seaice_hsnow_min             =   0.0000000000000E+00
(PID.TID 0000.0001) %MON seaice_hsnow_mean            =   1.2607282780233E-02
(PID.TID 0000.0001) %MON seaice_hsnow_sd              =   6.7713812658021E-02
(PID.TID 0000.0001) %MON seaice_hsnow_del2            =   3.6073309028252E-04
(PID.TID 0000.0001) // =======================================================
(PID.TID 0000.0001) // End MONITOR SEAICE statistics
(PID.TID 0000.0001) // =======================================================
(PID.TID 0000.0001) // =======================================================
(PID.TID 0000.0001) // Begin MONITOR dynamic field statistics
(PID.TID 0000.0001) // =======================================================
(PID.TID 0000.0001) %MON time_tsnumber                =                174873
(PID.TID 0000.0001) %MON time_secondsf                =   7.8692850000000E+07
(PID.TID 0000.0001) %MON dynstat_eta_max              =   2.1455050978442E+00
(PID.TID 0000.0001) %MON dynstat_eta_min              =  -1.0379930934813E+01
(PID.TID 0000.0001) %MON dynstat_eta_mean             =   9.2529614853045E-02
(PID.TID 0000.0001) %MON dynstat_eta_sd               =   9.4065191241280E-01
(PID.TID 0000.0001) %MON dynstat_eta_del2             =   2.0117296014600E-03
(PID.TID 0000.0001) %MON dynstat_uvel_max             =   1.6735924456503E+00
(PID.TID 0000.0001) %MON dynstat_uvel_min             =  -2.3238632016442E+00
(PID.TID 0000.0001) %MON dynstat_uvel_mean            =   7.6862393513620E-03
(PID.TID 0000.0001) %MON dynstat_uvel_sd              =   4.0551547890927E-02
(PID.TID 0000.0001) %MON dynstat_uvel_del2            =   4.1228498994927E-05
(PID.TID 0000.0001) %MON dynstat_vvel_max             =   1.7743019913256E+00
(PID.TID 0000.0001) %MON dynstat_vvel_min             =  -1.9441305456505E+00
(PID.TID 0000.0001) %MON dynstat_vvel_mean            =   3.7224923252074E-03
(PID.TID 0000.0001) %MON dynstat_vvel_sd              =   4.0989796592623E-02
(PID.TID 0000.0001) %MON dynstat_vvel_del2            =   3.9873893800637E-05
(PID.TID 0000.0001) %MON dynstat_wvel_max             =   9.1313597256193E-03
(PID.TID 0000.0001) %MON dynstat_wvel_min             =  -8.4967290845028E-03
(PID.TID 0000.0001) %MON dynstat_wvel_mean            =   3.5965692257980E-07
(PID.TID 0000.0001) %MON dynstat_wvel_sd              =   1.6567579685977E-04
(PID.TID 0000.0001) %MON dynstat_wvel_del2            =   3.5373499995244E-07
(PID.TID 0000.0001) %MON dynstat_theta_max            =   3.2443708632836E+01
(PID.TID 0000.0001) %MON dynstat_theta_min            =  -2.0455614563525E+00
(PID.TID 0000.0001) %MON dynstat_theta_mean           =   3.5918411079803E+00
(PID.TID 0000.0001) %MON dynstat_theta_sd             =   4.4415337369945E+00
(PID.TID 0000.0001) %MON dynstat_theta_del2           =   1.2779450527728E-04
(PID.TID 0000.0001) %MON dynstat_salt_max             =   4.0655989610739E+01
(PID.TID 0000.0001) %MON dynstat_salt_min             =   1.5945936662894E+01
(PID.TID 0000.0001) %MON dynstat_salt_mean            =   3.4724794320624E+01
(PID.TID 0000.0001) %MON dynstat_salt_sd              =   3.7974098124201E-01
(PID.TID 0000.0001) %MON dynstat_salt_del2            =   6.3409204824527E-05
(PID.TID 0000.0001) %MON dynstat_sst_max              =   3.2443708632836E+01
(PID.TID 0000.0001) %MON dynstat_sst_min              =  -2.0455614563525E+00
(PID.TID 0000.0001) %MON dynstat_sst_mean             =   1.8171840822613E+01
(PID.TID 0000.0001) %MON dynstat_sst_sd               =   1.0202536993397E+01
(PID.TID 0000.0001) %MON dynstat_sst_del2             =   1.1030230532518E-03
(PID.TID 0000.0001) %MON dynstat_sss_max              =   3.9462767385187E+01
(PID.TID 0000.0001) %MON dynstat_sss_min              =   1.5945936662894E+01
(PID.TID 0000.0001) %MON dynstat_sss_mean             =   3.4641617927324E+01
(PID.TID 0000.0001) %MON dynstat_sss_sd               =   1.3028325292244E+00
(PID.TID 0000.0001) %MON dynstat_sss_del2             =   1.4679774760237E-03
(PID.TID 0000.0001) %MON forcing_qnet_max             =   9.6210422619495E+02
(PID.TID 0000.0001) %MON forcing_qnet_min             =  -2.7107966308594E+03
(PID.TID 0000.0001) %MON forcing_qnet_mean            =   2.5827732752083E+01
(PID.TID 0000.0001) %MON forcing_qnet_sd              =   1.9277161192907E+02
(PID.TID 0000.0001) %MON forcing_qnet_del2            =   3.9908811173159E-01
(PID.TID 0000.0001) %MON forcing_qsw_max              =   0.0000000000000E+00
(PID.TID 0000.0001) %MON forcing_qsw_min              =  -1.0855197354694E+02
(PID.TID 0000.0001) %MON forcing_qsw_mean             =  -1.5803320036737E+01
(PID.TID 0000.0001) %MON forcing_qsw_sd               =   2.6802146325283E+01
(PID.TID 0000.0001) %MON forcing_qsw_del2             =   2.1771246370836E-02
(PID.TID 0000.0001) %MON forcing_empmr_max            =   2.8085978701711E-02
(PID.TID 0000.0001) %MON forcing_empmr_min            =  -4.2948834598064E-02
(PID.TID 0000.0001) %MON forcing_empmr_mean           =  -2.8113598160248E-06
(PID.TID 0000.0001) %MON forcing_empmr_sd             =   3.0791848804006E-04
(PID.TID 0000.0001) %MON forcing_empmr_del2           =   3.4781863723415E-06
(PID.TID 0000.0001) %MON forcing_fu_max               =   8.5452479124069E-01
(PID.TID 0000.0001) %MON forcing_fu_min               =  -1.3828620986413E+00
(PID.TID 0000.0001) %MON forcing_fu_mean              =   1.0878004093121E-02
(PID.TID 0000.0001) %MON forcing_fu_sd                =   1.2698558241093E-01
(PID.TID 0000.0001) %MON forcing_fu_del2              =   1.7233631939411E-04
(PID.TID 0000.0001) %MON forcing_fv_max               =   1.1763263117444E+00
(PID.TID 0000.0001) %MON forcing_fv_min               =  -1.7986540469038E+00
(PID.TID 0000.0001) %MON forcing_fv_mean              =  -3.9125420924518E-05
(PID.TID 0000.0001) %MON forcing_fv_sd                =   1.1751407289564E-01
(PID.TID 0000.0001) %MON forcing_fv_del2              =   1.5643980476217E-04
(PID.TID 0000.0001) %MON trAdv_CFL_u_max              =   2.3969856335356E-02
(PID.TID 0000.0001) %MON trAdv_CFL_v_max              =   1.8061730532971E-02
(PID.TID 0000.0001) %MON trAdv_CFL_w_max              =   9.6206171205509E-02
(PID.TID 0000.0001) %MON advcfl_uvel_max              =   2.4290486553984E-02
(PID.TID 0000.0001) %MON advcfl_vvel_max              =   1.8003528752350E-02
(PID.TID 0000.0001) %MON advcfl_wvel_max              =   9.1106707727206E-02
(PID.TID 0000.0001) %MON advcfl_W_hf_max              =   9.6206171205509E-02
(PID.TID 0000.0001) %MON pe_b_mean                    =   2.6499593183986E-03
(PID.TID 0000.0001) %MON ke_max                       =   1.9586111504329E+00
(PID.TID 0000.0001) %MON ke_mean                      =   1.6382516923545E-03
(PID.TID 0000.0001) %MON ke_vol                       =   1.3350064351420E+18
(PID.TID 0000.0001) %MON vort_r_min                   =  -8.1469554263852E-05
(PID.TID 0000.0001) %MON vort_r_max                   =   8.7411087936716E-05
(PID.TID 0000.0001) %MON vort_a_mean                  =  -1.9725079703396E-05
(PID.TID 0000.0001) %MON vort_a_sd                    =   7.4541769534338E-05
(PID.TID 0000.0001) %MON vort_p_mean                  =  -2.1669084941782E-05
(PID.TID 0000.0001) %MON vort_p_sd                    =   9.3618386497944E-05
(PID.TID 0000.0001) %MON surfExpan_theta_mean         =   9.2981254191587E-06
(PID.TID 0000.0001) %MON surfExpan_salt_mean          =   2.6844115529593E-06
(PID.TID 0000.0001) // =======================================================
(PID.TID 0000.0001) // End MONITOR dynamic field statistics
(PID.TID 0000.0001) // =======================================================
(PID.TID 0000.0001) // =======================================================
(PID.TID 0000.0001) // Begin MONITOR SEAICE statistics
(PID.TID 0000.0001) // =======================================================
(PID.TID 0000.0001) %MON seaice_tsnumber              =                174873
(PID.TID 0000.0001) %MON seaice_time_sec              =   7.8692850000000E+07
(PID.TID 0000.0001) %MON seaice_uice_max              =   1.2822177115735E+00
(PID.TID 0000.0001) %MON seaice_uice_min              =  -1.2565958090177E+00
(PID.TID 0000.0001) %MON seaice_uice_mean             =   1.1474293154700E-02
(PID.TID 0000.0001) %MON seaice_uice_sd               =   1.4886574465044E-01
(PID.TID 0000.0001) %MON seaice_uice_del2             =   3.6662515653744E-04
(PID.TID 0000.0001) %MON seaice_vice_max              =   1.0881542914019E+00
(PID.TID 0000.0001) %MON seaice_vice_min              =  -1.4655338573211E+00
(PID.TID 0000.0001) %MON seaice_vice_mean             =  -1.4210061278954E-02
(PID.TID 0000.0001) %MON seaice_vice_sd               =   1.6068967844213E-01
(PID.TID 0000.0001) %MON seaice_vice_del2             =   3.4730665071901E-04
(PID.TID 0000.0001) %MON seaice_area_max              =   1.0024487538873E+00
(PID.TID 0000.0001) %MON seaice_area_min              =   0.0000000000000E+00
(PID.TID 0000.0001) %MON seaice_area_mean             =   5.7582391061069E-02
(PID.TID 0000.0001) %MON seaice_area_sd               =   2.2081079159111E-01
(PID.TID 0000.0001) %MON seaice_area_del2             =   2.8587534627975E-04
(PID.TID 0000.0001) %MON seaice_heff_max              =   9.9474845639456E+00
(PID.TID 0000.0001) %MON seaice_heff_min              =   0.0000000000000E+00
(PID.TID 0000.0001) %MON seaice_heff_mean             =   1.4938283574270E-01
(PID.TID 0000.0001) %MON seaice_heff_sd               =   7.1957406954466E-01
(PID.TID 0000.0001) %MON seaice_heff_del2             =   1.3367800270572E-03
(PID.TID 0000.0001) %MON seaice_hsnow_max             =   3.2856779671550E+00
(PID.TID 0000.0001) %MON seaice_hsnow_min             =   0.0000000000000E+00
(PID.TID 0000.0001) %MON seaice_hsnow_mean            =   1.2606588907745E-02
(PID.TID 0000.0001) %MON seaice_hsnow_sd              =   6.7703679485502E-02
(PID.TID 0000.0001) %MON seaice_hsnow_del2            =   3.6044022144524E-04
(PID.TID 0000.0001) // =======================================================
(PID.TID 0000.0001) // End MONITOR SEAICE statistics
(PID.TID 0000.0001) // =======================================================
(PID.TID 0000.0001) // =======================================================
(PID.TID 0000.0001) // Begin MONITOR dynamic field statistics
(PID.TID 0000.0001) // =======================================================
(PID.TID 0000.0001) %MON time_tsnumber                =                174874
(PID.TID 0000.0001) %MON time_secondsf                =   7.8693300000000E+07
(PID.TID 0000.0001) %MON dynstat_eta_max              =   2.1899349076690E+00
(PID.TID 0000.0001) %MON dynstat_eta_min              =  -1.0364444463162E+01
(PID.TID 0000.0001) %MON dynstat_eta_mean             =   9.2583287946759E-02
(PID.TID 0000.0001) %MON dynstat_eta_sd               =   9.4191030701940E-01
(PID.TID 0000.0001) %MON dynstat_eta_del2             =   2.0116585943501E-03
(PID.TID 0000.0001) %MON dynstat_uvel_max             =   1.6605584812791E+00
(PID.TID 0000.0001) %MON dynstat_uvel_min             =  -2.3184936626105E+00
(PID.TID 0000.0001) %MON dynstat_uvel_mean            =   7.7021063423105E-03
(PID.TID 0000.0001) %MON dynstat_uvel_sd              =   4.0755037724293E-02
(PID.TID 0000.0001) %MON dynstat_uvel_del2            =   4.1327214203823E-05
(PID.TID 0000.0001) %MON dynstat_vvel_max             =   1.7867035116541E+00
(PID.TID 0000.0001) %MON dynstat_vvel_min             =  -1.9373928897116E+00
(PID.TID 0000.0001) %MON dynstat_vvel_mean            =   3.7106641484320E-03
(PID.TID 0000.0001) %MON dynstat_vvel_sd              =   4.1213957236223E-02
(PID.TID 0000.0001) %MON dynstat_vvel_del2            =   3.9979871812928E-05
(PID.TID 0000.0001) %MON dynstat_wvel_max             =   9.1584720717937E-03
(PID.TID 0000.0001) %MON dynstat_wvel_min             =  -8.5653905517441E-03
(PID.TID 0000.0001) %MON dynstat_wvel_mean            =   3.6147534227697E-07
(PID.TID 0000.0001) %MON dynstat_wvel_sd              =   1.6645800828737E-04
(PID.TID 0000.0001) %MON dynstat_wvel_del2            =   3.5502989587225E-07
(PID.TID 0000.0001) %MON dynstat_theta_max            =   3.2444330835244E+01
(PID.TID 0000.0001) %MON dynstat_theta_min            =  -2.0453793437100E+00
(PID.TID 0000.0001) %MON dynstat_theta_mean           =   3.5918391991211E+00
(PID.TID 0000.0001) %MON dynstat_theta_sd             =   4.4415263296447E+00
(PID.TID 0000.0001) %MON dynstat_theta_del2           =   1.2784366587886E-04
(PID.TID 0000.0001) %MON dynstat_salt_max             =   4.0655989610177E+01
(PID.TID 0000.0001) %MON dynstat_salt_min             =   1.5945155156941E+01
(PID.TID 0000.0001) %MON dynstat_salt_mean            =   3.4724794407885E+01
(PID.TID 0000.0001) %MON dynstat_salt_sd              =   3.7974129587871E-01
(PID.TID 0000.0001) %MON dynstat_salt_del2            =   6.3373992490147E-05
(PID.TID 0000.0001) %MON dynstat_sst_max              =   3.2444330835244E+01
(PID.TID 0000.0001) %MON dynstat_sst_min              =  -2.0453793437100E+00
(PID.TID 0000.0001) %MON dynstat_sst_mean             =   1.8171704151054E+01
(PID.TID 0000.0001) %MON dynstat_sst_sd               =   1.0202623453058E+01
(PID.TID 0000.0001) %MON dynstat_sst_del2             =   1.1028086296706E-03
(PID.TID 0000.0001) %MON dynstat_sss_max              =   3.9462761980312E+01
(PID.TID 0000.0001) %MON dynstat_sss_min              =   1.5945155156941E+01
(PID.TID 0000.0001) %MON dynstat_sss_mean             =   3.4641596783024E+01
(PID.TID 0000.0001) %MON dynstat_sss_sd               =   1.3028673190635E+00
(PID.TID 0000.0001) %MON dynstat_sss_del2             =   1.4677226457614E-03
(PID.TID 0000.0001) %MON forcing_qnet_max             =   9.7661141952120E+02
(PID.TID 0000.0001) %MON forcing_qnet_min             =  -7.8166279296875E+03
(PID.TID 0000.0001) %MON forcing_qnet_mean            =   2.5348237732103E+01
(PID.TID 0000.0001) %MON forcing_qnet_sd              =   1.9636911133316E+02
(PID.TID 0000.0001) %MON forcing_qnet_del2            =   4.9797349702393E-01
(PID.TID 0000.0001) %MON forcing_qsw_max              =   0.0000000000000E+00
(PID.TID 0000.0001) %MON forcing_qsw_min              =  -1.0874581695204E+02
(PID.TID 0000.0001) %MON forcing_qsw_mean             =  -1.5832954778561E+01
(PID.TID 0000.0001) %MON forcing_qsw_sd               =   2.6959881743265E+01
(PID.TID 0000.0001) %MON forcing_qsw_del2             =   2.1808206994498E-02
(PID.TID 0000.0001) %MON forcing_empmr_max            =   2.9793040826917E-02
(PID.TID 0000.0001) %MON forcing_empmr_min            =  -3.8915172219276E-02
(PID.TID 0000.0001) %MON forcing_empmr_mean           =  -2.5818101452624E-06
(PID.TID 0000.0001) %MON forcing_empmr_sd             =   3.0118401864588E-04
(PID.TID 0000.0001) %MON forcing_empmr_del2           =   3.4593945288301E-06
(PID.TID 0000.0001) %MON forcing_fu_max               =   8.6472240090370E-01
(PID.TID 0000.0001) %MON forcing_fu_min               =  -1.3840444106689E+00
(PID.TID 0000.0001) %MON forcing_fu_mean              =   1.0861338906577E-02
(PID.TID 0000.0001) %MON forcing_fu_sd                =   1.2702663259197E-01
(PID.TID 0000.0001) %MON forcing_fu_del2              =   1.7229494783070E-04
(PID.TID 0000.0001) %MON forcing_fv_max               =   1.1902694439949E+00
(PID.TID 0000.0001) %MON forcing_fv_min               =  -1.7956484590402E+00
(PID.TID 0000.0001) %MON forcing_fv_mean              =  -1.0676617985680E-05
(PID.TID 0000.0001) %MON forcing_fv_sd                =   1.1770206586894E-01
(PID.TID 0000.0001) %MON forcing_fv_del2              =   1.5674461939128E-04
(PID.TID 0000.0001) %MON trAdv_CFL_u_max              =   2.3914471371589E-02
(PID.TID 0000.0001) %MON trAdv_CFL_v_max              =   1.8187973370700E-02
(PID.TID 0000.0001) %MON trAdv_CFL_w_max              =   9.6589343466210E-02
(PID.TID 0000.0001) %MON advcfl_uvel_max              =   2.4234360739174E-02
(PID.TID 0000.0001) %MON advcfl_vvel_max              =   1.8129364787534E-02
(PID.TID 0000.0001) %MON advcfl_wvel_max              =   9.1464659989973E-02
(PID.TID 0000.0001) %MON advcfl_W_hf_max              =   9.6589343466210E-02
(PID.TID 0000.0001) %MON pe_b_mean                    =   2.6530937179851E-03
(PID.TID 0000.0001) %MON ke_max                       =   1.9687745507432E+00
(PID.TID 0000.0001) %MON ke_mean                      =   1.6551901636292E-03
(PID.TID 0000.0001) %MON ke_vol                       =   1.3350064351420E+18
(PID.TID 0000.0001) %MON vort_r_min                   =  -8.1228367496744E-05
(PID.TID 0000.0001) %MON vort_r_max                   =   8.7191038326842E-05
(PID.TID 0000.0001) %MON vort_a_mean                  =  -1.9725079545506E-05
(PID.TID 0000.0001) %MON vort_a_sd                    =   7.4541796991472E-05
(PID.TID 0000.0001) %MON vort_p_mean                  =  -2.1669084768331E-05
(PID.TID 0000.0001) %MON vort_p_sd                    =   9.3618449292426E-05
(PID.TID 0000.0001) %MON surfExpan_theta_mean         =   9.5354874442833E-06
(PID.TID 0000.0001) %MON surfExpan_salt_mean          =   2.8142701910498E-06
(PID.TID 0000.0001) // =======================================================
(PID.TID 0000.0001) // End MONITOR dynamic field statistics
(PID.TID 0000.0001) // =======================================================
(PID.TID 0000.0001) // =======================================================
(PID.TID 0000.0001) // Begin MONITOR SEAICE statistics
(PID.TID 0000.0001) // =======================================================
(PID.TID 0000.0001) %MON seaice_tsnumber              =                174874
(PID.TID 0000.0001) %MON seaice_time_sec              =   7.8693300000000E+07
(PID.TID 0000.0001) %MON seaice_uice_max              =   1.2812087900803E+00
(PID.TID 0000.0001) %MON seaice_uice_min              =  -1.2723147378451E+00
(PID.TID 0000.0001) %MON seaice_uice_mean             =   1.1531052853059E-02
(PID.TID 0000.0001) %MON seaice_uice_sd               =   1.4888476425889E-01
(PID.TID 0000.0001) %MON seaice_uice_del2             =   3.6728605072260E-04
(PID.TID 0000.0001) %MON seaice_vice_max              =   1.0934016569395E+00
(PID.TID 0000.0001) %MON seaice_vice_min              =  -1.4655334675785E+00
(PID.TID 0000.0001) %MON seaice_vice_mean             =  -1.4080032051474E-02
(PID.TID 0000.0001) %MON seaice_vice_sd               =   1.6070175505436E-01
(PID.TID 0000.0001) %MON seaice_vice_del2             =   3.4801776195340E-04
(PID.TID 0000.0001) %MON seaice_area_max              =   1.0024312546576E+00
(PID.TID 0000.0001) %MON seaice_area_min              =   0.0000000000000E+00
(PID.TID 0000.0001) %MON seaice_area_mean             =   5.7584720635507E-02
(PID.TID 0000.0001) %MON seaice_area_sd               =   2.2080846324560E-01
(PID.TID 0000.0001) %MON seaice_area_del2             =   2.8580426701879E-04
(PID.TID 0000.0001) %MON seaice_heff_max              =   9.9474750452902E+00
(PID.TID 0000.0001) %MON seaice_heff_min              =   0.0000000000000E+00
(PID.TID 0000.0001) %MON seaice_heff_mean             =   1.4937918564872E-01
(PID.TID 0000.0001) %MON seaice_heff_sd               =   7.1956302070988E-01
(PID.TID 0000.0001) %MON seaice_heff_del2             =   1.3361644538491E-03
(PID.TID 0000.0001) %MON seaice_hsnow_max             =   3.2856745628272E+00
(PID.TID 0000.0001) %MON seaice_hsnow_min             =   0.0000000000000E+00
(PID.TID 0000.0001) %MON seaice_hsnow_mean            =   1.2605889241548E-02
(PID.TID 0000.0001) %MON seaice_hsnow_sd              =   6.7693497348385E-02
(PID.TID 0000.0001) %MON seaice_hsnow_del2            =   3.6014631759752E-04
(PID.TID 0000.0001) // =======================================================
(PID.TID 0000.0001) // End MONITOR SEAICE statistics
(PID.TID 0000.0001) // =======================================================
(PID.TID 0000.0001) // =======================================================
(PID.TID 0000.0001) // Begin MONITOR dynamic field statistics
(PID.TID 0000.0001) // =======================================================
(PID.TID 0000.0001) %MON time_tsnumber                =                174875
(PID.TID 0000.0001) %MON time_secondsf                =   7.8693750000000E+07
(PID.TID 0000.0001) %MON dynstat_eta_max              =   2.2293732117461E+00
(PID.TID 0000.0001) %MON dynstat_eta_min              =  -1.0348538943143E+01
(PID.TID 0000.0001) %MON dynstat_eta_mean             =   9.2637636368215E-02
(PID.TID 0000.0001) %MON dynstat_eta_sd               =   9.4320983338705E-01
(PID.TID 0000.0001) %MON dynstat_eta_del2             =   2.0115825314168E-03
(PID.TID 0000.0001) %MON dynstat_uvel_max             =   1.6474874059855E+00
(PID.TID 0000.0001) %MON dynstat_uvel_min             =  -2.3130306218653E+00
(PID.TID 0000.0001) %MON dynstat_uvel_mean            =   7.7131891919911E-03
(PID.TID 0000.0001) %MON dynstat_uvel_sd              =   4.0959969398739E-02
(PID.TID 0000.0001) %MON dynstat_uvel_del2            =   4.1426553258078E-05
(PID.TID 0000.0001) %MON dynstat_vvel_max             =   1.7990746254181E+00
(PID.TID 0000.0001) %MON dynstat_vvel_min             =  -1.9305884216015E+00
(PID.TID 0000.0001) %MON dynstat_vvel_mean            =   3.6980475434388E-03
(PID.TID 0000.0001) %MON dynstat_vvel_sd              =   4.1438557042681E-02
(PID.TID 0000.0001) %MON dynstat_vvel_del2            =   4.0086307315758E-05
(PID.TID 0000.0001) %MON dynstat_wvel_max             =   9.1855437894846E-03
(PID.TID 0000.0001) %MON dynstat_wvel_min             =  -8.6331759968903E-03
(PID.TID 0000.0001) %MON dynstat_wvel_mean            =   3.6316742869805E-07
(PID.TID 0000.0001) %MON dynstat_wvel_sd              =   1.6723747063951E-04
(PID.TID 0000.0001) %MON dynstat_wvel_del2            =   3.5632304100353E-07
(PID.TID 0000.0001) %MON dynstat_theta_max            =   3.2444945789779E+01
(PID.TID 0000.0001) %MON dynstat_theta_min            =  -2.0451914982304E+00
(PID.TID 0000.0001) %MON dynstat_theta_mean           =   3.5918372589713E+00
(PID.TID 0000.0001) %MON dynstat_theta_sd             =   4.4415188962109E+00
(PID.TID 0000.0001) %MON dynstat_theta_del2           =   1.2789239199124E-04
(PID.TID 0000.0001) %MON dynstat_salt_max             =   4.0655989608651E+01
(PID.TID 0000.0001) %MON dynstat_salt_min             =   1.5944367447026E+01
(PID.TID 0000.0001) %MON dynstat_salt_mean            =   3.4724794483881E+01
(PID.TID 0000.0001) %MON dynstat_salt_sd              =   3.7974166000135E-01
(PID.TID 0000.0001) %MON dynstat_salt_del2            =   6.3338580006183E-05
(PID.TID 0000.0001) %MON dynstat_sst_max              =   3.2444945789779E+01
(PID.TID 0000.0001) %MON dynstat_sst_min              =  -2.0451914982304E+00
(PID.TID 0000.0001) %MON dynstat_sst_mean             =   1.8171571273334E+01
(PID.TID 0000.0001) %MON dynstat_sst_sd               =   1.0202709782243E+01
(PID.TID 0000.0001) %MON dynstat_sst_del2             =   1.1025341585898E-03
(PID.TID 0000.0001) %MON dynstat_sss_max              =   3.9462758861749E+01
(PID.TID 0000.0001) %MON dynstat_sss_min              =   1.5944367447026E+01
(PID.TID 0000.0001) %MON dynstat_sss_mean             =   3.4641575291700E+01
(PID.TID 0000.0001) %MON dynstat_sss_sd               =   1.3029043936783E+00
(PID.TID 0000.0001) %MON dynstat_sss_del2             =   1.4674727812561E-03
(PID.TID 0000.0001) %MON forcing_qnet_max             =   9.6609837339456E+02
(PID.TID 0000.0001) %MON forcing_qnet_min             =  -1.2211523437500E+03
(PID.TID 0000.0001) %MON forcing_qnet_mean            =   2.5209817035501E+01
(PID.TID 0000.0001) %MON forcing_qnet_sd              =   1.9283497031045E+02
(PID.TID 0000.0001) %MON forcing_qnet_del2            =   3.6417918399138E-01
(PID.TID 0000.0001) %MON forcing_qsw_max              =   0.0000000000000E+00
(PID.TID 0000.0001) %MON forcing_qsw_min              =  -1.0901204085703E+02
(PID.TID 0000.0001) %MON forcing_qsw_mean             =  -1.5853736200388E+01
(PID.TID 0000.0001) %MON forcing_qsw_sd               =   2.7110242650071E+01
(PID.TID 0000.0001) %MON forcing_qsw_del2             =   2.1836157028638E-02
(PID.TID 0000.0001) %MON forcing_empmr_max            =   3.1982965767384E-02
(PID.TID 0000.0001) %MON forcing_empmr_min            =  -4.1199833154678E-02
(PID.TID 0000.0001) %MON forcing_empmr_mean           =  -2.6025206769852E-06
(PID.TID 0000.0001) %MON forcing_empmr_sd             =   3.0870966250277E-04
(PID.TID 0000.0001) %MON forcing_empmr_del2           =   3.5720800334762E-06
(PID.TID 0000.0001) %MON forcing_fu_max               =   8.7013602256775E-01
(PID.TID 0000.0001) %MON forcing_fu_min               =  -1.3826352105380E+00
(PID.TID 0000.0001) %MON forcing_fu_mean              =   1.0842679452129E-02
(PID.TID 0000.0001) %MON forcing_fu_sd                =   1.2705530447561E-01
(PID.TID 0000.0001) %MON forcing_fu_del2              =   1.7214470548543E-04
(PID.TID 0000.0001) %MON forcing_fv_max               =   1.2009557243526E+00
(PID.TID 0000.0001) %MON forcing_fv_min               =  -1.7913492719142E+00
(PID.TID 0000.0001) %MON forcing_fv_mean              =   1.8517866484810E-05
(PID.TID 0000.0001) %MON forcing_fv_sd                =   1.1787283324425E-01
(PID.TID 0000.0001) %MON forcing_fv_del2              =   1.5702105598745E-04
(PID.TID 0000.0001) %MON trAdv_CFL_u_max              =   2.3858121969557E-02
(PID.TID 0000.0001) %MON trAdv_CFL_v_max              =   1.8313906680976E-02
(PID.TID 0000.0001) %MON trAdv_CFL_w_max              =   9.6974964049803E-02
(PID.TID 0000.0001) %MON advcfl_uvel_max              =   2.4177257585396E-02
(PID.TID 0000.0001) %MON advcfl_vvel_max              =   1.8254892292681E-02
(PID.TID 0000.0001) %MON advcfl_wvel_max              =   9.1825300592908E-02
(PID.TID 0000.0001) %MON advcfl_W_hf_max              =   9.6974964049803E-02
(PID.TID 0000.0001) %MON pe_b_mean                    =   2.6563706884041E-03
(PID.TID 0000.0001) %MON ke_max                       =   1.9788403908715E+00
(PID.TID 0000.0001) %MON ke_mean                      =   1.6722534970814E-03
(PID.TID 0000.0001) %MON ke_vol                       =   1.3350064351420E+18
(PID.TID 0000.0001) %MON vort_r_min                   =  -8.0980688554298E-05
(PID.TID 0000.0001) %MON vort_r_max                   =   8.6966055897446E-05
(PID.TID 0000.0001) %MON vort_a_mean                  =  -1.9725079387625E-05
(PID.TID 0000.0001) %MON vort_a_sd                    =   7.4541824235144E-05
(PID.TID 0000.0001) %MON vort_p_mean                  =  -2.1669084594891E-05
(PID.TID 0000.0001) %MON vort_p_sd                    =   9.3618510952990E-05
(PID.TID 0000.0001) %MON surfExpan_theta_mean         =   9.8113642153116E-06
(PID.TID 0000.0001) %MON surfExpan_salt_mean          =   2.9336505150459E-06
(PID.TID 0000.0001) // =======================================================
(PID.TID 0000.0001) // End MONITOR dynamic field statistics
(PID.TID 0000.0001) // =======================================================
(PID.TID 0000.0001) // =======================================================
(PID.TID 0000.0001) // Begin MONITOR SEAICE statistics
(PID.TID 0000.0001) // =======================================================
(PID.TID 0000.0001) %MON seaice_tsnumber              =                174875
(PID.TID 0000.0001) %MON seaice_time_sec              =   7.8693750000000E+07
(PID.TID 0000.0001) %MON seaice_uice_max              =   1.2885642322767E+00
(PID.TID 0000.0001) %MON seaice_uice_min              =  -1.2880833771088E+00
(PID.TID 0000.0001) %MON seaice_uice_mean             =   1.1578847995346E-02
(PID.TID 0000.0001) %MON seaice_uice_sd               =   1.4891150798129E-01
(PID.TID 0000.0001) %MON seaice_uice_del2             =   3.6794099067834E-04
(PID.TID 0000.0001) %MON seaice_vice_max              =   1.0984355895206E+00
(PID.TID 0000.0001) %MON seaice_vice_min              =  -1.4655604735938E+00
(PID.TID 0000.0001) %MON seaice_vice_mean             =  -1.3955764555157E-02
(PID.TID 0000.0001) %MON seaice_vice_sd               =   1.6071149835548E-01
(PID.TID 0000.0001) %MON seaice_vice_del2             =   3.4876408100661E-04
(PID.TID 0000.0001) %MON seaice_area_max              =   1.0024076670955E+00
(PID.TID 0000.0001) %MON seaice_area_min              =   0.0000000000000E+00
(PID.TID 0000.0001) %MON seaice_area_mean             =   5.7587080197599E-02
(PID.TID 0000.0001) %MON seaice_area_sd               =   2.2080620051957E-01
(PID.TID 0000.0001) %MON seaice_area_del2             =   2.8573199118360E-04
(PID.TID 0000.0001) %MON seaice_heff_max              =   9.9474664804601E+00
(PID.TID 0000.0001) %MON seaice_heff_min              =   0.0000000000000E+00
(PID.TID 0000.0001) %MON seaice_heff_mean             =   1.4937554376133E-01
(PID.TID 0000.0001) %MON seaice_heff_sd               =   7.1955198325303E-01
(PID.TID 0000.0001) %MON seaice_heff_del2             =   1.3355509810919E-03
(PID.TID 0000.0001) %MON seaice_hsnow_max             =   3.2856716425103E+00
(PID.TID 0000.0001) %MON seaice_hsnow_min             =   0.0000000000000E+00
(PID.TID 0000.0001) %MON seaice_hsnow_mean            =   1.2605197183829E-02
(PID.TID 0000.0001) %MON seaice_hsnow_sd              =   6.7683314027926E-02
(PID.TID 0000.0001) %MON seaice_hsnow_del2            =   3.5985123652953E-04
(PID.TID 0000.0001) // =======================================================
(PID.TID 0000.0001) // End MONITOR SEAICE statistics
(PID.TID 0000.0001) // =======================================================
(PID.TID 0000.0001) // =======================================================
(PID.TID 0000.0001) // Begin MONITOR dynamic field statistics
(PID.TID 0000.0001) // =======================================================
(PID.TID 0000.0001) %MON time_tsnumber                =                174876
(PID.TID 0000.0001) %MON time_secondsf                =   7.8694200000000E+07
(PID.TID 0000.0001) %MON dynstat_eta_max              =   2.2635333767060E+00
(PID.TID 0000.0001) %MON dynstat_eta_min              =  -1.0332229211234E+01
(PID.TID 0000.0001) %MON dynstat_eta_mean             =   9.2692518739724E-02
(PID.TID 0000.0001) %MON dynstat_eta_sd               =   9.4454933870878E-01
(PID.TID 0000.0001) %MON dynstat_eta_del2             =   2.0115009690404E-03
(PID.TID 0000.0001) %MON dynstat_uvel_max             =   1.6343863868156E+00
(PID.TID 0000.0001) %MON dynstat_uvel_min             =  -2.3074800822341E+00
(PID.TID 0000.0001) %MON dynstat_uvel_mean            =   7.7196402609673E-03
(PID.TID 0000.0001) %MON dynstat_uvel_sd              =   4.1166363314436E-02
(PID.TID 0000.0001) %MON dynstat_uvel_del2            =   4.1526594806098E-05
(PID.TID 0000.0001) %MON dynstat_vvel_max             =   1.8113665729989E+00
(PID.TID 0000.0001) %MON dynstat_vvel_min             =  -1.9237191178352E+00
(PID.TID 0000.0001) %MON dynstat_vvel_mean            =   3.6845582501770E-03
(PID.TID 0000.0001) %MON dynstat_vvel_sd              =   4.1663504602629E-02
(PID.TID 0000.0001) %MON dynstat_vvel_del2            =   4.0193819900133E-05
(PID.TID 0000.0001) %MON dynstat_wvel_max             =   9.2125743941722E-03
(PID.TID 0000.0001) %MON dynstat_wvel_min             =  -8.6999736894949E-03
(PID.TID 0000.0001) %MON dynstat_wvel_mean            =   3.6495972227441E-07
(PID.TID 0000.0001) %MON dynstat_wvel_sd              =   1.6801437192908E-04
(PID.TID 0000.0001) %MON dynstat_wvel_del2            =   3.5761459578288E-07
(PID.TID 0000.0001) %MON dynstat_theta_max            =   3.2445530239674E+01
(PID.TID 0000.0001) %MON dynstat_theta_min            =  -2.0449940570150E+00
(PID.TID 0000.0001) %MON dynstat_theta_mean           =   3.5918352887807E+00
(PID.TID 0000.0001) %MON dynstat_theta_sd             =   4.4415114663668E+00
(PID.TID 0000.0001) %MON dynstat_theta_del2           =   1.2794302791668E-04
(PID.TID 0000.0001) %MON dynstat_salt_max             =   4.0655989606157E+01
(PID.TID 0000.0001) %MON dynstat_salt_min             =   1.5943570160154E+01
(PID.TID 0000.0001) %MON dynstat_salt_mean            =   3.4724794550871E+01
(PID.TID 0000.0001) %MON dynstat_salt_sd              =   3.7974204080176E-01
(PID.TID 0000.0001) %MON dynstat_salt_del2            =   6.3302806560880E-05
(PID.TID 0000.0001) %MON dynstat_sst_max              =   3.2445530239674E+01
(PID.TID 0000.0001) %MON dynstat_sst_min              =  -2.0449940570150E+00
(PID.TID 0000.0001) %MON dynstat_sst_mean             =   1.8171442254835E+01
(PID.TID 0000.0001) %MON dynstat_sst_sd               =   1.0202796711603E+01
(PID.TID 0000.0001) %MON dynstat_sst_del2             =   1.1023575760006E-03
(PID.TID 0000.0001) %MON dynstat_sss_max              =   3.9462757305907E+01
(PID.TID 0000.0001) %MON dynstat_sss_min              =   1.5943570160154E+01
(PID.TID 0000.0001) %MON dynstat_sss_mean             =   3.4641554079164E+01
(PID.TID 0000.0001) %MON dynstat_sss_sd               =   1.3029405940917E+00
(PID.TID 0000.0001) %MON dynstat_sss_del2             =   1.4671809171397E-03
(PID.TID 0000.0001) %MON forcing_qnet_max             =   9.7677894795515E+02
(PID.TID 0000.0001) %MON forcing_qnet_min             =  -4.0490720687562E+03
(PID.TID 0000.0001) %MON forcing_qnet_mean            =   2.4896297081926E+01
(PID.TID 0000.0001) %MON forcing_qnet_sd              =   1.9362306368145E+02
(PID.TID 0000.0001) %MON forcing_qnet_del2            =   4.2856447392145E-01
(PID.TID 0000.0001) %MON forcing_qsw_max              =   0.0000000000000E+00
(PID.TID 0000.0001) %MON forcing_qsw_min              =  -1.0916156295533E+02
(PID.TID 0000.0001) %MON forcing_qsw_mean             =  -1.5865735211983E+01
(PID.TID 0000.0001) %MON forcing_qsw_sd               =   2.7252616883586E+01
(PID.TID 0000.0001) %MON forcing_qsw_del2             =   2.1855053312795E-02
(PID.TID 0000.0001) %MON forcing_empmr_max            =   3.2904986292124E-02
(PID.TID 0000.0001) %MON forcing_empmr_min            =  -3.7245962768793E-02
(PID.TID 0000.0001) %MON forcing_empmr_mean           =  -2.5458102149469E-06
(PID.TID 0000.0001) %MON forcing_empmr_sd             =   3.0275487590033E-04
(PID.TID 0000.0001) %MON forcing_empmr_del2           =   3.5494361878448E-06
(PID.TID 0000.0001) %MON forcing_fu_max               =   8.7312546372414E-01
(PID.TID 0000.0001) %MON forcing_fu_min               =  -1.3838605617026E+00
(PID.TID 0000.0001) %MON forcing_fu_mean              =   1.0823823558395E-02
(PID.TID 0000.0001) %MON forcing_fu_sd                =   1.2707134097307E-01
(PID.TID 0000.0001) %MON forcing_fu_del2              =   1.7210067969708E-04
(PID.TID 0000.0001) %MON forcing_fv_max               =   1.2081698204754E+00
(PID.TID 0000.0001) %MON forcing_fv_min               =  -1.7857266881219E+00
(PID.TID 0000.0001) %MON forcing_fv_mean              =   5.3411124317982E-05
(PID.TID 0000.0001) %MON forcing_fv_sd                =   1.1803626053552E-01
(PID.TID 0000.0001) %MON forcing_fv_del2              =   1.5708968657847E-04
(PID.TID 0000.0001) %MON trAdv_CFL_u_max              =   2.3800870046359E-02
(PID.TID 0000.0001) %MON trAdv_CFL_v_max              =   1.8439034109123E-02
(PID.TID 0000.0001) %MON trAdv_CFL_w_max              =   9.7362015421253E-02
(PID.TID 0000.0001) %MON advcfl_uvel_max              =   2.4119239837972E-02
(PID.TID 0000.0001) %MON advcfl_vvel_max              =   1.8379616512557E-02
(PID.TID 0000.0001) %MON advcfl_wvel_max              =   9.2187592977785E-02
(PID.TID 0000.0001) %MON advcfl_W_hf_max              =   9.7362015421253E-02
(PID.TID 0000.0001) %MON pe_b_mean                    =   2.6597850546119E-03
(PID.TID 0000.0001) %MON ke_max                       =   1.9887972705854E+00
(PID.TID 0000.0001) %MON ke_mean                      =   1.6894406793660E-03
(PID.TID 0000.0001) %MON ke_vol                       =   1.3350064351420E+18
(PID.TID 0000.0001) %MON vort_r_min                   =  -8.0726790371086E-05
(PID.TID 0000.0001) %MON vort_r_max                   =   8.6736415335202E-05
(PID.TID 0000.0001) %MON vort_a_mean                  =  -1.9725079231075E-05
(PID.TID 0000.0001) %MON vort_a_sd                    =   7.4541851297895E-05
(PID.TID 0000.0001) %MON vort_p_mean                  =  -2.1669084422911E-05
(PID.TID 0000.0001) %MON vort_p_sd                    =   9.3618571384476E-05
(PID.TID 0000.0001) %MON surfExpan_theta_mean         =   1.0125732890493E-05
(PID.TID 0000.0001) %MON surfExpan_salt_mean          =   3.0546979153432E-06
(PID.TID 0000.0001) // =======================================================
(PID.TID 0000.0001) // End MONITOR dynamic field statistics
(PID.TID 0000.0001) // =======================================================
(PID.TID 0000.0001) // =======================================================
(PID.TID 0000.0001) // Begin MONITOR SEAICE statistics
(PID.TID 0000.0001) // =======================================================
(PID.TID 0000.0001) %MON seaice_tsnumber              =                174876
(PID.TID 0000.0001) %MON seaice_time_sec              =   7.8694200000000E+07
(PID.TID 0000.0001) %MON seaice_uice_max              =   1.2869950319910E+00
(PID.TID 0000.0001) %MON seaice_uice_min              =  -1.3038361174584E+00
(PID.TID 0000.0001) %MON seaice_uice_mean             =   1.1621516094066E-02
(PID.TID 0000.0001) %MON seaice_uice_sd               =   1.4893196052846E-01
(PID.TID 0000.0001) %MON seaice_uice_del2             =   3.6865832569637E-04
(PID.TID 0000.0001) %MON seaice_vice_max              =   1.1016244063294E+00
(PID.TID 0000.0001) %MON seaice_vice_min              =  -1.4656026264540E+00
(PID.TID 0000.0001) %MON seaice_vice_mean             =  -1.3840008954836E-02
(PID.TID 0000.0001) %MON seaice_vice_sd               =   1.6072407299575E-01
(PID.TID 0000.0001) %MON seaice_vice_del2             =   3.4951297048792E-04
(PID.TID 0000.0001) %MON seaice_area_max              =   1.0023782197455E+00
(PID.TID 0000.0001) %MON seaice_area_min              =   0.0000000000000E+00
(PID.TID 0000.0001) %MON seaice_area_mean             =   5.7589443661671E-02
(PID.TID 0000.0001) %MON seaice_area_sd               =   2.2080390156306E-01
(PID.TID 0000.0001) %MON seaice_area_del2             =   2.8565820568255E-04
(PID.TID 0000.0001) %MON seaice_heff_max              =   9.9474579155782E+00
(PID.TID 0000.0001) %MON seaice_heff_min              =   0.0000000000000E+00
(PID.TID 0000.0001) %MON seaice_heff_mean             =   1.4937191128350E-01
(PID.TID 0000.0001) %MON seaice_heff_sd               =   7.1954097732979E-01
(PID.TID 0000.0001) %MON seaice_heff_del2             =   1.3349393658553E-03
(PID.TID 0000.0001) %MON seaice_hsnow_max             =   3.2856687147064E+00
(PID.TID 0000.0001) %MON seaice_hsnow_min             =   0.0000000000000E+00
(PID.TID 0000.0001) %MON seaice_hsnow_mean            =   1.2604496885962E-02
(PID.TID 0000.0001) %MON seaice_hsnow_sd              =   6.7673041489738E-02
(PID.TID 0000.0001) %MON seaice_hsnow_del2            =   3.5955475873115E-04
(PID.TID 0000.0001) // =======================================================
(PID.TID 0000.0001) // End MONITOR SEAICE statistics
(PID.TID 0000.0001) // =======================================================
(PID.TID 0000.0001) // =======================================================
(PID.TID 0000.0001) // Begin MONITOR dynamic field statistics
(PID.TID 0000.0001) // =======================================================
(PID.TID 0000.0001) %MON time_tsnumber                =                174877
(PID.TID 0000.0001) %MON time_secondsf                =   7.8694650000000E+07
(PID.TID 0000.0001) %MON dynstat_eta_max              =   2.2921450210392E+00
(PID.TID 0000.0001) %MON dynstat_eta_min              =  -1.0315538419010E+01
(PID.TID 0000.0001) %MON dynstat_eta_mean             =   9.2748252762829E-02
(PID.TID 0000.0001) %MON dynstat_eta_sd               =   9.4592785655160E-01
(PID.TID 0000.0001) %MON dynstat_eta_del2             =   2.0114167693244E-03
(PID.TID 0000.0001) %MON dynstat_uvel_max             =   1.6212640654316E+00
(PID.TID 0000.0001) %MON dynstat_uvel_min             =  -2.3018562293831E+00
(PID.TID 0000.0001) %MON dynstat_uvel_mean            =   7.7216254867440E-03
(PID.TID 0000.0001) %MON dynstat_uvel_sd              =   4.1374162326540E-02
(PID.TID 0000.0001) %MON dynstat_uvel_del2            =   4.1627281928708E-05
(PID.TID 0000.0001) %MON dynstat_vvel_max             =   1.8235343144678E+00
(PID.TID 0000.0001) %MON dynstat_vvel_min             =  -1.9167862247241E+00
(PID.TID 0000.0001) %MON dynstat_vvel_mean            =   3.6701175704329E-03
(PID.TID 0000.0001) %MON dynstat_vvel_sd              =   4.1888977001397E-02
(PID.TID 0000.0001) %MON dynstat_vvel_del2            =   4.0301632157772E-05
(PID.TID 0000.0001) %MON dynstat_wvel_max             =   9.2395619400581E-03
(PID.TID 0000.0001) %MON dynstat_wvel_min             =  -8.7657789387123E-03
(PID.TID 0000.0001) %MON dynstat_wvel_mean            =   3.6724376532848E-07
(PID.TID 0000.0001) %MON dynstat_wvel_sd              =   1.6878894676346E-04
(PID.TID 0000.0001) %MON dynstat_wvel_del2            =   3.5890410349777E-07
(PID.TID 0000.0001) %MON dynstat_theta_max            =   3.2446080464083E+01
(PID.TID 0000.0001) %MON dynstat_theta_min            =  -2.0447884126153E+00
(PID.TID 0000.0001) %MON dynstat_theta_mean           =   3.5918333282898E+00
(PID.TID 0000.0001) %MON dynstat_theta_sd             =   4.4415041880349E+00
(PID.TID 0000.0001) %MON dynstat_theta_del2           =   1.2799229639624E-04
(PID.TID 0000.0001) %MON dynstat_salt_max             =   4.0655989602697E+01
(PID.TID 0000.0001) %MON dynstat_salt_min             =   1.5942762062636E+01
(PID.TID 0000.0001) %MON dynstat_salt_mean            =   3.4724794605994E+01
(PID.TID 0000.0001) %MON dynstat_salt_sd              =   3.7974244984556E-01
(PID.TID 0000.0001) %MON dynstat_salt_del2            =   6.3267428017247E-05
(PID.TID 0000.0001) %MON dynstat_sst_max              =   3.2446080464083E+01
(PID.TID 0000.0001) %MON dynstat_sst_min              =  -2.0447884126153E+00
(PID.TID 0000.0001) %MON dynstat_sst_mean             =   1.8171319304922E+01
(PID.TID 0000.0001) %MON dynstat_sst_sd               =   1.0202874765781E+01
(PID.TID 0000.0001) %MON dynstat_sst_del2             =   1.1020784048558E-03
(PID.TID 0000.0001) %MON dynstat_sss_max              =   3.9462758193543E+01
(PID.TID 0000.0001) %MON dynstat_sss_min              =   1.5942762062636E+01
(PID.TID 0000.0001) %MON dynstat_sss_mean             =   3.4641533209436E+01
(PID.TID 0000.0001) %MON dynstat_sss_sd               =   1.3029757301869E+00
(PID.TID 0000.0001) %MON dynstat_sss_del2             =   1.4669145994806E-03
(PID.TID 0000.0001) %MON forcing_qnet_max             =   9.8817573964106E+02
(PID.TID 0000.0001) %MON forcing_qnet_min             =  -2.4959633789062E+03
(PID.TID 0000.0001) %MON forcing_qnet_mean            =   2.3014158452583E+01
(PID.TID 0000.0001) %MON forcing_qnet_sd              =   1.9399600781566E+02
(PID.TID 0000.0001) %MON forcing_qnet_del2            =   3.6846240942096E-01
(PID.TID 0000.0001) %MON forcing_qsw_max              =   0.0000000000000E+00
(PID.TID 0000.0001) %MON forcing_qsw_min              =  -1.0944099155742E+02
(PID.TID 0000.0001) %MON forcing_qsw_mean             =  -1.6105681800191E+01
(PID.TID 0000.0001) %MON forcing_qsw_sd               =   2.8005699979502E+01
(PID.TID 0000.0001) %MON forcing_qsw_del2             =   2.1773115582650E-02
(PID.TID 0000.0001) %MON forcing_empmr_max            =   2.4133501574397E-02
(PID.TID 0000.0001) %MON forcing_empmr_min            =  -3.8382604718208E-02
(PID.TID 0000.0001) %MON forcing_empmr_mean           =  -2.6785296404980E-06
(PID.TID 0000.0001) %MON forcing_empmr_sd             =   3.0223380344533E-04
(PID.TID 0000.0001) %MON forcing_empmr_del2           =   3.5049756458936E-06
(PID.TID 0000.0001) %MON forcing_fu_max               =   8.7768048048019E-01
(PID.TID 0000.0001) %MON forcing_fu_min               =  -1.3820020127418E+00
(PID.TID 0000.0001) %MON forcing_fu_mean              =   1.0811997453995E-02
(PID.TID 0000.0001) %MON forcing_fu_sd                =   1.2708875243186E-01
(PID.TID 0000.0001) %MON forcing_fu_del2              =   1.7210999914327E-04
(PID.TID 0000.0001) %MON forcing_fv_max               =   1.2080046695421E+00
(PID.TID 0000.0001) %MON forcing_fv_min               =  -1.7786895965797E+00
(PID.TID 0000.0001) %MON forcing_fv_mean              =   9.7346804370671E-05
(PID.TID 0000.0001) %MON forcing_fv_sd                =   1.1826783061216E-01
(PID.TID 0000.0001) %MON forcing_fv_del2              =   1.5740974056266E-04
(PID.TID 0000.0001) %MON trAdv_CFL_u_max              =   2.3742861922303E-02
(PID.TID 0000.0001) %MON trAdv_CFL_v_max              =   1.8562897165514E-02
(PID.TID 0000.0001) %MON trAdv_CFL_w_max              =   9.7752352286120E-02
(PID.TID 0000.0001) %MON advcfl_uvel_max              =   2.4060455774452E-02
(PID.TID 0000.0001) %MON advcfl_vvel_max              =   1.8503080434966E-02
(PID.TID 0000.0001) %MON advcfl_wvel_max              =   9.2553555322917E-02
(PID.TID 0000.0001) %MON advcfl_W_hf_max              =   9.7752352286120E-02
(PID.TID 0000.0001) %MON pe_b_mean                    =   2.6633438214276E-03
(PID.TID 0000.0001) %MON ke_max                       =   1.9986307264856E+00
(PID.TID 0000.0001) %MON ke_mean                      =   1.7067585893226E-03
(PID.TID 0000.0001) %MON ke_vol                       =   1.3350064351420E+18
(PID.TID 0000.0001) %MON vort_r_min                   =  -8.0467096348006E-05
(PID.TID 0000.0001) %MON vort_r_max                   =   8.6502657814071E-05
(PID.TID 0000.0001) %MON vort_a_mean                  =  -1.9725079077676E-05
(PID.TID 0000.0001) %MON vort_a_sd                    =   7.4541878200602E-05
(PID.TID 0000.0001) %MON vort_p_mean                  =  -2.1669084254394E-05
(PID.TID 0000.0001) %MON vort_p_sd                    =   9.3618630607159E-05
(PID.TID 0000.0001) %MON surfExpan_theta_mean         =   1.0497044099707E-05
(PID.TID 0000.0001) %MON surfExpan_salt_mean          =   3.2035611800923E-06
(PID.TID 0000.0001) // =======================================================
(PID.TID 0000.0001) // End MONITOR dynamic field statistics
(PID.TID 0000.0001) // =======================================================
(PID.TID 0000.0001) // =======================================================
(PID.TID 0000.0001) // Begin MONITOR SEAICE statistics
(PID.TID 0000.0001) // =======================================================
(PID.TID 0000.0001) %MON seaice_tsnumber              =                174877
(PID.TID 0000.0001) %MON seaice_time_sec              =   7.8694650000000E+07
(PID.TID 0000.0001) %MON seaice_uice_max              =   1.2903313825715E+00
(PID.TID 0000.0001) %MON seaice_uice_min              =  -1.3195064590718E+00
(PID.TID 0000.0001) %MON seaice_uice_mean             =   1.1654995162205E-02
(PID.TID 0000.0001) %MON seaice_uice_sd               =   1.4896037526359E-01
(PID.TID 0000.0001) %MON seaice_uice_del2             =   3.6925608937746E-04
(PID.TID 0000.0001) %MON seaice_vice_max              =   1.1042919332681E+00
(PID.TID 0000.0001) %MON seaice_vice_min              =  -1.4656618700691E+00
(PID.TID 0000.0001) %MON seaice_vice_mean             =  -1.3730016440545E-02
(PID.TID 0000.0001) %MON seaice_vice_sd               =   1.6073080393964E-01
(PID.TID 0000.0001) %MON seaice_vice_del2             =   3.5031143755467E-04
(PID.TID 0000.0001) %MON seaice_area_max              =   1.0023438223842E+00
(PID.TID 0000.0001) %MON seaice_area_min              =   0.0000000000000E+00
(PID.TID 0000.0001) %MON seaice_area_mean             =   5.7591825848397E-02
(PID.TID 0000.0001) %MON seaice_area_sd               =   2.2080161333322E-01
(PID.TID 0000.0001) %MON seaice_area_del2             =   2.8558302129968E-04
(PID.TID 0000.0001) %MON seaice_heff_max              =   9.9474493502963E+00
(PID.TID 0000.0001) %MON seaice_heff_min              =   0.0000000000000E+00
(PID.TID 0000.0001) %MON seaice_heff_mean             =   1.4936828741509E-01
(PID.TID 0000.0001) %MON seaice_heff_sd               =   7.1952997767242E-01
(PID.TID 0000.0001) %MON seaice_heff_del2             =   1.3343291184341E-03
(PID.TID 0000.0001) %MON seaice_hsnow_max             =   3.2856657852060E+00
(PID.TID 0000.0001) %MON seaice_hsnow_min             =   0.0000000000000E+00
(PID.TID 0000.0001) %MON seaice_hsnow_mean            =   1.2603782193985E-02
(PID.TID 0000.0001) %MON seaice_hsnow_sd              =   6.7662671279254E-02
(PID.TID 0000.0001) %MON seaice_hsnow_del2            =   3.5925684913113E-04
(PID.TID 0000.0001) // =======================================================
(PID.TID 0000.0001) // End MONITOR SEAICE statistics
(PID.TID 0000.0001) // =======================================================
(PID.TID 0000.0001) // =======================================================
(PID.TID 0000.0001) // Begin MONITOR dynamic field statistics
(PID.TID 0000.0001) // =======================================================
(PID.TID 0000.0001) %MON time_tsnumber                =                174878
(PID.TID 0000.0001) %MON time_secondsf                =   7.8695100000000E+07
(PID.TID 0000.0001) %MON dynstat_eta_max              =   2.3512121535648E+00
(PID.TID 0000.0001) %MON dynstat_eta_min              =  -1.0298495192884E+01
(PID.TID 0000.0001) %MON dynstat_eta_mean             =   9.2804618593303E-02
(PID.TID 0000.0001) %MON dynstat_eta_sd               =   9.4734448462786E-01
(PID.TID 0000.0001) %MON dynstat_eta_del2             =   2.0113333701429E-03
(PID.TID 0000.0001) %MON dynstat_uvel_max             =   1.6081318567275E+00
(PID.TID 0000.0001) %MON dynstat_uvel_min             =  -2.2961596943129E+00
(PID.TID 0000.0001) %MON dynstat_uvel_mean            =   7.7193091452395E-03
(PID.TID 0000.0001) %MON dynstat_uvel_sd              =   4.1583504745665E-02
(PID.TID 0000.0001) %MON dynstat_uvel_del2            =   4.1728552876080E-05
(PID.TID 0000.0001) %MON dynstat_vvel_max             =   1.8355370478506E+00
(PID.TID 0000.0001) %MON dynstat_vvel_min             =  -1.9097914395477E+00
(PID.TID 0000.0001) %MON dynstat_vvel_mean            =   3.6546547624067E-03
(PID.TID 0000.0001) %MON dynstat_vvel_sd              =   4.2114959291619E-02
(PID.TID 0000.0001) %MON dynstat_vvel_del2            =   4.0410191528221E-05
(PID.TID 0000.0001) %MON dynstat_wvel_max             =   9.2665094935080E-03
(PID.TID 0000.0001) %MON dynstat_wvel_min             =  -8.8305302615538E-03
(PID.TID 0000.0001) %MON dynstat_wvel_mean            =   3.6956440190092E-07
(PID.TID 0000.0001) %MON dynstat_wvel_sd              =   1.6956161626070E-04
(PID.TID 0000.0001) %MON dynstat_wvel_del2            =   3.6019202485366E-07
(PID.TID 0000.0001) %MON dynstat_theta_max            =   3.2446563904532E+01
(PID.TID 0000.0001) %MON dynstat_theta_min            =  -2.0445756174684E+00
(PID.TID 0000.0001) %MON dynstat_theta_mean           =   3.5918313430358E+00
(PID.TID 0000.0001) %MON dynstat_theta_sd             =   4.4414969715809E+00
(PID.TID 0000.0001) %MON dynstat_theta_del2           =   1.2804253056154E-04
(PID.TID 0000.0001) %MON dynstat_salt_max             =   4.0655989598282E+01
(PID.TID 0000.0001) %MON dynstat_salt_min             =   1.5941938536565E+01
(PID.TID 0000.0001) %MON dynstat_salt_mean            =   3.4724794651131E+01
(PID.TID 0000.0001) %MON dynstat_salt_sd              =   3.7974288383438E-01
(PID.TID 0000.0001) %MON dynstat_salt_del2            =   6.3232376842012E-05
(PID.TID 0000.0001) %MON dynstat_sst_max              =   3.2446563904532E+01
(PID.TID 0000.0001) %MON dynstat_sst_min              =  -2.0445756174684E+00
(PID.TID 0000.0001) %MON dynstat_sst_mean             =   1.8171211873518E+01
(PID.TID 0000.0001) %MON dynstat_sst_sd               =   1.0202961219941E+01
(PID.TID 0000.0001) %MON dynstat_sst_del2             =   1.1018663361759E-03
(PID.TID 0000.0001) %MON dynstat_sss_max              =   3.9462761382122E+01
(PID.TID 0000.0001) %MON dynstat_sss_min              =   1.5941938536565E+01
(PID.TID 0000.0001) %MON dynstat_sss_mean             =   3.4641512527927E+01
(PID.TID 0000.0001) %MON dynstat_sss_sd               =   1.3030124520359E+00
(PID.TID 0000.0001) %MON dynstat_sss_del2             =   1.4666468091518E-03
(PID.TID 0000.0001) %MON forcing_qnet_max             =   1.0030643483410E+03
(PID.TID 0000.0001) %MON forcing_qnet_min             =  -2.1225170898438E+03
(PID.TID 0000.0001) %MON forcing_qnet_mean            =   2.2170923557893E+01
(PID.TID 0000.0001) %MON forcing_qnet_sd              =   1.9497479155218E+02
(PID.TID 0000.0001) %MON forcing_qnet_del2            =   3.9341469682084E-01
(PID.TID 0000.0001) %MON forcing_qsw_max              =   0.0000000000000E+00
(PID.TID 0000.0001) %MON forcing_qsw_min              =  -1.0978914728683E+02
(PID.TID 0000.0001) %MON forcing_qsw_mean             =  -1.6184279233997E+01
(PID.TID 0000.0001) %MON forcing_qsw_sd               =   2.8209350372454E+01
(PID.TID 0000.0001) %MON forcing_qsw_del2             =   2.1837686129386E-02
(PID.TID 0000.0001) %MON forcing_empmr_max            =   2.3447265848517E-02
(PID.TID 0000.0001) %MON forcing_empmr_min            =  -3.8746457546949E-02
(PID.TID 0000.0001) %MON forcing_empmr_mean           =  -2.5304245600896E-06
(PID.TID 0000.0001) %MON forcing_empmr_sd             =   2.9977098337195E-04
(PID.TID 0000.0001) %MON forcing_empmr_del2           =   3.4791953724173E-06
(PID.TID 0000.0001) %MON forcing_fu_max               =   8.7952256202698E-01
(PID.TID 0000.0001) %MON forcing_fu_min               =  -1.3814514244455E+00
(PID.TID 0000.0001) %MON forcing_fu_mean              =   1.0797038045020E-02
(PID.TID 0000.0001) %MON forcing_fu_sd                =   1.2711454457953E-01
(PID.TID 0000.0001) %MON forcing_fu_del2              =   1.7203471870191E-04
(PID.TID 0000.0001) %MON forcing_fv_max               =   1.2196704184308E+00
(PID.TID 0000.0001) %MON forcing_fv_min               =  -1.7700387627545E+00
(PID.TID 0000.0001) %MON forcing_fv_mean              =   1.4066248595981E-04
(PID.TID 0000.0001) %MON forcing_fv_sd                =   1.1850515237236E-01
(PID.TID 0000.0001) %MON forcing_fv_del2              =   1.5761499960007E-04
(PID.TID 0000.0001) %MON trAdv_CFL_u_max              =   2.3684104105946E-02
(PID.TID 0000.0001) %MON trAdv_CFL_v_max              =   1.8685080501316E-02
(PID.TID 0000.0001) %MON trAdv_CFL_w_max              =   9.8148349967829E-02
(PID.TID 0000.0001) %MON advcfl_uvel_max              =   2.4000911990451E-02
(PID.TID 0000.0001) %MON advcfl_vvel_max              =   1.8624870049485E-02
(PID.TID 0000.0001) %MON advcfl_wvel_max              =   9.2925717353884E-02
(PID.TID 0000.0001) %MON advcfl_W_hf_max              =   9.8148349967829E-02
(PID.TID 0000.0001) %MON pe_b_mean                    =   2.6670388854381E-03
(PID.TID 0000.0001) %MON ke_max                       =   2.0083315454774E+00
(PID.TID 0000.0001) %MON ke_mean                      =   1.7242143401764E-03
(PID.TID 0000.0001) %MON ke_vol                       =   1.3350064351420E+18
(PID.TID 0000.0001) %MON vort_r_min                   =  -8.0201877196788E-05
(PID.TID 0000.0001) %MON vort_r_max                   =   8.6264945695010E-05
(PID.TID 0000.0001) %MON vort_a_mean                  =  -1.9725078927655E-05
(PID.TID 0000.0001) %MON vort_a_sd                    =   7.4541904978267E-05
(PID.TID 0000.0001) %MON vort_p_mean                  =  -2.1669084089588E-05
(PID.TID 0000.0001) %MON vort_p_sd                    =   9.3618688461917E-05
(PID.TID 0000.0001) %MON surfExpan_theta_mean         =   1.0913222750431E-05
(PID.TID 0000.0001) %MON surfExpan_salt_mean          =   3.3537572191953E-06
(PID.TID 0000.0001) // =======================================================
(PID.TID 0000.0001) // End MONITOR dynamic field statistics
(PID.TID 0000.0001) // =======================================================
(PID.TID 0000.0001) // =======================================================
(PID.TID 0000.0001) // Begin MONITOR SEAICE statistics
(PID.TID 0000.0001) // =======================================================
(PID.TID 0000.0001) %MON seaice_tsnumber              =                174878
(PID.TID 0000.0001) %MON seaice_time_sec              =   7.8695100000000E+07
(PID.TID 0000.0001) %MON seaice_uice_max              =   1.2885143653443E+00
(PID.TID 0000.0001) %MON seaice_uice_min              =  -1.3350343991836E+00
(PID.TID 0000.0001) %MON seaice_uice_mean             =   1.1690248253438E-02
(PID.TID 0000.0001) %MON seaice_uice_sd               =   1.4898684704718E-01
(PID.TID 0000.0001) %MON seaice_uice_del2             =   3.6988689011195E-04
(PID.TID 0000.0001) %MON seaice_vice_max              =   1.1053821001203E+00
(PID.TID 0000.0001) %MON seaice_vice_min              =  -1.4657356549616E+00
(PID.TID 0000.0001) %MON seaice_vice_mean             =  -1.3628955575842E-02
(PID.TID 0000.0001) %MON seaice_vice_sd               =   1.6074615035505E-01
(PID.TID 0000.0001) %MON seaice_vice_del2             =   3.5109188088407E-04
(PID.TID 0000.0001) %MON seaice_area_max              =   1.0023059540038E+00
(PID.TID 0000.0001) %MON seaice_area_min              =   0.0000000000000E+00
(PID.TID 0000.0001) %MON seaice_area_mean             =   5.7594223414428E-02
(PID.TID 0000.0001) %MON seaice_area_sd               =   2.2079934857830E-01
(PID.TID 0000.0001) %MON seaice_area_del2             =   2.8550663446393E-04
(PID.TID 0000.0001) %MON seaice_heff_max              =   9.9474398308710E+00
(PID.TID 0000.0001) %MON seaice_heff_min              =   0.0000000000000E+00
(PID.TID 0000.0001) %MON seaice_heff_mean             =   1.4936466518479E-01
(PID.TID 0000.0001) %MON seaice_heff_sd               =   7.1951895511100E-01
(PID.TID 0000.0001) %MON seaice_heff_del2             =   1.3337201213028E-03
(PID.TID 0000.0001) %MON seaice_hsnow_max             =   3.2856628558287E+00
(PID.TID 0000.0001) %MON seaice_hsnow_min             =   0.0000000000000E+00
(PID.TID 0000.0001) %MON seaice_hsnow_mean            =   1.2603078318732E-02
(PID.TID 0000.0001) %MON seaice_hsnow_sd              =   6.7652256485290E-02
(PID.TID 0000.0001) %MON seaice_hsnow_del2            =   3.5895749844799E-04
(PID.TID 0000.0001) // =======================================================
(PID.TID 0000.0001) // End MONITOR SEAICE statistics
(PID.TID 0000.0001) // =======================================================
(PID.TID 0000.0001) // =======================================================
(PID.TID 0000.0001) // Begin MONITOR dynamic field statistics
(PID.TID 0000.0001) // =======================================================
(PID.TID 0000.0001) %MON time_tsnumber                =                174879
(PID.TID 0000.0001) %MON time_secondsf                =   7.8695550000000E+07
(PID.TID 0000.0001) %MON dynstat_eta_max              =   2.4393400897932E+00
(PID.TID 0000.0001) %MON dynstat_eta_min              =  -1.0281124207405E+01
(PID.TID 0000.0001) %MON dynstat_eta_mean             =   9.2861149187062E-02
(PID.TID 0000.0001) %MON dynstat_eta_sd               =   9.4879837722923E-01
(PID.TID 0000.0001) %MON dynstat_eta_del2             =   2.0112552789967E-03
(PID.TID 0000.0001) %MON dynstat_uvel_max             =   1.5949980611540E+00
(PID.TID 0000.0001) %MON dynstat_uvel_min             =  -2.2904164797790E+00
(PID.TID 0000.0001) %MON dynstat_uvel_mean            =   7.7128679101345E-03
(PID.TID 0000.0001) %MON dynstat_uvel_sd              =   4.1794291229950E-02
(PID.TID 0000.0001) %MON dynstat_uvel_del2            =   4.1830378430534E-05
(PID.TID 0000.0001) %MON dynstat_vvel_max             =   1.8473381991231E+00
(PID.TID 0000.0001) %MON dynstat_vvel_min             =  -1.9027384498097E+00
(PID.TID 0000.0001) %MON dynstat_vvel_mean            =   3.6380927661604E-03
(PID.TID 0000.0001) %MON dynstat_vvel_sd              =   4.2341568746748E-02
(PID.TID 0000.0001) %MON dynstat_vvel_del2            =   4.0519230674340E-05
(PID.TID 0000.0001) %MON dynstat_wvel_max             =   9.2934188665889E-03
(PID.TID 0000.0001) %MON dynstat_wvel_min             =  -8.8941686092935E-03
(PID.TID 0000.0001) %MON dynstat_wvel_mean            =   3.7111398967295E-07
(PID.TID 0000.0001) %MON dynstat_wvel_sd              =   1.7033280458801E-04
(PID.TID 0000.0001) %MON dynstat_wvel_del2            =   3.6147806593570E-07
(PID.TID 0000.0001) %MON dynstat_theta_max            =   3.2447015674861E+01
(PID.TID 0000.0001) %MON dynstat_theta_min            =  -2.0443570404496E+00
(PID.TID 0000.0001) %MON dynstat_theta_mean           =   3.5918293171247E+00
(PID.TID 0000.0001) %MON dynstat_theta_sd             =   4.4414897445686E+00
(PID.TID 0000.0001) %MON dynstat_theta_del2           =   1.2809248882010E-04
(PID.TID 0000.0001) %MON dynstat_salt_max             =   4.0655989592925E+01
(PID.TID 0000.0001) %MON dynstat_salt_min             =   1.5941098057803E+01
(PID.TID 0000.0001) %MON dynstat_salt_mean            =   3.4724794682366E+01
(PID.TID 0000.0001) %MON dynstat_salt_sd              =   3.7974333642087E-01
(PID.TID 0000.0001) %MON dynstat_salt_del2            =   6.3197446278786E-05
(PID.TID 0000.0001) %MON dynstat_sst_max              =   3.2447015674861E+01
(PID.TID 0000.0001) %MON dynstat_sst_min              =  -2.0443570404496E+00
(PID.TID 0000.0001) %MON dynstat_sst_mean             =   1.8171110379891E+01
(PID.TID 0000.0001) %MON dynstat_sst_sd               =   1.0203047283459E+01
(PID.TID 0000.0001) %MON dynstat_sst_del2             =   1.1015854125319E-03
(PID.TID 0000.0001) %MON dynstat_sss_max              =   3.9462766892769E+01
(PID.TID 0000.0001) %MON dynstat_sss_min              =   1.5941098057803E+01
(PID.TID 0000.0001) %MON dynstat_sss_mean             =   3.4641492024784E+01
(PID.TID 0000.0001) %MON dynstat_sss_sd               =   1.3030477601252E+00
(PID.TID 0000.0001) %MON dynstat_sss_del2             =   1.4663970917551E-03
(PID.TID 0000.0001) %MON forcing_qnet_max             =   1.5572576904297E+03
(PID.TID 0000.0001) %MON forcing_qnet_min             =  -4.3304052734375E+03
(PID.TID 0000.0001) %MON forcing_qnet_mean            =   2.1741319712467E+01
(PID.TID 0000.0001) %MON forcing_qnet_sd              =   1.9609812942292E+02
(PID.TID 0000.0001) %MON forcing_qnet_del2            =   4.4163869945136E-01
(PID.TID 0000.0001) %MON forcing_qsw_max              =   0.0000000000000E+00
(PID.TID 0000.0001) %MON forcing_qsw_min              =  -1.1002076887754E+02
(PID.TID 0000.0001) %MON forcing_qsw_mean             =  -1.6254851704086E+01
(PID.TID 0000.0001) %MON forcing_qsw_sd               =   2.8399180077170E+01
(PID.TID 0000.0001) %MON forcing_qsw_del2             =   2.1894528945162E-02
(PID.TID 0000.0001) %MON forcing_empmr_max            =   2.4443386122584E-02
(PID.TID 0000.0001) %MON forcing_empmr_min            =  -3.7555284798145E-02
(PID.TID 0000.0001) %MON forcing_empmr_mean           =  -2.7500847673757E-06
(PID.TID 0000.0001) %MON forcing_empmr_sd             =   3.0037508737705E-04
(PID.TID 0000.0001) %MON forcing_empmr_del2           =   3.5153774894846E-06
(PID.TID 0000.0001) %MON forcing_fu_max               =   8.7054583430290E-01
(PID.TID 0000.0001) %MON forcing_fu_min               =  -1.3796660028616E+00
(PID.TID 0000.0001) %MON forcing_fu_mean              =   1.0775510147766E-02
(PID.TID 0000.0001) %MON forcing_fu_sd                =   1.2712730993314E-01
(PID.TID 0000.0001) %MON forcing_fu_del2              =   1.7192732449484E-04
(PID.TID 0000.0001) %MON forcing_fv_max               =   1.2245721812354E+00
(PID.TID 0000.0001) %MON forcing_fv_min               =  -1.7595957615260E+00
(PID.TID 0000.0001) %MON forcing_fv_mean              =   1.7700173756729E-04
(PID.TID 0000.0001) %MON forcing_fv_sd                =   1.1867658277146E-01
(PID.TID 0000.0001) %MON forcing_fv_del2              =   1.5780654445012E-04
(PID.TID 0000.0001) %MON trAdv_CFL_u_max              =   2.3624864806841E-02
(PID.TID 0000.0001) %MON trAdv_CFL_v_max              =   1.8805211806643E-02
(PID.TID 0000.0001) %MON trAdv_CFL_w_max              =   9.8550592133838E-02
(PID.TID 0000.0001) %MON advcfl_uvel_max              =   2.3940880283200E-02
(PID.TID 0000.0001) %MON advcfl_vvel_max              =   1.8744614245954E-02
(PID.TID 0000.0001) %MON advcfl_wvel_max              =   9.3304690716415E-02
(PID.TID 0000.0001) %MON advcfl_W_hf_max              =   9.8550592133838E-02
(PID.TID 0000.0001) %MON pe_b_mean                    =   2.6708571382996E-03
(PID.TID 0000.0001) %MON ke_max                       =   2.0178846839839E+00
(PID.TID 0000.0001) %MON ke_mean                      =   1.7418111039811E-03
(PID.TID 0000.0001) %MON ke_vol                       =   1.3350064351420E+18
(PID.TID 0000.0001) %MON vort_r_min                   =  -7.9931770603331E-05
(PID.TID 0000.0001) %MON vort_r_max                   =   8.6024140011947E-05
(PID.TID 0000.0001) %MON vort_a_mean                  =  -1.9725078782156E-05
(PID.TID 0000.0001) %MON vort_a_sd                    =   7.4541931656567E-05
(PID.TID 0000.0001) %MON vort_p_mean                  =  -2.1669083929750E-05
(PID.TID 0000.0001) %MON vort_p_sd                    =   9.3618745041476E-05
(PID.TID 0000.0001) %MON surfExpan_theta_mean         =   1.1349677553827E-05
(PID.TID 0000.0001) %MON surfExpan_salt_mean          =   3.4640986221150E-06
(PID.TID 0000.0001) // =======================================================
(PID.TID 0000.0001) // End MONITOR dynamic field statistics
(PID.TID 0000.0001) // =======================================================
(PID.TID 0000.0001) // =======================================================
(PID.TID 0000.0001) // Begin MONITOR SEAICE statistics
(PID.TID 0000.0001) // =======================================================
(PID.TID 0000.0001) %MON seaice_tsnumber              =                174879
(PID.TID 0000.0001) %MON seaice_time_sec              =   7.8695550000000E+07
(PID.TID 0000.0001) %MON seaice_uice_max              =   1.2881955769669E+00
(PID.TID 0000.0001) %MON seaice_uice_min              =  -1.3503610984005E+00
(PID.TID 0000.0001) %MON seaice_uice_mean             =   1.1709454540208E-02
(PID.TID 0000.0001) %MON seaice_uice_sd               =   1.4902165545548E-01
(PID.TID 0000.0001) %MON seaice_uice_del2             =   3.7047088523904E-04
(PID.TID 0000.0001) %MON seaice_vice_max              =   1.1055957155348E+00
(PID.TID 0000.0001) %MON seaice_vice_min              =  -1.4658253219892E+00
(PID.TID 0000.0001) %MON seaice_vice_mean             =  -1.3538062511631E-02
(PID.TID 0000.0001) %MON seaice_vice_sd               =   1.6075837128906E-01
(PID.TID 0000.0001) %MON seaice_vice_del2             =   3.5189236761026E-04
(PID.TID 0000.0001) %MON seaice_area_max              =   1.0022649807593E+00
(PID.TID 0000.0001) %MON seaice_area_min              =   0.0000000000000E+00
(PID.TID 0000.0001) %MON seaice_area_mean             =   5.7596648486365E-02
(PID.TID 0000.0001) %MON seaice_area_sd               =   2.2079714664242E-01
(PID.TID 0000.0001) %MON seaice_area_del2             =   2.8542785883461E-04
(PID.TID 0000.0001) %MON seaice_heff_max              =   9.9474312649413E+00
(PID.TID 0000.0001) %MON seaice_heff_min              =   0.0000000000000E+00
(PID.TID 0000.0001) %MON seaice_heff_mean             =   1.4936104518106E-01
(PID.TID 0000.0001) %MON seaice_heff_sd               =   7.1950791898003E-01
(PID.TID 0000.0001) %MON seaice_heff_del2             =   1.3331124578449E-03
(PID.TID 0000.0001) %MON seaice_hsnow_max             =   3.2856599267044E+00
(PID.TID 0000.0001) %MON seaice_hsnow_min             =   0.0000000000000E+00
(PID.TID 0000.0001) %MON seaice_hsnow_mean            =   1.2602356860946E-02
(PID.TID 0000.0001) %MON seaice_hsnow_sd              =   6.7641817514879E-02
(PID.TID 0000.0001) %MON seaice_hsnow_del2            =   3.5865665227702E-04
(PID.TID 0000.0001) // =======================================================
(PID.TID 0000.0001) // End MONITOR SEAICE statistics
(PID.TID 0000.0001) // =======================================================
(PID.TID 0000.0001) // =======================================================
(PID.TID 0000.0001) // Begin MONITOR dynamic field statistics
(PID.TID 0000.0001) // =======================================================
(PID.TID 0000.0001) %MON time_tsnumber                =                174880
(PID.TID 0000.0001) %MON time_secondsf                =   7.8696000000000E+07
(PID.TID 0000.0001) %MON dynstat_eta_max              =   2.5189750415345E+00
(PID.TID 0000.0001) %MON dynstat_eta_min              =  -1.0263450293866E+01
(PID.TID 0000.0001) %MON dynstat_eta_mean             =   9.2916385337357E-02
(PID.TID 0000.0001) %MON dynstat_eta_sd               =   9.5028878248836E-01
(PID.TID 0000.0001) %MON dynstat_eta_del2             =   2.0111852337245E-03
(PID.TID 0000.0001) %MON dynstat_uvel_max             =   1.5818702116441E+00
(PID.TID 0000.0001) %MON dynstat_uvel_min             =  -2.2846329891308E+00
(PID.TID 0000.0001) %MON dynstat_uvel_mean            =   7.7024761048613E-03
(PID.TID 0000.0001) %MON dynstat_uvel_sd              =   4.2006546273707E-02
(PID.TID 0000.0001) %MON dynstat_uvel_del2            =   4.1932839960815E-05
(PID.TID 0000.0001) %MON dynstat_vvel_max             =   1.8589056437847E+00
(PID.TID 0000.0001) %MON dynstat_vvel_min             =  -1.8956278658188E+00
(PID.TID 0000.0001) %MON dynstat_vvel_mean            =   3.6203671415336E-03
(PID.TID 0000.0001) %MON dynstat_vvel_sd              =   4.2568735041005E-02
(PID.TID 0000.0001) %MON dynstat_vvel_del2            =   4.0629035412710E-05
(PID.TID 0000.0001) %MON dynstat_wvel_max             =   9.3202885738386E-03
(PID.TID 0000.0001) %MON dynstat_wvel_min             =  -8.9567071245796E-03
(PID.TID 0000.0001) %MON dynstat_wvel_mean            =   3.7110282915533E-07
(PID.TID 0000.0001) %MON dynstat_wvel_sd              =   1.7110230930917E-04
(PID.TID 0000.0001) %MON dynstat_wvel_del2            =   3.6276205956395E-07
(PID.TID 0000.0001) %MON dynstat_theta_max            =   3.2447425087960E+01
(PID.TID 0000.0001) %MON dynstat_theta_min            =  -2.0441342399495E+00
(PID.TID 0000.0001) %MON dynstat_theta_mean           =   3.5918272547302E+00
(PID.TID 0000.0001) %MON dynstat_theta_sd             =   4.4414825421611E+00
(PID.TID 0000.0001) %MON dynstat_theta_del2           =   1.2814434123940E-04
(PID.TID 0000.0001) %MON dynstat_salt_max             =   4.0655989586652E+01
(PID.TID 0000.0001) %MON dynstat_salt_min             =   1.5940241797057E+01
(PID.TID 0000.0001) %MON dynstat_salt_mean            =   3.4724794700050E+01
(PID.TID 0000.0001) %MON dynstat_salt_sd              =   3.7974381937212E-01
(PID.TID 0000.0001) %MON dynstat_salt_del2            =   6.3163480559508E-05
(PID.TID 0000.0001) %MON dynstat_sst_max              =   3.2447425087960E+01
(PID.TID 0000.0001) %MON dynstat_sst_min              =  -2.0441342399495E+00
(PID.TID 0000.0001) %MON dynstat_sst_mean             =   1.8171016452360E+01
(PID.TID 0000.0001) %MON dynstat_sst_sd               =   1.0203139036125E+01
(PID.TID 0000.0001) %MON dynstat_sst_del2             =   1.1014249045200E-03
(PID.TID 0000.0001) %MON dynstat_sss_max              =   3.9462775018678E+01
(PID.TID 0000.0001) %MON dynstat_sss_min              =   1.5940241797057E+01
(PID.TID 0000.0001) %MON dynstat_sss_mean             =   3.4641471700165E+01
(PID.TID 0000.0001) %MON dynstat_sss_sd               =   1.3030838439064E+00
(PID.TID 0000.0001) %MON dynstat_sss_del2             =   1.4661778362268E-03
(PID.TID 0000.0001) %MON forcing_qnet_max             =   1.0284045730534E+03
(PID.TID 0000.0001) %MON forcing_qnet_min             =  -1.4515257568359E+03
(PID.TID 0000.0001) %MON forcing_qnet_mean            =   2.1229451231392E+01
(PID.TID 0000.0001) %MON forcing_qnet_sd              =   1.9586772355165E+02
(PID.TID 0000.0001) %MON forcing_qnet_del2            =   3.5840369768256E-01
(PID.TID 0000.0001) %MON forcing_qsw_max              =   0.0000000000000E+00
(PID.TID 0000.0001) %MON forcing_qsw_min              =  -1.1013561093478E+02
(PID.TID 0000.0001) %MON forcing_qsw_mean             =  -1.6317345432753E+01
(PID.TID 0000.0001) %MON forcing_qsw_sd               =   2.8574739966401E+01
(PID.TID 0000.0001) %MON forcing_qsw_del2             =   2.1943612837415E-02
(PID.TID 0000.0001) %MON forcing_empmr_max            =   2.5598078966141E-02
(PID.TID 0000.0001) %MON forcing_empmr_min            =  -3.8744278252125E-02
(PID.TID 0000.0001) %MON forcing_empmr_mean           =  -2.5456740576626E-06
(PID.TID 0000.0001) %MON forcing_empmr_sd             =   3.0300437677542E-04
(PID.TID 0000.0001) %MON forcing_empmr_del2           =   3.5685950688374E-06
(PID.TID 0000.0001) %MON forcing_fu_max               =   8.7426429986954E-01
(PID.TID 0000.0001) %MON forcing_fu_min               =  -1.3767145689034E+00
(PID.TID 0000.0001) %MON forcing_fu_mean              =   1.0749140720002E-02
(PID.TID 0000.0001) %MON forcing_fu_sd                =   1.2713517749754E-01
(PID.TID 0000.0001) %MON forcing_fu_del2              =   1.7185164044077E-04
(PID.TID 0000.0001) %MON forcing_fv_max               =   1.2266906689003E+00
(PID.TID 0000.0001) %MON forcing_fv_min               =  -1.7474762489786E+00
(PID.TID 0000.0001) %MON forcing_fv_mean              =   2.0545416000287E-04
(PID.TID 0000.0001) %MON forcing_fv_sd                =   1.1880242898165E-01
(PID.TID 0000.0001) %MON forcing_fv_del2              =   1.5789059231946E-04
(PID.TID 0000.0001) %MON trAdv_CFL_u_max              =   2.3565210073354E-02
(PID.TID 0000.0001) %MON trAdv_CFL_v_max              =   1.8922964066097E-02
(PID.TID 0000.0001) %MON trAdv_CFL_w_max              =   9.8957798320939E-02
(PID.TID 0000.0001) %MON advcfl_uvel_max              =   2.3880427584553E-02
(PID.TID 0000.0001) %MON advcfl_vvel_max              =   1.8861987062743E-02
(PID.TID 0000.0001) %MON advcfl_wvel_max              =   9.3689094058369E-02
(PID.TID 0000.0001) %MON advcfl_W_hf_max              =   9.8957798320939E-02
(PID.TID 0000.0001) %MON pe_b_mean                    =   2.6747573580158E-03
(PID.TID 0000.0001) %MON ke_max                       =   2.0272798732243E+00
(PID.TID 0000.0001) %MON ke_mean                      =   1.7595494763213E-03
(PID.TID 0000.0001) %MON ke_vol                       =   1.3350064351420E+18
(PID.TID 0000.0001) %MON vort_r_min                   =  -7.9657105048542E-05
(PID.TID 0000.0001) %MON vort_r_max                   =   8.5780583213077E-05
(PID.TID 0000.0001) %MON vort_a_mean                  =  -1.9725078641554E-05
(PID.TID 0000.0001) %MON vort_a_sd                    =   7.4541958267289E-05
(PID.TID 0000.0001) %MON vort_p_mean                  =  -2.1669083775291E-05
(PID.TID 0000.0001) %MON vort_p_sd                    =   9.3618800458280E-05
(PID.TID 0000.0001) %MON surfExpan_theta_mean         =   1.1785042615851E-05
(PID.TID 0000.0001) %MON surfExpan_salt_mean          =   3.4847683147781E-06
(PID.TID 0000.0001) // =======================================================
(PID.TID 0000.0001) // End MONITOR dynamic field statistics
(PID.TID 0000.0001) // =======================================================
(PID.TID 0000.0001) // =======================================================
(PID.TID 0000.0001) // Begin MONITOR SEAICE statistics
(PID.TID 0000.0001) // =======================================================
(PID.TID 0000.0001) %MON seaice_tsnumber              =                174880
(PID.TID 0000.0001) %MON seaice_time_sec              =   7.8696000000000E+07
(PID.TID 0000.0001) %MON seaice_uice_max              =   1.2862454923904E+00
(PID.TID 0000.0001) %MON seaice_uice_min              =  -1.3654282468889E+00
(PID.TID 0000.0001) %MON seaice_uice_mean             =   1.1719232585592E-02
(PID.TID 0000.0001) %MON seaice_uice_sd               =   1.4905501093906E-01
(PID.TID 0000.0001) %MON seaice_uice_del2             =   3.7083115257535E-04
(PID.TID 0000.0001) %MON seaice_vice_max              =   1.1045731287117E+00
(PID.TID 0000.0001) %MON seaice_vice_min              =  -1.4659284577679E+00
(PID.TID 0000.0001) %MON seaice_vice_mean             =  -1.3456221650761E-02
(PID.TID 0000.0001) %MON seaice_vice_sd               =   1.6077376383846E-01
(PID.TID 0000.0001) %MON seaice_vice_del2             =   3.5272232648928E-04
(PID.TID 0000.0001) %MON seaice_area_max              =   1.0022202425039E+00
(PID.TID 0000.0001) %MON seaice_area_min              =   0.0000000000000E+00
(PID.TID 0000.0001) %MON seaice_area_mean             =   5.7599091436741E-02
(PID.TID 0000.0001) %MON seaice_area_sd               =   2.2079499122065E-01
(PID.TID 0000.0001) %MON seaice_area_del2             =   2.8534648863416E-04
(PID.TID 0000.0001) %MON seaice_heff_max              =   9.9474226987935E+00
(PID.TID 0000.0001) %MON seaice_heff_min              =   0.0000000000000E+00
(PID.TID 0000.0001) %MON seaice_heff_mean             =   1.4935743011159E-01
(PID.TID 0000.0001) %MON seaice_heff_sd               =   7.1949688144722E-01
(PID.TID 0000.0001) %MON seaice_heff_del2             =   1.3325064374452E-03
(PID.TID 0000.0001) %MON seaice_hsnow_max             =   3.2856567591473E+00
(PID.TID 0000.0001) %MON seaice_hsnow_min             =   0.0000000000000E+00
(PID.TID 0000.0001) %MON seaice_hsnow_mean            =   1.2601646991487E-02
(PID.TID 0000.0001) %MON seaice_hsnow_sd              =   6.7631398755105E-02
(PID.TID 0000.0001) %MON seaice_hsnow_del2            =   3.5835453291746E-04
(PID.TID 0000.0001) // =======================================================
(PID.TID 0000.0001) // End MONITOR SEAICE statistics
(PID.TID 0000.0001) // =======================================================
(PID.TID 0000.0001) // =======================================================
(PID.TID 0000.0001) // Begin MONITOR dynamic field statistics
(PID.TID 0000.0001) // =======================================================
(PID.TID 0000.0001) %MON time_tsnumber                =                174881
(PID.TID 0000.0001) %MON time_secondsf                =   7.8696450000000E+07
(PID.TID 0000.0001) %MON dynstat_eta_max              =   2.5896277458241E+00
(PID.TID 0000.0001) %MON dynstat_eta_min              =  -1.0245499856219E+01
(PID.TID 0000.0001) %MON dynstat_eta_mean             =   9.2969412206403E-02
(PID.TID 0000.0001) %MON dynstat_eta_sd               =   9.5181489771773E-01
(PID.TID 0000.0001) %MON dynstat_eta_del2             =   2.0111251906166E-03
(PID.TID 0000.0001) %MON dynstat_uvel_max             =   1.5687531492167E+00
(PID.TID 0000.0001) %MON dynstat_uvel_min             =  -2.2788139911407E+00
(PID.TID 0000.0001) %MON dynstat_uvel_mean            =   7.6883289052921E-03
(PID.TID 0000.0001) %MON dynstat_uvel_sd              =   4.2220224130952E-02
(PID.TID 0000.0001) %MON dynstat_uvel_del2            =   4.2035847007975E-05
(PID.TID 0000.0001) %MON dynstat_vvel_max             =   1.8702112954527E+00
(PID.TID 0000.0001) %MON dynstat_vvel_min             =  -1.8884621541153E+00
(PID.TID 0000.0001) %MON dynstat_vvel_mean            =   3.6014179544775E-03
(PID.TID 0000.0001) %MON dynstat_vvel_sd              =   4.2796684701420E-02
(PID.TID 0000.0001) %MON dynstat_vvel_del2            =   4.0739024013040E-05
(PID.TID 0000.0001) %MON dynstat_wvel_max             =   9.3471238611567E-03
(PID.TID 0000.0001) %MON dynstat_wvel_min             =  -9.0180420950714E-03
(PID.TID 0000.0001) %MON dynstat_wvel_mean            =   3.7001833612893E-07
(PID.TID 0000.0001) %MON dynstat_wvel_sd              =   1.7187059829806E-04
(PID.TID 0000.0001) %MON dynstat_wvel_del2            =   3.6404440898326E-07
(PID.TID 0000.0001) %MON dynstat_theta_max            =   3.2447761265676E+01
(PID.TID 0000.0001) %MON dynstat_theta_min            =  -2.0439088010522E+00
(PID.TID 0000.0001) %MON dynstat_theta_mean           =   3.5918251529276E+00
(PID.TID 0000.0001) %MON dynstat_theta_sd             =   4.4414753479839E+00
(PID.TID 0000.0001) %MON dynstat_theta_del2           =   1.2819494623542E-04
(PID.TID 0000.0001) %MON dynstat_salt_max             =   4.0655989579491E+01
(PID.TID 0000.0001) %MON dynstat_salt_min             =   1.5939370241168E+01
(PID.TID 0000.0001) %MON dynstat_salt_mean            =   3.4724794703398E+01
(PID.TID 0000.0001) %MON dynstat_salt_sd              =   3.7974432346749E-01
(PID.TID 0000.0001) %MON dynstat_salt_del2            =   6.3129501238503E-05
(PID.TID 0000.0001) %MON dynstat_sst_max              =   3.2447761265676E+01
(PID.TID 0000.0001) %MON dynstat_sst_min              =  -2.0439088010522E+00
(PID.TID 0000.0001) %MON dynstat_sst_mean             =   1.8170931502159E+01
(PID.TID 0000.0001) %MON dynstat_sst_sd               =   1.0203233616714E+01
(PID.TID 0000.0001) %MON dynstat_sst_del2             =   1.1011456991556E-03
(PID.TID 0000.0001) %MON dynstat_sss_max              =   3.9462785521959E+01
(PID.TID 0000.0001) %MON dynstat_sss_min              =   1.5939370241168E+01
(PID.TID 0000.0001) %MON dynstat_sss_mean             =   3.4641451313122E+01
(PID.TID 0000.0001) %MON dynstat_sss_sd               =   1.3031199930597E+00
(PID.TID 0000.0001) %MON dynstat_sss_del2             =   1.4659607028055E-03
(PID.TID 0000.0001) %MON forcing_qnet_max             =   1.0567462916443E+03
(PID.TID 0000.0001) %MON forcing_qnet_min             =  -1.2041013183594E+03
(PID.TID 0000.0001) %MON forcing_qnet_mean            =   2.0783936481472E+01
(PID.TID 0000.0001) %MON forcing_qnet_sd              =   1.9631153439519E+02
(PID.TID 0000.0001) %MON forcing_qnet_del2            =   3.5577501712720E-01
(PID.TID 0000.0001) %MON forcing_qsw_max              =   0.0000000000000E+00
(PID.TID 0000.0001) %MON forcing_qsw_min              =  -1.1013355842031E+02
(PID.TID 0000.0001) %MON forcing_qsw_mean             =  -1.6371852616119E+01
(PID.TID 0000.0001) %MON forcing_qsw_sd               =   2.8735456828307E+01
(PID.TID 0000.0001) %MON forcing_qsw_del2             =   2.1984919012787E-02
(PID.TID 0000.0001) %MON forcing_empmr_max            =   2.6900902390480E-02
(PID.TID 0000.0001) %MON forcing_empmr_min            =  -3.6860551685095E-02
(PID.TID 0000.0001) %MON forcing_empmr_mean           =  -2.4475007673423E-06
(PID.TID 0000.0001) %MON forcing_empmr_sd             =   2.9993985999323E-04
(PID.TID 0000.0001) %MON forcing_empmr_del2           =   3.5748540938770E-06
(PID.TID 0000.0001) %MON forcing_fu_max               =   8.7353518605232E-01
(PID.TID 0000.0001) %MON forcing_fu_min               =  -1.3726826591738E+00
(PID.TID 0000.0001) %MON forcing_fu_mean              =   1.0731665137646E-02
(PID.TID 0000.0001) %MON forcing_fu_sd                =   1.2712711899139E-01
(PID.TID 0000.0001) %MON forcing_fu_del2              =   1.7180437150736E-04
(PID.TID 0000.0001) %MON forcing_fv_max               =   1.2315746823444E+00
(PID.TID 0000.0001) %MON forcing_fv_min               =  -1.7338033132006E+00
(PID.TID 0000.0001) %MON forcing_fv_mean              =   2.3121541593352E-04
(PID.TID 0000.0001) %MON forcing_fv_sd                =   1.1896445564836E-01
(PID.TID 0000.0001) %MON forcing_fv_del2              =   1.5798321429679E-04
(PID.TID 0000.0001) %MON trAdv_CFL_u_max              =   2.3505189093745E-02
(PID.TID 0000.0001) %MON trAdv_CFL_v_max              =   1.9038051370809E-02
(PID.TID 0000.0001) %MON trAdv_CFL_w_max              =   9.9370401274213E-02
(PID.TID 0000.0001) %MON advcfl_uvel_max              =   2.3819603740732E-02
(PID.TID 0000.0001) %MON advcfl_vvel_max              =   1.8976703512291E-02
(PID.TID 0000.0001) %MON advcfl_wvel_max              =   9.4079406716437E-02
(PID.TID 0000.0001) %MON advcfl_W_hf_max              =   9.9370401274213E-02
(PID.TID 0000.0001) %MON pe_b_mean                    =   2.6787122820492E-03
(PID.TID 0000.0001) %MON ke_max                       =   2.0364936839739E+00
(PID.TID 0000.0001) %MON ke_mean                      =   1.7774396303981E-03
(PID.TID 0000.0001) %MON ke_vol                       =   1.3350064351420E+18
(PID.TID 0000.0001) %MON vort_r_min                   =  -7.9378391130127E-05
(PID.TID 0000.0001) %MON vort_r_max                   =   8.5534623166284E-05
(PID.TID 0000.0001) %MON vort_a_mean                  =  -1.9725078506608E-05
(PID.TID 0000.0001) %MON vort_a_sd                    =   7.4541984837003E-05
(PID.TID 0000.0001) %MON vort_p_mean                  =  -2.1669083627045E-05
(PID.TID 0000.0001) %MON vort_p_sd                    =   9.3618854834938E-05
(PID.TID 0000.0001) %MON surfExpan_theta_mean         =   1.2220576276205E-05
(PID.TID 0000.0001) %MON surfExpan_salt_mean          =   3.4376945553392E-06
(PID.TID 0000.0001) // =======================================================
(PID.TID 0000.0001) // End MONITOR dynamic field statistics
(PID.TID 0000.0001) // =======================================================
(PID.TID 0000.0001) // =======================================================
(PID.TID 0000.0001) // Begin MONITOR SEAICE statistics
(PID.TID 0000.0001) // =======================================================
(PID.TID 0000.0001) %MON seaice_tsnumber              =                174881
(PID.TID 0000.0001) %MON seaice_time_sec              =   7.8696450000000E+07
(PID.TID 0000.0001) %MON seaice_uice_max              =   1.2841256463537E+00
(PID.TID 0000.0001) %MON seaice_uice_min              =  -1.3801771124136E+00
(PID.TID 0000.0001) %MON seaice_uice_mean             =   1.1719821424288E-02
(PID.TID 0000.0001) %MON seaice_uice_sd               =   1.4909286836002E-01
(PID.TID 0000.0001) %MON seaice_uice_del2             =   3.7142866607095E-04
(PID.TID 0000.0001) %MON seaice_vice_max              =   1.1024989444424E+00
(PID.TID 0000.0001) %MON seaice_vice_min              =  -1.4660404403360E+00
(PID.TID 0000.0001) %MON seaice_vice_mean             =  -1.3380692122131E-02
(PID.TID 0000.0001) %MON seaice_vice_sd               =   1.6078400439716E-01
(PID.TID 0000.0001) %MON seaice_vice_del2             =   3.5356734163409E-04
(PID.TID 0000.0001) %MON seaice_area_max              =   1.0021717781578E+00
(PID.TID 0000.0001) %MON seaice_area_min              =   0.0000000000000E+00
(PID.TID 0000.0001) %MON seaice_area_mean             =   5.7601569547227E-02
(PID.TID 0000.0001) %MON seaice_area_sd               =   2.2079290416616E-01
(PID.TID 0000.0001) %MON seaice_area_del2             =   2.8526253928863E-04
(PID.TID 0000.0001) %MON seaice_heff_max              =   9.9474141322152E+00
(PID.TID 0000.0001) %MON seaice_heff_min              =   0.0000000000000E+00
(PID.TID 0000.0001) %MON seaice_heff_mean             =   1.4935381998969E-01
(PID.TID 0000.0001) %MON seaice_heff_sd               =   7.1948583933581E-01
(PID.TID 0000.0001) %MON seaice_heff_del2             =   1.3319022188269E-03
(PID.TID 0000.0001) %MON seaice_hsnow_max             =   3.2856538303204E+00
(PID.TID 0000.0001) %MON seaice_hsnow_min             =   0.0000000000000E+00
(PID.TID 0000.0001) %MON seaice_hsnow_mean            =   1.2600926139253E-02
(PID.TID 0000.0001) %MON seaice_hsnow_sd              =   6.7620915549421E-02
(PID.TID 0000.0001) %MON seaice_hsnow_del2            =   3.5805185937402E-04
(PID.TID 0000.0001) // =======================================================
(PID.TID 0000.0001) // End MONITOR SEAICE statistics
(PID.TID 0000.0001) // =======================================================
(PID.TID 0000.0001) // =======================================================
(PID.TID 0000.0001) // Begin MONITOR dynamic field statistics
(PID.TID 0000.0001) // =======================================================
(PID.TID 0000.0001) %MON time_tsnumber                =                174882
(PID.TID 0000.0001) %MON time_secondsf                =   7.8696900000000E+07
(PID.TID 0000.0001) %MON dynstat_eta_max              =   2.6508609107686E+00
(PID.TID 0000.0001) %MON dynstat_eta_min              =  -1.0227302285258E+01
(PID.TID 0000.0001) %MON dynstat_eta_mean             =   9.3019814071119E-02
(PID.TID 0000.0001) %MON dynstat_eta_sd               =   9.5337607496999E-01
(PID.TID 0000.0001) %MON dynstat_eta_del2             =   2.0110775951924E-03
(PID.TID 0000.0001) %MON dynstat_uvel_max             =   1.5556590143350E+00
(PID.TID 0000.0001) %MON dynstat_uvel_min             =  -2.2729765409423E+00
(PID.TID 0000.0001) %MON dynstat_uvel_mean            =   7.6706425281753E-03
(PID.TID 0000.0001) %MON dynstat_uvel_sd              =   4.2435298277749E-02
(PID.TID 0000.0001) %MON dynstat_uvel_del2            =   4.2139431908712E-05
(PID.TID 0000.0001) %MON dynstat_vvel_max             =   1.8812307665339E+00
(PID.TID 0000.0001) %MON dynstat_vvel_min             =  -1.8812436087471E+00
(PID.TID 0000.0001) %MON dynstat_vvel_mean            =   3.5811942902263E-03
(PID.TID 0000.0001) %MON dynstat_vvel_sd              =   4.3025361800903E-02
(PID.TID 0000.0001) %MON dynstat_vvel_del2            =   4.0849527778930E-05
(PID.TID 0000.0001) %MON dynstat_wvel_max             =   9.3739370117523E-03
(PID.TID 0000.0001) %MON dynstat_wvel_min             =  -9.0781314411077E-03
(PID.TID 0000.0001) %MON dynstat_wvel_mean            =   3.6853849696168E-07
(PID.TID 0000.0001) %MON dynstat_wvel_sd              =   1.7263789465185E-04
(PID.TID 0000.0001) %MON dynstat_wvel_del2            =   3.6532490163703E-07
(PID.TID 0000.0001) %MON dynstat_theta_max            =   3.2448062309214E+01
(PID.TID 0000.0001) %MON dynstat_theta_min            =  -2.0436821851991E+00
(PID.TID 0000.0001) %MON dynstat_theta_mean           =   3.5918230058847E+00
(PID.TID 0000.0001) %MON dynstat_theta_sd             =   4.4414681498589E+00
(PID.TID 0000.0001) %MON dynstat_theta_del2           =   1.2824654852066E-04
(PID.TID 0000.0001) %MON dynstat_salt_max             =   4.0655989571479E+01
(PID.TID 0000.0001) %MON dynstat_salt_min             =   1.5938484772351E+01
(PID.TID 0000.0001) %MON dynstat_salt_mean            =   3.4724794691712E+01
(PID.TID 0000.0001) %MON dynstat_salt_sd              =   3.7974485079473E-01
(PID.TID 0000.0001) %MON dynstat_salt_del2            =   6.3095960845506E-05
(PID.TID 0000.0001) %MON dynstat_sst_max              =   3.2448062309214E+01
(PID.TID 0000.0001) %MON dynstat_sst_min              =  -2.0436821851991E+00
(PID.TID 0000.0001) %MON dynstat_sst_mean             =   1.8170852910489E+01
(PID.TID 0000.0001) %MON dynstat_sst_sd               =   1.0203332033330E+01
(PID.TID 0000.0001) %MON dynstat_sst_del2             =   1.1009388747887E-03
(PID.TID 0000.0001) %MON dynstat_sss_max              =   3.9462798412294E+01
(PID.TID 0000.0001) %MON dynstat_sss_min              =   1.5938484772351E+01
(PID.TID 0000.0001) %MON dynstat_sss_mean             =   3.4641431185143E+01
(PID.TID 0000.0001) %MON dynstat_sss_sd               =   1.3031569970153E+00
(PID.TID 0000.0001) %MON dynstat_sss_del2             =   1.4657488598410E-03
(PID.TID 0000.0001) %MON forcing_qnet_max             =   1.0286464978677E+03
(PID.TID 0000.0001) %MON forcing_qnet_min             =  -1.1412961425781E+03
(PID.TID 0000.0001) %MON forcing_qnet_mean            =   2.0431199747901E+01
(PID.TID 0000.0001) %MON forcing_qnet_sd              =   1.9691077368061E+02
(PID.TID 0000.0001) %MON forcing_qnet_del2            =   3.5588761938061E-01
(PID.TID 0000.0001) %MON forcing_qsw_max              =   0.0000000000000E+00
(PID.TID 0000.0001) %MON forcing_qsw_min              =  -1.1005037211902E+02
(PID.TID 0000.0001) %MON forcing_qsw_mean             =  -1.6418196572814E+01
(PID.TID 0000.0001) %MON forcing_qsw_sd               =   2.8880935534382E+01
(PID.TID 0000.0001) %MON forcing_qsw_del2             =   2.2018419272416E-02
(PID.TID 0000.0001) %MON forcing_empmr_max            =   2.7690026909113E-02
(PID.TID 0000.0001) %MON forcing_empmr_min            =  -3.5618662834167E-02
(PID.TID 0000.0001) %MON forcing_empmr_mean           =  -2.3503428198894E-06
(PID.TID 0000.0001) %MON forcing_empmr_sd             =   2.9944547043337E-04
(PID.TID 0000.0001) %MON forcing_empmr_del2           =   3.5831223500214E-06
(PID.TID 0000.0001) %MON forcing_fu_max               =   8.7281700968742E-01
(PID.TID 0000.0001) %MON forcing_fu_min               =  -1.3727082380054E+00
(PID.TID 0000.0001) %MON forcing_fu_mean              =   1.0717783639115E-02
(PID.TID 0000.0001) %MON forcing_fu_sd                =   1.2713765969351E-01
(PID.TID 0000.0001) %MON forcing_fu_del2              =   1.7187449079248E-04
(PID.TID 0000.0001) %MON forcing_fv_max               =   1.2337497019360E+00
(PID.TID 0000.0001) %MON forcing_fv_min               =  -1.7182039979258E+00
(PID.TID 0000.0001) %MON forcing_fv_mean              =   2.6462294781398E-04
(PID.TID 0000.0001) %MON forcing_fv_sd                =   1.1915487820031E-01
(PID.TID 0000.0001) %MON forcing_fv_del2              =   1.5815853332636E-04
(PID.TID 0000.0001) %MON trAdv_CFL_u_max              =   2.3444977785902E-02
(PID.TID 0000.0001) %MON trAdv_CFL_v_max              =   1.9150225464203E-02
(PID.TID 0000.0001) %MON trAdv_CFL_w_max              =   9.9788792150298E-02
(PID.TID 0000.0001) %MON advcfl_uvel_max              =   2.3758587022772E-02
(PID.TID 0000.0001) %MON advcfl_vvel_max              =   1.9088516137997E-02
(PID.TID 0000.0001) %MON advcfl_wvel_max              =   9.4476073454879E-02
(PID.TID 0000.0001) %MON advcfl_W_hf_max              =   9.9788792150298E-02
(PID.TID 0000.0001) %MON pe_b_mean                    =   2.6827094316851E-03
(PID.TID 0000.0001) %MON ke_max                       =   2.0455113731736E+00
(PID.TID 0000.0001) %MON ke_mean                      =   1.7954812002308E-03
(PID.TID 0000.0001) %MON ke_vol                       =   1.3350064351420E+18
(PID.TID 0000.0001) %MON vort_r_min                   =  -7.9096311231168E-05
(PID.TID 0000.0001) %MON vort_r_max                   =   8.5286950722659E-05
(PID.TID 0000.0001) %MON vort_a_mean                  =  -1.9725078377400E-05
(PID.TID 0000.0001) %MON vort_a_sd                    =   7.4542011400407E-05
(PID.TID 0000.0001) %MON vort_p_mean                  =  -2.1669083485103E-05
(PID.TID 0000.0001) %MON vort_p_sd                    =   9.3618908129868E-05
(PID.TID 0000.0001) %MON surfExpan_theta_mean         =   1.2685432244563E-05
(PID.TID 0000.0001) %MON surfExpan_salt_mean          =   3.3653222180507E-06
(PID.TID 0000.0001) // =======================================================
(PID.TID 0000.0001) // End MONITOR dynamic field statistics
(PID.TID 0000.0001) // =======================================================
(PID.TID 0000.0001) // =======================================================
(PID.TID 0000.0001) // Begin MONITOR SEAICE statistics
(PID.TID 0000.0001) // =======================================================
(PID.TID 0000.0001) %MON seaice_tsnumber              =                174882
(PID.TID 0000.0001) %MON seaice_time_sec              =   7.8696900000000E+07
(PID.TID 0000.0001) %MON seaice_uice_max              =   1.2813645435646E+00
(PID.TID 0000.0001) %MON seaice_uice_min              =  -1.3945511572468E+00
(PID.TID 0000.0001) %MON seaice_uice_mean             =   1.1712369645707E-02
(PID.TID 0000.0001) %MON seaice_uice_sd               =   1.4913014036989E-01
(PID.TID 0000.0001) %MON seaice_uice_del2             =   3.7199019841378E-04
(PID.TID 0000.0001) %MON seaice_vice_max              =   1.0993241726393E+00
(PID.TID 0000.0001) %MON seaice_vice_min              =  -1.4661601954597E+00
(PID.TID 0000.0001) %MON seaice_vice_mean             =  -1.3319552627372E-02
(PID.TID 0000.0001) %MON seaice_vice_sd               =   1.6079603371759E-01
(PID.TID 0000.0001) %MON seaice_vice_del2             =   3.5433649188299E-04
(PID.TID 0000.0001) %MON seaice_area_max              =   1.0021178919983E+00
(PID.TID 0000.0001) %MON seaice_area_min              =   0.0000000000000E+00
(PID.TID 0000.0001) %MON seaice_area_mean             =   5.7604054616839E-02
(PID.TID 0000.0001) %MON seaice_area_sd               =   2.2079084098937E-01
(PID.TID 0000.0001) %MON seaice_area_del2             =   2.8517383315826E-04
(PID.TID 0000.0001) %MON seaice_heff_max              =   9.9474055654681E+00
(PID.TID 0000.0001) %MON seaice_heff_min              =   0.0000000000000E+00
(PID.TID 0000.0001) %MON seaice_heff_mean             =   1.4935021873704E-01
(PID.TID 0000.0001) %MON seaice_heff_sd               =   7.1947483238741E-01
(PID.TID 0000.0001) %MON seaice_heff_del2             =   1.3312994455151E-03
(PID.TID 0000.0001) %MON seaice_hsnow_max             =   3.2856509019818E+00
(PID.TID 0000.0001) %MON seaice_hsnow_min             =   0.0000000000000E+00
(PID.TID 0000.0001) %MON seaice_hsnow_mean            =   1.2600201753301E-02
(PID.TID 0000.0001) %MON seaice_hsnow_sd              =   6.7610371317912E-02
(PID.TID 0000.0001) %MON seaice_hsnow_del2            =   3.5774832640086E-04
(PID.TID 0000.0001) // =======================================================
(PID.TID 0000.0001) // End MONITOR SEAICE statistics
(PID.TID 0000.0001) // =======================================================
(PID.TID 0000.0001) // =======================================================
(PID.TID 0000.0001) // Begin MONITOR dynamic field statistics
(PID.TID 0000.0001) // =======================================================
(PID.TID 0000.0001) %MON time_tsnumber                =                174883
(PID.TID 0000.0001) %MON time_secondsf                =   7.8697350000000E+07
(PID.TID 0000.0001) %MON dynstat_eta_max              =   2.7022937684037E+00
(PID.TID 0000.0001) %MON dynstat_eta_min              =  -1.0208879701682E+01
(PID.TID 0000.0001) %MON dynstat_eta_mean             =   9.3067437770632E-02
(PID.TID 0000.0001) %MON dynstat_eta_sd               =   9.5497173226343E-01
(PID.TID 0000.0001) %MON dynstat_eta_del2             =   2.0110438827881E-03
(PID.TID 0000.0001) %MON dynstat_uvel_max             =   1.5425939374228E+00
(PID.TID 0000.0001) %MON dynstat_uvel_min             =  -2.2671341353121E+00
(PID.TID 0000.0001) %MON dynstat_uvel_mean            =   7.6496307816555E-03
(PID.TID 0000.0001) %MON dynstat_uvel_sd              =   4.2651747045831E-02
(PID.TID 0000.0001) %MON dynstat_uvel_del2            =   4.2243619266158E-05
(PID.TID 0000.0001) %MON dynstat_vvel_max             =   1.8919430838475E+00
(PID.TID 0000.0001) %MON dynstat_vvel_min             =  -1.8739720773060E+00
(PID.TID 0000.0001) %MON dynstat_vvel_mean            =   3.5596501844516E-03
(PID.TID 0000.0001) %MON dynstat_vvel_sd              =   4.3254978218203E-02
(PID.TID 0000.0001) %MON dynstat_vvel_del2            =   4.0960347206497E-05
(PID.TID 0000.0001) %MON dynstat_wvel_max             =   9.4007378385187E-03
(PID.TID 0000.0001) %MON dynstat_wvel_min             =  -9.1369424874789E-03
(PID.TID 0000.0001) %MON dynstat_wvel_mean            =   3.6674968833800E-07
(PID.TID 0000.0001) %MON dynstat_wvel_sd              =   1.7340459198147E-04
(PID.TID 0000.0001) %MON dynstat_wvel_del2            =   3.6660334591306E-07
(PID.TID 0000.0001) %MON dynstat_theta_max            =   3.2448326136848E+01
(PID.TID 0000.0001) %MON dynstat_theta_min            =  -2.0434558094014E+00
(PID.TID 0000.0001) %MON dynstat_theta_mean           =   3.5918208090268E+00
(PID.TID 0000.0001) %MON dynstat_theta_sd             =   4.4414609343354E+00
(PID.TID 0000.0001) %MON dynstat_theta_del2           =   1.2829811186123E-04
(PID.TID 0000.0001) %MON dynstat_salt_max             =   4.0655989562658E+01
(PID.TID 0000.0001) %MON dynstat_salt_min             =   1.5937586244926E+01
(PID.TID 0000.0001) %MON dynstat_salt_mean            =   3.4724794663312E+01
(PID.TID 0000.0001) %MON dynstat_salt_sd              =   3.7974540278299E-01
(PID.TID 0000.0001) %MON dynstat_salt_del2            =   6.3063237208851E-05
(PID.TID 0000.0001) %MON dynstat_sst_max              =   3.2448326136848E+01
(PID.TID 0000.0001) %MON dynstat_sst_min              =  -2.0434558094014E+00
(PID.TID 0000.0001) %MON dynstat_sst_mean             =   1.8170780323626E+01
(PID.TID 0000.0001) %MON dynstat_sst_sd               =   1.0203432044303E+01
(PID.TID 0000.0001) %MON dynstat_sst_del2             =   1.1007038289134E-03
(PID.TID 0000.0001) %MON dynstat_sss_max              =   3.9462813498339E+01
(PID.TID 0000.0001) %MON dynstat_sss_min              =   1.5937586244926E+01
(PID.TID 0000.0001) %MON dynstat_sss_mean             =   3.4641411014030E+01
(PID.TID 0000.0001) %MON dynstat_sss_sd               =   1.3031933464203E+00
(PID.TID 0000.0001) %MON dynstat_sss_del2             =   1.4655895874476E-03
(PID.TID 0000.0001) %MON forcing_qnet_max             =   9.8374461719163E+02
(PID.TID 0000.0001) %MON forcing_qnet_min             =  -2.1818685532785E+03
(PID.TID 0000.0001) %MON forcing_qnet_mean            =   2.0112003587241E+01
(PID.TID 0000.0001) %MON forcing_qnet_sd              =   1.9745908896242E+02
(PID.TID 0000.0001) %MON forcing_qnet_del2            =   3.7086313009219E-01
(PID.TID 0000.0001) %MON forcing_qsw_max              =   0.0000000000000E+00
(PID.TID 0000.0001) %MON forcing_qsw_min              =  -1.1015316535308E+02
(PID.TID 0000.0001) %MON forcing_qsw_mean             =  -1.6455965935427E+01
(PID.TID 0000.0001) %MON forcing_qsw_sd               =   2.9010902377173E+01
(PID.TID 0000.0001) %MON forcing_qsw_del2             =   2.2044054533157E-02
(PID.TID 0000.0001) %MON forcing_empmr_max            =   2.8081869706511E-02
(PID.TID 0000.0001) %MON forcing_empmr_min            =  -3.7210375070572E-02
(PID.TID 0000.0001) %MON forcing_empmr_mean           =  -2.6455358902771E-06
(PID.TID 0000.0001) %MON forcing_empmr_sd             =   2.9914579404380E-04
(PID.TID 0000.0001) %MON forcing_empmr_del2           =   3.6328681210666E-06
(PID.TID 0000.0001) %MON forcing_fu_max               =   8.7213423848152E-01
(PID.TID 0000.0001) %MON forcing_fu_min               =  -1.3806094060689E+00
(PID.TID 0000.0001) %MON forcing_fu_mean              =   1.0698332205159E-02
(PID.TID 0000.0001) %MON forcing_fu_sd                =   1.2711508524998E-01
(PID.TID 0000.0001) %MON forcing_fu_del2              =   1.7189104650931E-04
(PID.TID 0000.0001) %MON forcing_fv_max               =   1.2360010386031E+00
(PID.TID 0000.0001) %MON forcing_fv_min               =  -1.7008748631903E+00
(PID.TID 0000.0001) %MON forcing_fv_mean              =   2.9590157557411E-04
(PID.TID 0000.0001) %MON forcing_fv_sd                =   1.1928533845020E-01
(PID.TID 0000.0001) %MON forcing_fv_del2              =   1.5812045074201E-04
(PID.TID 0000.0001) %MON trAdv_CFL_u_max              =   2.3384715364469E-02
(PID.TID 0000.0001) %MON trAdv_CFL_v_max              =   1.9259272847145E-02
(PID.TID 0000.0001) %MON trAdv_CFL_w_max              =   1.0021053757338E-01
(PID.TID 0000.0001) %MON advcfl_uvel_max              =   2.3697518507507E-02
(PID.TID 0000.0001) %MON advcfl_vvel_max              =   1.9197212128703E-02
(PID.TID 0000.0001) %MON advcfl_wvel_max              =   9.4876533270829E-02
(PID.TID 0000.0001) %MON advcfl_W_hf_max              =   1.0021053757338E-01
(PID.TID 0000.0001) %MON pe_b_mean                    =   2.6867420330064E-03
(PID.TID 0000.0001) %MON ke_max                       =   2.0543184522634E+00
(PID.TID 0000.0001) %MON ke_mean                      =   1.8136851592843E-03
(PID.TID 0000.0001) %MON ke_vol                       =   1.3350064351420E+18
(PID.TID 0000.0001) %MON vort_r_min                   =  -7.8811414148312E-05
(PID.TID 0000.0001) %MON vort_r_max                   =   8.5038213154003E-05
(PID.TID 0000.0001) %MON vort_a_mean                  =  -1.9725078254405E-05
(PID.TID 0000.0001) %MON vort_a_sd                    =   7.4542037991860E-05
(PID.TID 0000.0001) %MON vort_p_mean                  =  -2.1669083349986E-05
(PID.TID 0000.0001) %MON vort_p_sd                    =   9.3618960438370E-05
(PID.TID 0000.0001) %MON surfExpan_theta_mean         =   1.3179398927254E-05
(PID.TID 0000.0001) %MON surfExpan_salt_mean          =   3.2743840164802E-06
(PID.TID 0000.0001) // =======================================================
(PID.TID 0000.0001) // End MONITOR dynamic field statistics
(PID.TID 0000.0001) // =======================================================
(PID.TID 0000.0001) // =======================================================
(PID.TID 0000.0001) // Begin MONITOR SEAICE statistics
(PID.TID 0000.0001) // =======================================================
(PID.TID 0000.0001) %MON seaice_tsnumber              =                174883
(PID.TID 0000.0001) %MON seaice_time_sec              =   7.8697350000000E+07
(PID.TID 0000.0001) %MON seaice_uice_max              =   1.2780798255936E+00
(PID.TID 0000.0001) %MON seaice_uice_min              =  -1.4084950708635E+00
(PID.TID 0000.0001) %MON seaice_uice_mean             =   1.1697630370825E-02
(PID.TID 0000.0001) %MON seaice_uice_sd               =   1.4916861000555E-01
(PID.TID 0000.0001) %MON seaice_uice_del2             =   3.7255979513327E-04
(PID.TID 0000.0001) %MON seaice_vice_max              =   1.0950835475726E+00
(PID.TID 0000.0001) %MON seaice_vice_min              =  -1.4662893579881E+00
(PID.TID 0000.0001) %MON seaice_vice_mean             =  -1.3267169264312E-02
(PID.TID 0000.0001) %MON seaice_vice_sd               =   1.6080186243365E-01
(PID.TID 0000.0001) %MON seaice_vice_del2             =   3.5512292947884E-04
(PID.TID 0000.0001) %MON seaice_area_max              =   1.0020588973722E+00
(PID.TID 0000.0001) %MON seaice_area_min              =   0.0000000000000E+00
(PID.TID 0000.0001) %MON seaice_area_mean             =   5.7606552037759E-02
(PID.TID 0000.0001) %MON seaice_area_sd               =   2.2078881930391E-01
(PID.TID 0000.0001) %MON seaice_area_del2             =   2.8508175414769E-04
(PID.TID 0000.0001) %MON seaice_heff_max              =   9.9473969982418E+00
(PID.TID 0000.0001) %MON seaice_heff_min              =   0.0000000000000E+00
(PID.TID 0000.0001) %MON seaice_heff_mean             =   1.4934662386826E-01
(PID.TID 0000.0001) %MON seaice_heff_sd               =   7.1946383428209E-01
(PID.TID 0000.0001) %MON seaice_heff_del2             =   1.3306978586244E-03
(PID.TID 0000.0001) %MON seaice_hsnow_max             =   3.2856479737081E+00
(PID.TID 0000.0001) %MON seaice_hsnow_min             =   0.0000000000000E+00
(PID.TID 0000.0001) %MON seaice_hsnow_mean            =   1.2599475889718E-02
(PID.TID 0000.0001) %MON seaice_hsnow_sd              =   6.7599793618963E-02
(PID.TID 0000.0001) %MON seaice_hsnow_del2            =   3.5744389317242E-04
(PID.TID 0000.0001) // =======================================================
(PID.TID 0000.0001) // End MONITOR SEAICE statistics
(PID.TID 0000.0001) // =======================================================
(PID.TID 0000.0001) // =======================================================
(PID.TID 0000.0001) // Begin MONITOR dynamic field statistics
(PID.TID 0000.0001) // =======================================================
(PID.TID 0000.0001) %MON time_tsnumber                =                174884
(PID.TID 0000.0001) %MON time_secondsf                =   7.8697800000000E+07
(PID.TID 0000.0001) %MON dynstat_eta_max              =   2.7436044165167E+00
(PID.TID 0000.0001) %MON dynstat_eta_min              =  -1.0190242753713E+01
(PID.TID 0000.0001) %MON dynstat_eta_mean             =   9.3111520006268E-02
(PID.TID 0000.0001) %MON dynstat_eta_sd               =   9.5660116417607E-01
(PID.TID 0000.0001) %MON dynstat_eta_del2             =   2.0110213733214E-03
(PID.TID 0000.0001) %MON dynstat_uvel_max             =   1.5295668572877E+00
(PID.TID 0000.0001) %MON dynstat_uvel_min             =  -2.2613014516565E+00
(PID.TID 0000.0001) %MON dynstat_uvel_mean            =   7.6255190393941E-03
(PID.TID 0000.0001) %MON dynstat_uvel_sd              =   4.2869519938112E-02
(PID.TID 0000.0001) %MON dynstat_uvel_del2            =   4.2348451234453E-05
(PID.TID 0000.0001) %MON dynstat_vvel_max             =   1.9023304757326E+00
(PID.TID 0000.0001) %MON dynstat_vvel_min             =  -1.8666483701255E+00
(PID.TID 0000.0001) %MON dynstat_vvel_mean            =   3.5367504173885E-03
(PID.TID 0000.0001) %MON dynstat_vvel_sd              =   4.3485485417169E-02
(PID.TID 0000.0001) %MON dynstat_vvel_del2            =   4.1071751190904E-05
(PID.TID 0000.0001) %MON dynstat_wvel_max             =   9.4275351642313E-03
(PID.TID 0000.0001) %MON dynstat_wvel_min             =  -9.1944307851471E-03
(PID.TID 0000.0001) %MON dynstat_wvel_mean            =   3.6428739280318E-07
(PID.TID 0000.0001) %MON dynstat_wvel_sd              =   1.7417119614506E-04
(PID.TID 0000.0001) %MON dynstat_wvel_del2            =   3.6787984820369E-07
(PID.TID 0000.0001) %MON dynstat_theta_max            =   3.2448533786698E+01
(PID.TID 0000.0001) %MON dynstat_theta_min            =  -2.0432308274578E+00
(PID.TID 0000.0001) %MON dynstat_theta_mean           =   3.5918185624673E+00
(PID.TID 0000.0001) %MON dynstat_theta_sd             =   4.4414537094006E+00
(PID.TID 0000.0001) %MON dynstat_theta_del2           =   1.2835159195378E-04
(PID.TID 0000.0001) %MON dynstat_salt_max             =   4.0655989553076E+01
(PID.TID 0000.0001) %MON dynstat_salt_min             =   1.5936670321353E+01
(PID.TID 0000.0001) %MON dynstat_salt_mean            =   3.4724794618706E+01
(PID.TID 0000.0001) %MON dynstat_salt_sd              =   3.7974598212025E-01
(PID.TID 0000.0001) %MON dynstat_salt_del2            =   6.3031070716490E-05
(PID.TID 0000.0001) %MON dynstat_sst_max              =   3.2448533786698E+01
(PID.TID 0000.0001) %MON dynstat_sst_min              =  -2.0432308274578E+00
(PID.TID 0000.0001) %MON dynstat_sst_mean             =   1.8170713589753E+01
(PID.TID 0000.0001) %MON dynstat_sst_sd               =   1.0203536203952E+01
(PID.TID 0000.0001) %MON dynstat_sst_del2             =   1.1005934169593E-03
(PID.TID 0000.0001) %MON dynstat_sss_max              =   3.9462831353587E+01
(PID.TID 0000.0001) %MON dynstat_sss_min              =   1.5936670321353E+01
(PID.TID 0000.0001) %MON dynstat_sss_mean             =   3.4641390592767E+01
(PID.TID 0000.0001) %MON dynstat_sss_sd               =   1.3032314966466E+00
(PID.TID 0000.0001) %MON dynstat_sss_del2             =   1.4654484999740E-03
(PID.TID 0000.0001) %MON forcing_qnet_max             =   8.1376536980727E+02
(PID.TID 0000.0001) %MON forcing_qnet_min             =  -1.1531186523438E+03
(PID.TID 0000.0001) %MON forcing_qnet_mean            =   1.9801319102041E+01
(PID.TID 0000.0001) %MON forcing_qnet_sd              =   1.9781296916605E+02
(PID.TID 0000.0001) %MON forcing_qnet_del2            =   3.5823283920825E-01
(PID.TID 0000.0001) %MON forcing_qsw_max              =   0.0000000000000E+00
(PID.TID 0000.0001) %MON forcing_qsw_min              =  -1.1023937069608E+02
(PID.TID 0000.0001) %MON forcing_qsw_mean             =  -1.6484738379010E+01
(PID.TID 0000.0001) %MON forcing_qsw_sd               =   2.9125126274126E+01
(PID.TID 0000.0001) %MON forcing_qsw_del2             =   2.2061767356278E-02
(PID.TID 0000.0001) %MON forcing_empmr_max            =   2.1389702335000E-02
(PID.TID 0000.0001) %MON forcing_empmr_min            =  -3.8548983633518E-02
(PID.TID 0000.0001) %MON forcing_empmr_mean           =  -2.6877879705342E-06
(PID.TID 0000.0001) %MON forcing_empmr_sd             =   2.9979926242172E-04
(PID.TID 0000.0001) %MON forcing_empmr_del2           =   3.5201967739259E-06
(PID.TID 0000.0001) %MON forcing_fu_max               =   8.7534943223000E-01
(PID.TID 0000.0001) %MON forcing_fu_min               =  -1.3829841250138E+00
(PID.TID 0000.0001) %MON forcing_fu_mean              =   1.0685047001781E-02
(PID.TID 0000.0001) %MON forcing_fu_sd                =   1.2712363909269E-01
(PID.TID 0000.0001) %MON forcing_fu_del2              =   1.7194650703502E-04
(PID.TID 0000.0001) %MON forcing_fv_max               =   1.2385577022853E+00
(PID.TID 0000.0001) %MON forcing_fv_min               =  -1.6817406957788E+00
(PID.TID 0000.0001) %MON forcing_fv_mean              =   3.1987310978999E-04
(PID.TID 0000.0001) %MON forcing_fv_sd                =   1.1946026548406E-01
(PID.TID 0000.0001) %MON forcing_fv_del2              =   1.5828863632860E-04
(PID.TID 0000.0001) %MON trAdv_CFL_u_max              =   2.3324553221889E-02
(PID.TID 0000.0001) %MON trAdv_CFL_v_max              =   1.9365012610774E-02
(PID.TID 0000.0001) %MON trAdv_CFL_w_max              =   1.0062986635537E-01
(PID.TID 0000.0001) %MON advcfl_uvel_max              =   2.3636551612464E-02
(PID.TID 0000.0001) %MON advcfl_vvel_max              =   1.9302611158508E-02
(PID.TID 0000.0001) %MON advcfl_wvel_max              =   9.5274767677335E-02
(PID.TID 0000.0001) %MON advcfl_W_hf_max              =   1.0062986635537E-01
(PID.TID 0000.0001) %MON pe_b_mean                    =   2.6907867271791E-03
(PID.TID 0000.0001) %MON ke_max                       =   2.0629034988151E+00
(PID.TID 0000.0001) %MON ke_mean                      =   1.8320506905125E-03
(PID.TID 0000.0001) %MON ke_vol                       =   1.3350064351420E+18
(PID.TID 0000.0001) %MON vort_r_min                   =  -7.8524490383624E-05
(PID.TID 0000.0001) %MON vort_r_max                   =   8.4789115131518E-05
(PID.TID 0000.0001) %MON vort_a_mean                  =  -1.9725078137588E-05
(PID.TID 0000.0001) %MON vort_a_sd                    =   7.4542064648671E-05
(PID.TID 0000.0001) %MON vort_p_mean                  =  -2.1669083221656E-05
(PID.TID 0000.0001) %MON vort_p_sd                    =   9.3619011750328E-05
(PID.TID 0000.0001) %MON surfExpan_theta_mean         =   1.3677590355030E-05
(PID.TID 0000.0001) %MON surfExpan_salt_mean          =   3.1379780131984E-06
(PID.TID 0000.0001) // =======================================================
(PID.TID 0000.0001) // End MONITOR dynamic field statistics
(PID.TID 0000.0001) // =======================================================
(PID.TID 0000.0001) // =======================================================
(PID.TID 0000.0001) // Begin MONITOR SEAICE statistics
(PID.TID 0000.0001) // =======================================================
(PID.TID 0000.0001) %MON seaice_tsnumber              =                174884
(PID.TID 0000.0001) %MON seaice_time_sec              =   7.8697800000000E+07
(PID.TID 0000.0001) %MON seaice_uice_max              =   1.2743301950569E+00
(PID.TID 0000.0001) %MON seaice_uice_min              =  -1.4219553368227E+00
(PID.TID 0000.0001) %MON seaice_uice_mean             =   1.1671624167843E-02
(PID.TID 0000.0001) %MON seaice_uice_sd               =   1.4920344899580E-01
(PID.TID 0000.0001) %MON seaice_uice_del2             =   3.7309181955508E-04
(PID.TID 0000.0001) %MON seaice_vice_max              =   1.0898195240473E+00
(PID.TID 0000.0001) %MON seaice_vice_min              =  -1.4664247498884E+00
(PID.TID 0000.0001) %MON seaice_vice_mean             =  -1.3225716603239E-02
(PID.TID 0000.0001) %MON seaice_vice_sd               =   1.6081179979899E-01
(PID.TID 0000.0001) %MON seaice_vice_del2             =   3.5586324859839E-04
(PID.TID 0000.0001) %MON seaice_area_max              =   1.0019963844970E+00
(PID.TID 0000.0001) %MON seaice_area_min              =   0.0000000000000E+00
(PID.TID 0000.0001) %MON seaice_area_mean             =   5.7609052416053E-02
(PID.TID 0000.0001) %MON seaice_area_sd               =   2.2078678794302E-01
(PID.TID 0000.0001) %MON seaice_area_del2             =   2.8498585521568E-04
(PID.TID 0000.0001) %MON seaice_heff_max              =   9.9473874772249E+00
(PID.TID 0000.0001) %MON seaice_heff_min              =   0.0000000000000E+00
(PID.TID 0000.0001) %MON seaice_heff_mean             =   1.4934303786040E-01
(PID.TID 0000.0001) %MON seaice_heff_sd               =   7.1945285654171E-01
(PID.TID 0000.0001) %MON seaice_heff_del2             =   1.3300988956203E-03
(PID.TID 0000.0001) %MON seaice_hsnow_max             =   3.2856452828690E+00
(PID.TID 0000.0001) %MON seaice_hsnow_min             =   0.0000000000000E+00
(PID.TID 0000.0001) %MON seaice_hsnow_mean            =   1.2598741622086E-02
(PID.TID 0000.0001) %MON seaice_hsnow_sd              =   6.7589153389326E-02
(PID.TID 0000.0001) %MON seaice_hsnow_del2            =   3.5713904837069E-04
(PID.TID 0000.0001) // =======================================================
(PID.TID 0000.0001) // End MONITOR SEAICE statistics
(PID.TID 0000.0001) // =======================================================
(PID.TID 0000.0001) // =======================================================
(PID.TID 0000.0001) // Begin MONITOR dynamic field statistics
(PID.TID 0000.0001) // =======================================================
(PID.TID 0000.0001) %MON time_tsnumber                =                174885
(PID.TID 0000.0001) %MON time_secondsf                =   7.8698250000000E+07
(PID.TID 0000.0001) %MON dynstat_eta_max              =   2.7745364269704E+00
(PID.TID 0000.0001) %MON dynstat_eta_min              =  -1.0171398628195E+01
(PID.TID 0000.0001) %MON dynstat_eta_mean             =   9.3151028569242E-02
(PID.TID 0000.0001) %MON dynstat_eta_sd               =   9.5826363378977E-01
(PID.TID 0000.0001) %MON dynstat_eta_del2             =   2.0110163924094E-03
(PID.TID 0000.0001) %MON dynstat_uvel_max             =   1.5165788189633E+00
(PID.TID 0000.0001) %MON dynstat_uvel_min             =  -2.2554892486498E+00
(PID.TID 0000.0001) %MON dynstat_uvel_mean            =   7.5985280678188E-03
(PID.TID 0000.0001) %MON dynstat_uvel_sd              =   4.3088543069870E-02
(PID.TID 0000.0001) %MON dynstat_uvel_del2            =   4.2453842479878E-05
(PID.TID 0000.0001) %MON dynstat_vvel_max             =   1.9123782468170E+00
(PID.TID 0000.0001) %MON dynstat_vvel_min             =  -1.8592750729759E+00
(PID.TID 0000.0001) %MON dynstat_vvel_mean            =   3.5124656982400E-03
(PID.TID 0000.0001) %MON dynstat_vvel_sd              =   4.3717134630297E-02
(PID.TID 0000.0001) %MON dynstat_vvel_del2            =   4.1183334225435E-05
(PID.TID 0000.0001) %MON dynstat_wvel_max             =   9.4543389663336E-03
(PID.TID 0000.0001) %MON dynstat_wvel_min             =  -9.2505875939375E-03
(PID.TID 0000.0001) %MON dynstat_wvel_mean            =   3.6053643668448E-07
(PID.TID 0000.0001) %MON dynstat_wvel_sd              =   1.7493764451903E-04
(PID.TID 0000.0001) %MON dynstat_wvel_del2            =   3.6915332090982E-07
(PID.TID 0000.0001) %MON dynstat_theta_max            =   3.2448695206019E+01
(PID.TID 0000.0001) %MON dynstat_theta_min            =  -2.0430083300706E+00
(PID.TID 0000.0001) %MON dynstat_theta_mean           =   3.5918163238945E+00
(PID.TID 0000.0001) %MON dynstat_theta_sd             =   4.4414466929499E+00
(PID.TID 0000.0001) %MON dynstat_theta_del2           =   1.2840406250994E-04
(PID.TID 0000.0001) %MON dynstat_salt_max             =   4.0655989542787E+01
(PID.TID 0000.0001) %MON dynstat_salt_min             =   1.5935749143363E+01
(PID.TID 0000.0001) %MON dynstat_salt_mean            =   3.4724794557589E+01
(PID.TID 0000.0001) %MON dynstat_salt_sd              =   3.7974658383541E-01
(PID.TID 0000.0001) %MON dynstat_salt_del2            =   6.2999420698898E-05
(PID.TID 0000.0001) %MON dynstat_sst_max              =   3.2448695206019E+01
(PID.TID 0000.0001) %MON dynstat_sst_min              =  -2.0430083300706E+00
(PID.TID 0000.0001) %MON dynstat_sst_mean             =   1.8170665174313E+01
(PID.TID 0000.0001) %MON dynstat_sst_sd               =   1.0203641763575E+01
(PID.TID 0000.0001) %MON dynstat_sst_del2             =   1.1003993878149E-03
(PID.TID 0000.0001) %MON dynstat_sss_max              =   3.9462851732505E+01
(PID.TID 0000.0001) %MON dynstat_sss_min              =   1.5935749143363E+01
(PID.TID 0000.0001) %MON dynstat_sss_mean             =   3.4641370176375E+01
(PID.TID 0000.0001) %MON dynstat_sss_sd               =   1.3032691875001E+00
(PID.TID 0000.0001) %MON dynstat_sss_del2             =   1.4653438142580E-03
(PID.TID 0000.0001) %MON forcing_qnet_max             =   1.1814454345703E+03
(PID.TID 0000.0001) %MON forcing_qnet_min             =  -4.0517712402344E+03
(PID.TID 0000.0001) %MON forcing_qnet_mean            =   1.7582397603160E+01
(PID.TID 0000.0001) %MON forcing_qnet_sd              =   2.0059197744340E+02
(PID.TID 0000.0001) %MON forcing_qnet_del2            =   4.8807861485735E-01
(PID.TID 0000.0001) %MON forcing_qsw_max              =   0.0000000000000E+00
(PID.TID 0000.0001) %MON forcing_qsw_min              =  -1.1027432340076E+02
(PID.TID 0000.0001) %MON forcing_qsw_mean             =  -1.6778768188091E+01
(PID.TID 0000.0001) %MON forcing_qsw_sd               =   2.9688020392510E+01
(PID.TID 0000.0001) %MON forcing_qsw_del2             =   2.1958400540505E-02
(PID.TID 0000.0001) %MON forcing_empmr_max            =   2.0454570651054E-02
(PID.TID 0000.0001) %MON forcing_empmr_min            =  -3.7447057664394E-02
(PID.TID 0000.0001) %MON forcing_empmr_mean           =  -2.8549151157023E-06
(PID.TID 0000.0001) %MON forcing_empmr_sd             =   2.9563018805034E-04
(PID.TID 0000.0001) %MON forcing_empmr_del2           =   3.3603499681305E-06
(PID.TID 0000.0001) %MON forcing_fu_max               =   8.8026419281959E-01
(PID.TID 0000.0001) %MON forcing_fu_min               =  -1.3828469253430E+00
(PID.TID 0000.0001) %MON forcing_fu_mean              =   1.0664156908478E-02
(PID.TID 0000.0001) %MON forcing_fu_sd                =   1.2713056914569E-01
(PID.TID 0000.0001) %MON forcing_fu_del2              =   1.7200033483807E-04
(PID.TID 0000.0001) %MON forcing_fv_max               =   1.2393488717331E+00
(PID.TID 0000.0001) %MON forcing_fv_min               =  -1.6607733826963E+00
(PID.TID 0000.0001) %MON forcing_fv_mean              =   3.5254109888196E-04
(PID.TID 0000.0001) %MON forcing_fv_sd                =   1.1963726740365E-01
(PID.TID 0000.0001) %MON forcing_fv_del2              =   1.5840418066990E-04
(PID.TID 0000.0001) %MON trAdv_CFL_u_max              =   2.3264602330217E-02
(PID.TID 0000.0001) %MON trAdv_CFL_v_max              =   1.9467295161699E-02
(PID.TID 0000.0001) %MON trAdv_CFL_w_max              =   1.0104189935399E-01
(PID.TID 0000.0001) %MON advcfl_uvel_max              =   2.3575798794103E-02
(PID.TID 0000.0001) %MON advcfl_vvel_max              =   1.9404564116065E-02
(PID.TID 0000.0001) %MON advcfl_wvel_max              =   9.5665793022521E-02
(PID.TID 0000.0001) %MON advcfl_W_hf_max              =   1.0104189935399E-01
(PID.TID 0000.0001) %MON pe_b_mean                    =   2.6948137167858E-03
(PID.TID 0000.0001) %MON ke_max                       =   2.0712541359668E+00
(PID.TID 0000.0001) %MON ke_mean                      =   1.8505885702401E-03
(PID.TID 0000.0001) %MON ke_vol                       =   1.3350064351420E+18
(PID.TID 0000.0001) %MON vort_r_min                   =  -7.8236072049379E-05
(PID.TID 0000.0001) %MON vort_r_max                   =   8.4540225966007E-05
(PID.TID 0000.0001) %MON vort_a_mean                  =  -1.9725078026684E-05
(PID.TID 0000.0001) %MON vort_a_sd                    =   7.4542091401273E-05
(PID.TID 0000.0001) %MON vort_p_mean                  =  -2.1669083099821E-05
(PID.TID 0000.0001) %MON vort_p_sd                    =   9.3619062042572E-05
(PID.TID 0000.0001) %MON surfExpan_theta_mean         =   1.4156321105601E-05
(PID.TID 0000.0001) %MON surfExpan_salt_mean          =   2.9218906335473E-06
(PID.TID 0000.0001) // =======================================================
(PID.TID 0000.0001) // End MONITOR dynamic field statistics
(PID.TID 0000.0001) // =======================================================
(PID.TID 0000.0001) // =======================================================
(PID.TID 0000.0001) // Begin MONITOR SEAICE statistics
(PID.TID 0000.0001) // =======================================================
(PID.TID 0000.0001) %MON seaice_tsnumber              =                174885
(PID.TID 0000.0001) %MON seaice_time_sec              =   7.8698250000000E+07
(PID.TID 0000.0001) %MON seaice_uice_max              =   1.2701660589789E+00
(PID.TID 0000.0001) %MON seaice_uice_min              =  -1.4348819365001E+00
(PID.TID 0000.0001) %MON seaice_uice_mean             =   1.1642161110486E-02
(PID.TID 0000.0001) %MON seaice_uice_sd               =   1.4924371645286E-01
(PID.TID 0000.0001) %MON seaice_uice_del2             =   3.7362834024065E-04
(PID.TID 0000.0001) %MON seaice_vice_max              =   1.0835706680927E+00
(PID.TID 0000.0001) %MON seaice_vice_min              =  -1.4665691438833E+00
(PID.TID 0000.0001) %MON seaice_vice_mean             =  -1.3193419900937E-02
(PID.TID 0000.0001) %MON seaice_vice_sd               =   1.6081508384202E-01
(PID.TID 0000.0001) %MON seaice_vice_del2             =   3.5661782260239E-04
(PID.TID 0000.0001) %MON seaice_area_max              =   1.0019316397973E+00
(PID.TID 0000.0001) %MON seaice_area_min              =   0.0000000000000E+00
(PID.TID 0000.0001) %MON seaice_area_mean             =   5.7611586002588E-02
(PID.TID 0000.0001) %MON seaice_area_sd               =   2.2078484329517E-01
(PID.TID 0000.0001) %MON seaice_area_del2             =   2.8488825997939E-04
(PID.TID 0000.0001) %MON seaice_heff_max              =   9.9473789096296E+00
(PID.TID 0000.0001) %MON seaice_heff_min              =   0.0000000000000E+00
(PID.TID 0000.0001) %MON seaice_heff_mean             =   1.4933946328937E-01
(PID.TID 0000.0001) %MON seaice_heff_sd               =   7.1944189977974E-01
(PID.TID 0000.0001) %MON seaice_heff_del2             =   1.3295016797602E-03
(PID.TID 0000.0001) %MON seaice_hsnow_max             =   3.2856421165589E+00
(PID.TID 0000.0001) %MON seaice_hsnow_min             =   0.0000000000000E+00
(PID.TID 0000.0001) %MON seaice_hsnow_mean            =   1.2598013983858E-02
(PID.TID 0000.0001) %MON seaice_hsnow_sd              =   6.7578509731183E-02
(PID.TID 0000.0001) %MON seaice_hsnow_del2            =   3.5683402941771E-04
(PID.TID 0000.0001) // =======================================================
(PID.TID 0000.0001) // End MONITOR SEAICE statistics
(PID.TID 0000.0001) // =======================================================
(PID.TID 0000.0001) // =======================================================
(PID.TID 0000.0001) // Begin MONITOR dynamic field statistics
(PID.TID 0000.0001) // =======================================================
(PID.TID 0000.0001) %MON time_tsnumber                =                174886
(PID.TID 0000.0001) %MON time_secondsf                =   7.8698700000000E+07
(PID.TID 0000.0001) %MON dynstat_eta_max              =   2.7949056275159E+00
(PID.TID 0000.0001) %MON dynstat_eta_min              =  -1.0152356731014E+01
(PID.TID 0000.0001) %MON dynstat_eta_mean             =   9.3185024498075E-02
(PID.TID 0000.0001) %MON dynstat_eta_sd               =   9.5995845620073E-01
(PID.TID 0000.0001) %MON dynstat_eta_del2             =   2.0110324318494E-03
(PID.TID 0000.0001) %MON dynstat_uvel_max             =   1.5036378781451E+00
(PID.TID 0000.0001) %MON dynstat_uvel_min             =  -2.2497162022249E+00
(PID.TID 0000.0001) %MON dynstat_uvel_mean            =   7.5688896620823E-03
(PID.TID 0000.0001) %MON dynstat_uvel_sd              =   4.3308811751205E-02
(PID.TID 0000.0001) %MON dynstat_uvel_del2            =   4.2559863441466E-05
(PID.TID 0000.0001) %MON dynstat_vvel_max             =   1.9220738330400E+00
(PID.TID 0000.0001) %MON dynstat_vvel_min             =  -1.8518536805382E+00
(PID.TID 0000.0001) %MON dynstat_vvel_mean            =   3.4867748310696E-03
(PID.TID 0000.0001) %MON dynstat_vvel_sd              =   4.3949903010089E-02
(PID.TID 0000.0001) %MON dynstat_vvel_del2            =   4.1295321836070E-05
(PID.TID 0000.0001) %MON dynstat_wvel_max             =   9.4811555139000E-03
(PID.TID 0000.0001) %MON dynstat_wvel_min             =  -9.3054168325163E-03
(PID.TID 0000.0001) %MON dynstat_wvel_mean            =   3.5580002647405E-07
(PID.TID 0000.0001) %MON dynstat_wvel_sd              =   1.7570415522799E-04
(PID.TID 0000.0001) %MON dynstat_wvel_del2            =   3.7042448947131E-07
(PID.TID 0000.0001) %MON dynstat_theta_max            =   3.2448762842670E+01
(PID.TID 0000.0001) %MON dynstat_theta_min            =  -2.0427891879275E+00
(PID.TID 0000.0001) %MON dynstat_theta_mean           =   3.5918140462349E+00
(PID.TID 0000.0001) %MON dynstat_theta_sd             =   4.4414397085680E+00
(PID.TID 0000.0001) %MON dynstat_theta_del2           =   1.2845719139479E-04
(PID.TID 0000.0001) %MON dynstat_salt_max             =   4.0655989531849E+01
(PID.TID 0000.0001) %MON dynstat_salt_min             =   1.5934826263522E+01
(PID.TID 0000.0001) %MON dynstat_salt_mean            =   3.4724794478223E+01
(PID.TID 0000.0001) %MON dynstat_salt_sd              =   3.7974721122890E-01
(PID.TID 0000.0001) %MON dynstat_salt_del2            =   6.2968423338788E-05
(PID.TID 0000.0001) %MON dynstat_sst_max              =   3.2448762842670E+01
(PID.TID 0000.0001) %MON dynstat_sst_min              =  -2.0427891879275E+00
(PID.TID 0000.0001) %MON dynstat_sst_mean             =   1.8170628083208E+01
(PID.TID 0000.0001) %MON dynstat_sst_sd               =   1.0203755585568E+01
(PID.TID 0000.0001) %MON dynstat_sst_del2             =   1.1002340179127E-03
(PID.TID 0000.0001) %MON dynstat_sss_max              =   3.9462872803745E+01
(PID.TID 0000.0001) %MON dynstat_sss_min              =   1.5934826263522E+01
(PID.TID 0000.0001) %MON dynstat_sss_mean             =   3.4641349807226E+01
(PID.TID 0000.0001) %MON dynstat_sss_sd               =   1.3033066284047E+00
(PID.TID 0000.0001) %MON dynstat_sss_del2             =   1.4652635596678E-03
(PID.TID 0000.0001) %MON forcing_qnet_max             =   8.0938182126499E+02
(PID.TID 0000.0001) %MON forcing_qnet_min             =  -1.2690614013672E+03
(PID.TID 0000.0001) %MON forcing_qnet_mean            =   1.7061052971706E+01
(PID.TID 0000.0001) %MON forcing_qnet_sd              =   1.9984930939213E+02
(PID.TID 0000.0001) %MON forcing_qnet_del2            =   3.5185095709311E-01
(PID.TID 0000.0001) %MON forcing_qsw_max              =   0.0000000000000E+00
(PID.TID 0000.0001) %MON forcing_qsw_min              =  -1.1012574312162E+02
(PID.TID 0000.0001) %MON forcing_qsw_mean             =  -1.6871431899684E+01
(PID.TID 0000.0001) %MON forcing_qsw_sd               =   2.9823290223960E+01
(PID.TID 0000.0001) %MON forcing_qsw_del2             =   2.2030486792540E-02
(PID.TID 0000.0001) %MON forcing_empmr_max            =   2.0827915519476E-02
(PID.TID 0000.0001) %MON forcing_empmr_min            =  -3.7465918809175E-02
(PID.TID 0000.0001) %MON forcing_empmr_mean           =  -2.7565659932737E-06
(PID.TID 0000.0001) %MON forcing_empmr_sd             =   2.9476880060172E-04
(PID.TID 0000.0001) %MON forcing_empmr_del2           =   3.3768484871794E-06
(PID.TID 0000.0001) %MON forcing_fu_max               =   8.8039982318878E-01
(PID.TID 0000.0001) %MON forcing_fu_min               =  -1.3809062242676E+00
(PID.TID 0000.0001) %MON forcing_fu_mean              =   1.0641758120025E-02
(PID.TID 0000.0001) %MON forcing_fu_sd                =   1.2709923006514E-01
(PID.TID 0000.0001) %MON forcing_fu_del2              =   1.7198955537707E-04
(PID.TID 0000.0001) %MON forcing_fv_max               =   1.2406901832314E+00
(PID.TID 0000.0001) %MON forcing_fv_min               =  -1.6378201293156E+00
(PID.TID 0000.0001) %MON forcing_fv_mean              =   3.8959169558755E-04
(PID.TID 0000.0001) %MON forcing_fv_sd                =   1.1980208630351E-01
(PID.TID 0000.0001) %MON forcing_fv_del2              =   1.5836635113619E-04
(PID.TID 0000.0001) %MON trAdv_CFL_u_max              =   2.3205055325331E-02
(PID.TID 0000.0001) %MON trAdv_CFL_v_max              =   1.9565992602481E-02
(PID.TID 0000.0001) %MON trAdv_CFL_w_max              =   1.0144167475455E-01
(PID.TID 0000.0001) %MON advcfl_uvel_max              =   2.3515455265078E-02
(PID.TID 0000.0001) %MON advcfl_vvel_max              =   1.9502943516071E-02
(PID.TID 0000.0001) %MON advcfl_wvel_max              =   9.6044553868731E-02
(PID.TID 0000.0001) %MON advcfl_W_hf_max              =   1.0144167475455E-01
(PID.TID 0000.0001) %MON pe_b_mean                    =   2.6987942509001E-03
(PID.TID 0000.0001) %MON ke_max                       =   2.0793592305813E+00
(PID.TID 0000.0001) %MON ke_mean                      =   1.8693011341733E-03
(PID.TID 0000.0001) %MON ke_vol                       =   1.3350064351420E+18
(PID.TID 0000.0001) %MON vort_r_min                   =  -7.7947113889782E-05
(PID.TID 0000.0001) %MON vort_r_max                   =   8.4292309547257E-05
(PID.TID 0000.0001) %MON vort_a_mean                  =  -1.9725077922022E-05
(PID.TID 0000.0001) %MON vort_a_sd                    =   7.4542118289457E-05
(PID.TID 0000.0001) %MON vort_p_mean                  =  -2.1669082984845E-05
(PID.TID 0000.0001) %MON vort_p_sd                    =   9.3619111479094E-05
(PID.TID 0000.0001) %MON surfExpan_theta_mean         =   1.4615943950454E-05
(PID.TID 0000.0001) %MON surfExpan_salt_mean          =   2.6450829914513E-06
(PID.TID 0000.0001) // =======================================================
(PID.TID 0000.0001) // End MONITOR dynamic field statistics
(PID.TID 0000.0001) // =======================================================
(PID.TID 0000.0001) // =======================================================
(PID.TID 0000.0001) // Begin MONITOR SEAICE statistics
(PID.TID 0000.0001) // =======================================================
(PID.TID 0000.0001) %MON seaice_tsnumber              =                174886
(PID.TID 0000.0001) %MON seaice_time_sec              =   7.8698700000000E+07
(PID.TID 0000.0001) %MON seaice_uice_max              =   1.2655899536977E+00
(PID.TID 0000.0001) %MON seaice_uice_min              =  -1.4472276113052E+00
(PID.TID 0000.0001) %MON seaice_uice_mean             =   1.1608322795520E-02
(PID.TID 0000.0001) %MON seaice_uice_sd               =   1.4928125200043E-01
(PID.TID 0000.0001) %MON seaice_uice_del2             =   3.7408865388613E-04
(PID.TID 0000.0001) %MON seaice_vice_max              =   1.0763776878900E+00
(PID.TID 0000.0001) %MON seaice_vice_min              =  -1.4666946715552E+00
(PID.TID 0000.0001) %MON seaice_vice_mean             =  -1.3175372563207E-02
(PID.TID 0000.0001) %MON seaice_vice_sd               =   1.6083118666439E-01
(PID.TID 0000.0001) %MON seaice_vice_del2             =   3.5735897918023E-04
(PID.TID 0000.0001) %MON seaice_area_max              =   1.0018661908132E+00
(PID.TID 0000.0001) %MON seaice_area_min              =   0.0000000000000E+00
(PID.TID 0000.0001) %MON seaice_area_mean             =   5.7614137763220E-02
(PID.TID 0000.0001) %MON seaice_area_sd               =   2.2078295758709E-01
(PID.TID 0000.0001) %MON seaice_area_del2             =   2.8479106546838E-04
(PID.TID 0000.0001) %MON seaice_heff_max              =   9.9473693879666E+00
(PID.TID 0000.0001) %MON seaice_heff_min              =   0.0000000000000E+00
(PID.TID 0000.0001) %MON seaice_heff_mean             =   1.4933589326224E-01
(PID.TID 0000.0001) %MON seaice_heff_sd               =   7.1943092617892E-01
(PID.TID 0000.0001) %MON seaice_heff_del2             =   1.3289063432332E-03
(PID.TID 0000.0001) %MON seaice_hsnow_max             =   3.2856391879004E+00
(PID.TID 0000.0001) %MON seaice_hsnow_min             =   0.0000000000000E+00
(PID.TID 0000.0001) %MON seaice_hsnow_mean            =   1.2597289103782E-02
(PID.TID 0000.0001) %MON seaice_hsnow_sd              =   6.7567852984011E-02
(PID.TID 0000.0001) %MON seaice_hsnow_del2            =   3.5652910282473E-04
(PID.TID 0000.0001) // =======================================================
(PID.TID 0000.0001) // End MONITOR SEAICE statistics
(PID.TID 0000.0001) // =======================================================
(PID.TID 0000.0001) // =======================================================
(PID.TID 0000.0001) // Begin MONITOR dynamic field statistics
(PID.TID 0000.0001) // =======================================================
(PID.TID 0000.0001) %MON time_tsnumber                =                174887
(PID.TID 0000.0001) %MON time_secondsf                =   7.8699150000000E+07
(PID.TID 0000.0001) %MON dynstat_eta_max              =   2.8046102300218E+00
(PID.TID 0000.0001) %MON dynstat_eta_min              =  -1.0133124754952E+01
(PID.TID 0000.0001) %MON dynstat_eta_mean             =   9.3213068289424E-02
(PID.TID 0000.0001) %MON dynstat_eta_sd               =   9.6168544821739E-01
(PID.TID 0000.0001) %MON dynstat_eta_del2             =   2.0110657325303E-03
(PID.TID 0000.0001) %MON dynstat_uvel_max             =   1.4907468900006E+00
(PID.TID 0000.0001) %MON dynstat_uvel_min             =  -2.2439940164226E+00
(PID.TID 0000.0001) %MON dynstat_uvel_mean            =   7.5368491423313E-03
(PID.TID 0000.0001) %MON dynstat_uvel_sd              =   4.3530252704991E-02
(PID.TID 0000.0001) %MON dynstat_uvel_del2            =   4.2666571630857E-05
(PID.TID 0000.0001) %MON dynstat_vvel_max             =   1.9314056509929E+00
(PID.TID 0000.0001) %MON dynstat_vvel_min             =  -1.8443850643082E+00
(PID.TID 0000.0001) %MON dynstat_vvel_mean            =   3.4596615704281E-03
(PID.TID 0000.0001) %MON dynstat_vvel_sd              =   4.4183963515139E-02
(PID.TID 0000.0001) %MON dynstat_vvel_del2            =   4.1407641569599E-05
(PID.TID 0000.0001) %MON dynstat_wvel_max             =   9.5079905531433E-03
(PID.TID 0000.0001) %MON dynstat_wvel_min             =  -9.3588967715635E-03
(PID.TID 0000.0001) %MON dynstat_wvel_mean            =   3.5067202520953E-07
(PID.TID 0000.0001) %MON dynstat_wvel_sd              =   1.7647064429441E-04
(PID.TID 0000.0001) %MON dynstat_wvel_del2            =   3.7169257988712E-07
(PID.TID 0000.0001) %MON dynstat_theta_max            =   3.2448737030354E+01
(PID.TID 0000.0001) %MON dynstat_theta_min            =  -2.0425736216769E+00
(PID.TID 0000.0001) %MON dynstat_theta_mean           =   3.5918117277213E+00
(PID.TID 0000.0001) %MON dynstat_theta_sd             =   4.4414327542392E+00
(PID.TID 0000.0001) %MON dynstat_theta_del2           =   1.2851034001618E-04
(PID.TID 0000.0001) %MON dynstat_salt_max             =   4.0655989520326E+01
(PID.TID 0000.0001) %MON dynstat_salt_min             =   1.5933904052773E+01
(PID.TID 0000.0001) %MON dynstat_salt_mean            =   3.4724794381063E+01
(PID.TID 0000.0001) %MON dynstat_salt_sd              =   3.7974786216187E-01
(PID.TID 0000.0001) %MON dynstat_salt_del2            =   6.2938045858799E-05
(PID.TID 0000.0001) %MON dynstat_sst_max              =   3.2448737030354E+01
(PID.TID 0000.0001) %MON dynstat_sst_min              =  -2.0425736216769E+00
(PID.TID 0000.0001) %MON dynstat_sst_mean             =   1.8170596461103E+01
(PID.TID 0000.0001) %MON dynstat_sst_sd               =   1.0203871883617E+01
(PID.TID 0000.0001) %MON dynstat_sst_del2             =   1.1000528899563E-03
(PID.TID 0000.0001) %MON dynstat_sss_max              =   3.9462894599650E+01
(PID.TID 0000.0001) %MON dynstat_sss_min              =   1.5933904052773E+01
(PID.TID 0000.0001) %MON dynstat_sss_mean             =   3.4641328537596E+01
(PID.TID 0000.0001) %MON dynstat_sss_sd               =   1.3033454728621E+00
(PID.TID 0000.0001) %MON dynstat_sss_del2             =   1.4652298856214E-03
(PID.TID 0000.0001) %MON forcing_qnet_max             =   8.1469594458755E+02
(PID.TID 0000.0001) %MON forcing_qnet_min             =  -1.1927307128906E+03
(PID.TID 0000.0001) %MON forcing_qnet_mean            =   1.6577122439427E+01
(PID.TID 0000.0001) %MON forcing_qnet_sd              =   2.0033739732181E+02
(PID.TID 0000.0001) %MON forcing_qnet_del2            =   3.4636730447595E-01
(PID.TID 0000.0001) %MON forcing_qsw_max              =   0.0000000000000E+00
(PID.TID 0000.0001) %MON forcing_qsw_min              =  -1.0985980132518E+02
(PID.TID 0000.0001) %MON forcing_qsw_mean             =  -1.6955517655943E+01
(PID.TID 0000.0001) %MON forcing_qsw_sd               =   2.9940138920582E+01
(PID.TID 0000.0001) %MON forcing_qsw_del2             =   2.2095254369379E-02
(PID.TID 0000.0001) %MON forcing_empmr_max            =   2.1140882745385E-02
(PID.TID 0000.0001) %MON forcing_empmr_min            =  -3.9021875709295E-02
(PID.TID 0000.0001) %MON forcing_empmr_mean           =  -2.7159312540317E-06
(PID.TID 0000.0001) %MON forcing_empmr_sd             =   2.9882886948675E-04
(PID.TID 0000.0001) %MON forcing_empmr_del2           =   3.4444271618126E-06
(PID.TID 0000.0001) %MON forcing_fu_max               =   8.8221505284309E-01
(PID.TID 0000.0001) %MON forcing_fu_min               =  -1.3767474303372E+00
(PID.TID 0000.0001) %MON forcing_fu_mean              =   1.0629523993806E-02
(PID.TID 0000.0001) %MON forcing_fu_sd                =   1.2706572431004E-01
(PID.TID 0000.0001) %MON forcing_fu_del2              =   1.7183338774120E-04
(PID.TID 0000.0001) %MON forcing_fv_max               =   1.2413825984412E+00
(PID.TID 0000.0001) %MON forcing_fv_min               =  -1.6129841910833E+00
(PID.TID 0000.0001) %MON forcing_fv_mean              =   4.2368040083644E-04
(PID.TID 0000.0001) %MON forcing_fv_sd                =   1.1996177896901E-01
(PID.TID 0000.0001) %MON forcing_fv_del2              =   1.5870091942427E-04
(PID.TID 0000.0001) %MON trAdv_CFL_u_max              =   2.3146032930420E-02
(PID.TID 0000.0001) %MON trAdv_CFL_v_max              =   1.9660987018354E-02
(PID.TID 0000.0001) %MON trAdv_CFL_w_max              =   1.0182599577332E-01
(PID.TID 0000.0001) %MON advcfl_uvel_max              =   2.3455643363417E-02
(PID.TID 0000.0001) %MON advcfl_vvel_max              =   1.9597631823725E-02
(PID.TID 0000.0001) %MON advcfl_wvel_max              =   9.6407898208899E-02
(PID.TID 0000.0001) %MON advcfl_W_hf_max              =   1.0182599577332E-01
(PID.TID 0000.0001) %MON pe_b_mean                    =   2.7027140644135E-03
(PID.TID 0000.0001) %MON ke_max                       =   2.0872102112400E+00
(PID.TID 0000.0001) %MON ke_mean                      =   1.8881962849450E-03
(PID.TID 0000.0001) %MON ke_vol                       =   1.3350064351420E+18
(PID.TID 0000.0001) %MON vort_r_min                   =  -7.7658241709048E-05
(PID.TID 0000.0001) %MON vort_r_max                   =   8.4045960146855E-05
(PID.TID 0000.0001) %MON vort_a_mean                  =  -1.9725077824732E-05
(PID.TID 0000.0001) %MON vort_a_sd                    =   7.4542145354165E-05
(PID.TID 0000.0001) %MON vort_p_mean                  =  -2.1669082877967E-05
(PID.TID 0000.0001) %MON vort_p_sd                    =   9.3619160041183E-05
(PID.TID 0000.0001) %MON surfExpan_theta_mean         =   1.5086488598487E-05
(PID.TID 0000.0001) %MON surfExpan_salt_mean          =   2.3357087988826E-06
(PID.TID 0000.0001) // =======================================================
(PID.TID 0000.0001) // End MONITOR dynamic field statistics
(PID.TID 0000.0001) // =======================================================
(PID.TID 0000.0001) // =======================================================
(PID.TID 0000.0001) // Begin MONITOR SEAICE statistics
(PID.TID 0000.0001) // =======================================================
(PID.TID 0000.0001) %MON seaice_tsnumber              =                174887
(PID.TID 0000.0001) %MON seaice_time_sec              =   7.8699150000000E+07
(PID.TID 0000.0001) %MON seaice_uice_max              =   1.2606473050861E+00
(PID.TID 0000.0001) %MON seaice_uice_min              =  -1.4589469522943E+00
(PID.TID 0000.0001) %MON seaice_uice_mean             =   1.1563700639678E-02
(PID.TID 0000.0001) %MON seaice_uice_sd               =   1.4932007292226E-01
(PID.TID 0000.0001) %MON seaice_uice_del2             =   3.7450862185821E-04
(PID.TID 0000.0001) %MON seaice_vice_max              =   1.0682957976745E+00
(PID.TID 0000.0001) %MON seaice_vice_min              =  -1.4668327916796E+00
(PID.TID 0000.0001) %MON seaice_vice_mean             =  -1.3172996195689E-02
(PID.TID 0000.0001) %MON seaice_vice_sd               =   1.6083902920112E-01
(PID.TID 0000.0001) %MON seaice_vice_del2             =   3.5806793041622E-04
(PID.TID 0000.0001) %MON seaice_area_max              =   1.0018014277506E+00
(PID.TID 0000.0001) %MON seaice_area_min              =   0.0000000000000E+00
(PID.TID 0000.0001) %MON seaice_area_mean             =   5.7616695337354E-02
(PID.TID 0000.0001) %MON seaice_area_sd               =   2.2078110568741E-01
(PID.TID 0000.0001) %MON seaice_area_del2             =   2.8469421743682E-04
(PID.TID 0000.0001) %MON seaice_heff_max              =   9.9473608196070E+00
(PID.TID 0000.0001) %MON seaice_heff_min              =   0.0000000000000E+00
(PID.TID 0000.0001) %MON seaice_heff_mean             =   1.4933232784438E-01
(PID.TID 0000.0001) %MON seaice_heff_sd               =   7.1941994085709E-01
(PID.TID 0000.0001) %MON seaice_heff_del2             =   1.3283118676597E-03
(PID.TID 0000.0001) %MON seaice_hsnow_max             =   3.2856362616933E+00
(PID.TID 0000.0001) %MON seaice_hsnow_min             =   0.0000000000000E+00
(PID.TID 0000.0001) %MON seaice_hsnow_mean            =   1.2596554045784E-02
(PID.TID 0000.0001) %MON seaice_hsnow_sd              =   6.7557147714817E-02
(PID.TID 0000.0001) %MON seaice_hsnow_del2            =   3.5622425086747E-04
(PID.TID 0000.0001) // =======================================================
(PID.TID 0000.0001) // End MONITOR SEAICE statistics
(PID.TID 0000.0001) // =======================================================
(PID.TID 0000.0001) // =======================================================
(PID.TID 0000.0001) // Begin MONITOR dynamic field statistics
(PID.TID 0000.0001) // =======================================================
(PID.TID 0000.0001) %MON time_tsnumber                =                174888
(PID.TID 0000.0001) %MON time_secondsf                =   7.8699600000000E+07
(PID.TID 0000.0001) %MON dynstat_eta_max              =   2.8036351552243E+00
(PID.TID 0000.0001) %MON dynstat_eta_min              =  -1.0113714029280E+01
(PID.TID 0000.0001) %MON dynstat_eta_mean             =   9.3234397970429E-02
(PID.TID 0000.0001) %MON dynstat_eta_sd               =   9.6344467048108E-01
(PID.TID 0000.0001) %MON dynstat_eta_del2             =   2.0111155232636E-03
(PID.TID 0000.0001) %MON dynstat_uvel_max             =   1.4779129562232E+00
(PID.TID 0000.0001) %MON dynstat_uvel_min             =  -2.2383232728662E+00
(PID.TID 0000.0001) %MON dynstat_uvel_mean            =   7.5026437594022E-03
(PID.TID 0000.0001) %MON dynstat_uvel_sd              =   4.3752827399482E-02
(PID.TID 0000.0001) %MON dynstat_uvel_del2            =   4.2773964056477E-05
(PID.TID 0000.0001) %MON dynstat_vvel_max             =   1.9403614223995E+00
(PID.TID 0000.0001) %MON dynstat_vvel_min             =  -1.8368692063901E+00
(PID.TID 0000.0001) %MON dynstat_vvel_mean            =   3.4310981734326E-03
(PID.TID 0000.0001) %MON dynstat_vvel_sd              =   4.4419318533648E-02
(PID.TID 0000.0001) %MON dynstat_vvel_del2            =   4.1520494359309E-05
(PID.TID 0000.0001) %MON dynstat_wvel_max             =   9.5348498606041E-03
(PID.TID 0000.0001) %MON dynstat_wvel_min             =  -9.4109826965475E-03
(PID.TID 0000.0001) %MON dynstat_wvel_mean            =   3.4477754878911E-07
(PID.TID 0000.0001) %MON dynstat_wvel_sd              =   1.7723732025163E-04
(PID.TID 0000.0001) %MON dynstat_wvel_del2            =   3.7295737696824E-07
(PID.TID 0000.0001) %MON dynstat_theta_max            =   3.2448626727265E+01
(PID.TID 0000.0001) %MON dynstat_theta_min            =  -2.0423621239308E+00
(PID.TID 0000.0001) %MON dynstat_theta_mean           =   3.5918093704316E+00
(PID.TID 0000.0001) %MON dynstat_theta_sd             =   4.4414258356801E+00
(PID.TID 0000.0001) %MON dynstat_theta_del2           =   1.2856487547862E-04
(PID.TID 0000.0001) %MON dynstat_salt_max             =   4.0655989508287E+01
(PID.TID 0000.0001) %MON dynstat_salt_min             =   1.5932984654018E+01
(PID.TID 0000.0001) %MON dynstat_salt_mean            =   3.4724794266106E+01
(PID.TID 0000.0001) %MON dynstat_salt_sd              =   3.7974853326510E-01
(PID.TID 0000.0001) %MON dynstat_salt_del2            =   6.2907721215991E-05
(PID.TID 0000.0001) %MON dynstat_sst_max              =   3.2448626727265E+01
(PID.TID 0000.0001) %MON dynstat_sst_min              =  -2.0423621239308E+00
(PID.TID 0000.0001) %MON dynstat_sst_mean             =   1.8170575226274E+01
(PID.TID 0000.0001) %MON dynstat_sst_sd               =   1.0203994870654E+01
(PID.TID 0000.0001) %MON dynstat_sst_del2             =   1.0999276206534E-03
(PID.TID 0000.0001) %MON dynstat_sss_max              =   3.9462916499984E+01
(PID.TID 0000.0001) %MON dynstat_sss_min              =   1.5932984654018E+01
(PID.TID 0000.0001) %MON dynstat_sss_mean             =   3.4641307116230E+01
(PID.TID 0000.0001) %MON dynstat_sss_sd               =   1.3033839704031E+00
(PID.TID 0000.0001) %MON dynstat_sss_del2             =   1.4651744022769E-03
(PID.TID 0000.0001) %MON forcing_qnet_max             =   8.1312716514627E+02
(PID.TID 0000.0001) %MON forcing_qnet_min             =  -1.1207236328125E+03
(PID.TID 0000.0001) %MON forcing_qnet_mean            =   1.6024307689321E+01
(PID.TID 0000.0001) %MON forcing_qnet_sd              =   2.0089430651791E+02
(PID.TID 0000.0001) %MON forcing_qnet_del2            =   3.5189265217752E-01
(PID.TID 0000.0001) %MON forcing_qsw_max              =   0.0000000000000E+00
(PID.TID 0000.0001) %MON forcing_qsw_min              =  -1.0965892459367E+02
(PID.TID 0000.0001) %MON forcing_qsw_mean             =  -1.7031476115750E+01
(PID.TID 0000.0001) %MON forcing_qsw_sd               =   3.0038107338766E+01
(PID.TID 0000.0001) %MON forcing_qsw_del2             =   2.2152507528035E-02
(PID.TID 0000.0001) %MON forcing_empmr_max            =   2.1304948255420E-02
(PID.TID 0000.0001) %MON forcing_empmr_min            =  -3.6845602095127E-02
(PID.TID 0000.0001) %MON forcing_empmr_mean           =  -2.6050224035540E-06
(PID.TID 0000.0001) %MON forcing_empmr_sd             =   2.9637355059638E-04
(PID.TID 0000.0001) %MON forcing_empmr_del2           =   3.4571647522949E-06
(PID.TID 0000.0001) %MON forcing_fu_max               =   8.8510051369667E-01
(PID.TID 0000.0001) %MON forcing_fu_min               =  -1.3733381482583E+00
(PID.TID 0000.0001) %MON forcing_fu_mean              =   1.0623589342737E-02
(PID.TID 0000.0001) %MON forcing_fu_sd                =   1.2706448302781E-01
(PID.TID 0000.0001) %MON forcing_fu_del2              =   1.7166994133859E-04
(PID.TID 0000.0001) %MON forcing_fv_max               =   1.2398075995319E+00
(PID.TID 0000.0001) %MON forcing_fv_min               =  -1.5861674629195E+00
(PID.TID 0000.0001) %MON forcing_fv_mean              =   4.3860732057900E-04
(PID.TID 0000.0001) %MON forcing_fv_sd                =   1.2009361208273E-01
(PID.TID 0000.0001) %MON forcing_fv_del2              =   1.5856404057077E-04
(PID.TID 0000.0001) %MON trAdv_CFL_u_max              =   2.3087541144732E-02
(PID.TID 0000.0001) %MON trAdv_CFL_v_max              =   1.9752153421059E-02
(PID.TID 0000.0001) %MON trAdv_CFL_w_max              =   1.0219147296281E-01
(PID.TID 0000.0001) %MON advcfl_uvel_max              =   2.3396369168615E-02
(PID.TID 0000.0001) %MON advcfl_vvel_max              =   1.9688504453530E-02
(PID.TID 0000.0001) %MON advcfl_wvel_max              =   9.6752437121307E-02
(PID.TID 0000.0001) %MON advcfl_W_hf_max              =   1.0219147296281E-01
(PID.TID 0000.0001) %MON pe_b_mean                    =   2.7065528285350E-03
(PID.TID 0000.0001) %MON ke_max                       =   2.0947964356101E+00
(PID.TID 0000.0001) %MON ke_mean                      =   1.9072760840351E-03
(PID.TID 0000.0001) %MON ke_vol                       =   1.3350064351420E+18
(PID.TID 0000.0001) %MON vort_r_min                   =  -7.7369776112663E-05
(PID.TID 0000.0001) %MON vort_r_max                   =   8.3801476039539E-05
(PID.TID 0000.0001) %MON vort_a_mean                  =  -1.9725077735966E-05
(PID.TID 0000.0001) %MON vort_a_sd                    =   7.4542172634297E-05
(PID.TID 0000.0001) %MON vort_p_mean                  =  -2.1669082780452E-05
(PID.TID 0000.0001) %MON vort_p_sd                    =   9.3619207818144E-05
(PID.TID 0000.0001) %MON surfExpan_theta_mean         =   1.5556728739538E-05
(PID.TID 0000.0001) %MON surfExpan_salt_mean          =   1.9727024256729E-06
(PID.TID 0000.0001) // =======================================================
(PID.TID 0000.0001) // End MONITOR dynamic field statistics
(PID.TID 0000.0001) // =======================================================
(PID.TID 0000.0001) // =======================================================
(PID.TID 0000.0001) // Begin MONITOR SEAICE statistics
(PID.TID 0000.0001) // =======================================================
(PID.TID 0000.0001) %MON seaice_tsnumber              =                174888
(PID.TID 0000.0001) %MON seaice_time_sec              =   7.8699600000000E+07
(PID.TID 0000.0001) %MON seaice_uice_max              =   1.2553797901467E+00
(PID.TID 0000.0001) %MON seaice_uice_min              =  -1.4699971515412E+00
(PID.TID 0000.0001) %MON seaice_uice_mean             =   1.1511832249047E-02
(PID.TID 0000.0001) %MON seaice_uice_sd               =   1.4935867777808E-01
(PID.TID 0000.0001) %MON seaice_uice_del2             =   3.7491417263538E-04
(PID.TID 0000.0001) %MON seaice_vice_max              =   1.0593783995709E+00
(PID.TID 0000.0001) %MON seaice_vice_min              =  -1.4669755556470E+00
(PID.TID 0000.0001) %MON seaice_vice_mean             =  -1.3182269765807E-02
(PID.TID 0000.0001) %MON seaice_vice_sd               =   1.6084765169241E-01
(PID.TID 0000.0001) %MON seaice_vice_del2             =   3.5874257762726E-04
(PID.TID 0000.0001) %MON seaice_area_max              =   1.0017376070277E+00
(PID.TID 0000.0001) %MON seaice_area_min              =   0.0000000000000E+00
(PID.TID 0000.0001) %MON seaice_area_mean             =   5.7619236400754E-02
(PID.TID 0000.0001) %MON seaice_area_sd               =   2.2077918992922E-01
(PID.TID 0000.0001) %MON seaice_area_del2             =   2.8459851713966E-04
(PID.TID 0000.0001) %MON seaice_heff_max              =   9.9473532047053E+00
(PID.TID 0000.0001) %MON seaice_heff_min              =   0.0000000000000E+00
(PID.TID 0000.0001) %MON seaice_heff_mean             =   1.4932876573878E-01
(PID.TID 0000.0001) %MON seaice_heff_sd               =   7.1940893871081E-01
(PID.TID 0000.0001) %MON seaice_heff_del2             =   1.3277181494151E-03
(PID.TID 0000.0001) %MON seaice_hsnow_max             =   3.2856333392868E+00
(PID.TID 0000.0001) %MON seaice_hsnow_min             =   0.0000000000000E+00
(PID.TID 0000.0001) %MON seaice_hsnow_mean            =   1.2595819857914E-02
(PID.TID 0000.0001) %MON seaice_hsnow_sd              =   6.7546392564625E-02
(PID.TID 0000.0001) %MON seaice_hsnow_del2            =   3.5591941608154E-04
(PID.TID 0000.0001) // =======================================================
(PID.TID 0000.0001) // End MONITOR SEAICE statistics
(PID.TID 0000.0001) // =======================================================
(PID.TID 0000.0001) // =======================================================
(PID.TID 0000.0001) // Begin MONITOR dynamic field statistics
(PID.TID 0000.0001) // =======================================================
(PID.TID 0000.0001) %MON time_tsnumber                =                174889
(PID.TID 0000.0001) %MON time_secondsf                =   7.8700050000000E+07
(PID.TID 0000.0001) %MON dynstat_eta_max              =   2.7920553028393E+00
(PID.TID 0000.0001) %MON dynstat_eta_min              =  -1.0094148174377E+01
(PID.TID 0000.0001) %MON dynstat_eta_mean             =   9.3247919358564E-02
(PID.TID 0000.0001) %MON dynstat_eta_sd               =   9.6523529735133E-01
(PID.TID 0000.0001) %MON dynstat_eta_del2             =   2.0111796031772E-03
(PID.TID 0000.0001) %MON dynstat_uvel_max             =   1.4651479581956E+00
(PID.TID 0000.0001) %MON dynstat_uvel_min             =  -2.2327222025470E+00
(PID.TID 0000.0001) %MON dynstat_uvel_mean            =   7.4665177403840E-03
(PID.TID 0000.0001) %MON dynstat_uvel_sd              =   4.3976453537464E-02
(PID.TID 0000.0001) %MON dynstat_uvel_del2            =   4.2882000964609E-05
(PID.TID 0000.0001) %MON dynstat_vvel_max             =   1.9489274162530E+00
(PID.TID 0000.0001) %MON dynstat_vvel_min             =  -1.8293063266477E+00
(PID.TID 0000.0001) %MON dynstat_vvel_mean            =   3.4010698659959E-03
(PID.TID 0000.0001) %MON dynstat_vvel_sd              =   4.4656137503720E-02
(PID.TID 0000.0001) %MON dynstat_vvel_del2            =   4.1633531841801E-05
(PID.TID 0000.0001) %MON dynstat_wvel_max             =   9.5617427470161E-03
(PID.TID 0000.0001) %MON dynstat_wvel_min             =  -9.4616533866006E-03
(PID.TID 0000.0001) %MON dynstat_wvel_mean            =   3.3755905066898E-07
(PID.TID 0000.0001) %MON dynstat_wvel_sd              =   1.7800405432550E-04
(PID.TID 0000.0001) %MON dynstat_wvel_del2            =   3.7421887525132E-07
(PID.TID 0000.0001) %MON dynstat_theta_max            =   3.2448434537407E+01
(PID.TID 0000.0001) %MON dynstat_theta_min            =  -2.0421551789606E+00
(PID.TID 0000.0001) %MON dynstat_theta_mean           =   3.5918069750669E+00
(PID.TID 0000.0001) %MON dynstat_theta_sd             =   4.4414189548506E+00
(PID.TID 0000.0001) %MON dynstat_theta_del2           =   1.2861864428569E-04
(PID.TID 0000.0001) %MON dynstat_salt_max             =   4.0655989495803E+01
(PID.TID 0000.0001) %MON dynstat_salt_min             =   1.5932072222622E+01
(PID.TID 0000.0001) %MON dynstat_salt_mean            =   3.4724794133184E+01
(PID.TID 0000.0001) %MON dynstat_salt_sd              =   3.7974922546447E-01
(PID.TID 0000.0001) %MON dynstat_salt_del2            =   6.2877733430773E-05
(PID.TID 0000.0001) %MON dynstat_sst_max              =   3.2448434537407E+01
(PID.TID 0000.0001) %MON dynstat_sst_min              =  -2.0421551789606E+00
(PID.TID 0000.0001) %MON dynstat_sst_mean             =   1.8170558991672E+01
(PID.TID 0000.0001) %MON dynstat_sst_sd               =   1.0204120986312E+01
(PID.TID 0000.0001) %MON dynstat_sst_del2             =   1.0997261029057E-03
(PID.TID 0000.0001) %MON dynstat_sss_max              =   3.9462938676641E+01
(PID.TID 0000.0001) %MON dynstat_sss_min              =   1.5932072222622E+01
(PID.TID 0000.0001) %MON dynstat_sss_mean             =   3.4641285699783E+01
(PID.TID 0000.0001) %MON dynstat_sss_sd               =   1.3034224102342E+00
(PID.TID 0000.0001) %MON dynstat_sss_del2             =   1.4651459816063E-03
(PID.TID 0000.0001) %MON forcing_qnet_max             =   8.8411798095703E+02
(PID.TID 0000.0001) %MON forcing_qnet_min             =  -1.0541301269531E+03
(PID.TID 0000.0001) %MON forcing_qnet_mean            =   1.5579625444458E+01
(PID.TID 0000.0001) %MON forcing_qnet_sd              =   2.0140214050857E+02
(PID.TID 0000.0001) %MON forcing_qnet_del2            =   3.5525226506161E-01
(PID.TID 0000.0001) %MON forcing_qsw_max              =   0.0000000000000E+00
(PID.TID 0000.0001) %MON forcing_qsw_min              =  -1.0997078087982E+02
(PID.TID 0000.0001) %MON forcing_qsw_mean             =  -1.7099632516645E+01
(PID.TID 0000.0001) %MON forcing_qsw_sd               =   3.0116800780800E+01
(PID.TID 0000.0001) %MON forcing_qsw_del2             =   2.2202136544348E-02
(PID.TID 0000.0001) %MON forcing_empmr_max            =   2.2208521142602E-02
(PID.TID 0000.0001) %MON forcing_empmr_min            =  -3.5228781402111E-02
(PID.TID 0000.0001) %MON forcing_empmr_mean           =  -2.5093942683776E-06
(PID.TID 0000.0001) %MON forcing_empmr_sd             =   2.9502336096027E-04
(PID.TID 0000.0001) %MON forcing_empmr_del2           =   3.4765188180104E-06
(PID.TID 0000.0001) %MON forcing_fu_max               =   8.8963305950165E-01
(PID.TID 0000.0001) %MON forcing_fu_min               =  -1.3703977121466E+00
(PID.TID 0000.0001) %MON forcing_fu_mean              =   1.0612147068855E-02
(PID.TID 0000.0001) %MON forcing_fu_sd                =   1.2704643399771E-01
(PID.TID 0000.0001) %MON forcing_fu_del2              =   1.7162797778293E-04
(PID.TID 0000.0001) %MON forcing_fv_max               =   1.2380627948700E+00
(PID.TID 0000.0001) %MON forcing_fv_min               =  -1.5574754058681E+00
(PID.TID 0000.0001) %MON forcing_fv_mean              =   4.5160646468480E-04
(PID.TID 0000.0001) %MON forcing_fv_sd                =   1.2016565371751E-01
(PID.TID 0000.0001) %MON forcing_fv_del2              =   1.5863496128089E-04
(PID.TID 0000.0001) %MON trAdv_CFL_u_max              =   2.3029768014721E-02
(PID.TID 0000.0001) %MON trAdv_CFL_v_max              =   1.9839352034082E-02
(PID.TID 0000.0001) %MON trAdv_CFL_w_max              =   1.0253791611877E-01
(PID.TID 0000.0001) %MON advcfl_uvel_max              =   2.3337823242512E-02
(PID.TID 0000.0001) %MON advcfl_vvel_max              =   1.9775422079384E-02
(PID.TID 0000.0001) %MON advcfl_wvel_max              =   9.7078198758450E-02
(PID.TID 0000.0001) %MON advcfl_W_hf_max              =   1.0253791611877E-01
(PID.TID 0000.0001) %MON pe_b_mean                    =   2.7102771395983E-03
(PID.TID 0000.0001) %MON ke_max                       =   2.1021091366233E+00
(PID.TID 0000.0001) %MON ke_mean                      =   1.9265479950905E-03
(PID.TID 0000.0001) %MON ke_vol                       =   1.3350064351420E+18
(PID.TID 0000.0001) %MON vort_r_min                   =  -7.7082536215508E-05
(PID.TID 0000.0001) %MON vort_r_max                   =   8.3559637801663E-05
(PID.TID 0000.0001) %MON vort_a_mean                  =  -1.9725077656297E-05
(PID.TID 0000.0001) %MON vort_a_sd                    =   7.4542200158303E-05
(PID.TID 0000.0001) %MON vort_p_mean                  =  -2.1669082692931E-05
(PID.TID 0000.0001) %MON vort_p_sd                    =   9.3619254861542E-05
(PID.TID 0000.0001) %MON surfExpan_theta_mean         =   1.5994523290116E-05
(PID.TID 0000.0001) %MON surfExpan_salt_mean          =   1.5249184213324E-06
(PID.TID 0000.0001) // =======================================================
(PID.TID 0000.0001) // End MONITOR dynamic field statistics
(PID.TID 0000.0001) // =======================================================
(PID.TID 0000.0001) // =======================================================
(PID.TID 0000.0001) // Begin MONITOR SEAICE statistics
(PID.TID 0000.0001) // =======================================================
(PID.TID 0000.0001) %MON seaice_tsnumber              =                174889
(PID.TID 0000.0001) %MON seaice_time_sec              =   7.8700050000000E+07
(PID.TID 0000.0001) %MON seaice_uice_max              =   1.2498191250019E+00
(PID.TID 0000.0001) %MON seaice_uice_min              =  -1.4803398517913E+00
(PID.TID 0000.0001) %MON seaice_uice_mean             =   1.1454275560444E-02
(PID.TID 0000.0001) %MON seaice_uice_sd               =   1.4939906985903E-01
(PID.TID 0000.0001) %MON seaice_uice_del2             =   3.7528836861321E-04
(PID.TID 0000.0001) %MON seaice_vice_max              =   1.0496934095011E+00
(PID.TID 0000.0001) %MON seaice_vice_min              =  -1.4671286746705E+00
(PID.TID 0000.0001) %MON seaice_vice_mean             =  -1.3201720552456E-02
(PID.TID 0000.0001) %MON seaice_vice_sd               =   1.6085288701922E-01
(PID.TID 0000.0001) %MON seaice_vice_del2             =   3.5940008978164E-04
(PID.TID 0000.0001) %MON seaice_area_max              =   1.0016778726495E+00
(PID.TID 0000.0001) %MON seaice_area_min              =   0.0000000000000E+00
(PID.TID 0000.0001) %MON seaice_area_mean             =   5.7621782129711E-02
(PID.TID 0000.0001) %MON seaice_area_sd               =   2.2077728686682E-01
(PID.TID 0000.0001) %MON seaice_area_del2             =   2.8450120013371E-04
(PID.TID 0000.0001) %MON seaice_heff_max              =   9.9473446360759E+00
(PID.TID 0000.0001) %MON seaice_heff_min              =   0.0000000000000E+00
(PID.TID 0000.0001) %MON seaice_heff_mean             =   1.4932521300971E-01
(PID.TID 0000.0001) %MON seaice_heff_sd               =   7.1939793471768E-01
(PID.TID 0000.0001) %MON seaice_heff_del2             =   1.3271252416039E-03
(PID.TID 0000.0001) %MON seaice_hsnow_max             =   3.2856306482774E+00
(PID.TID 0000.0001) %MON seaice_hsnow_min             =   0.0000000000000E+00
(PID.TID 0000.0001) %MON seaice_hsnow_mean            =   1.2595089042917E-02
(PID.TID 0000.0001) %MON seaice_hsnow_sd              =   6.7535662799652E-02
(PID.TID 0000.0001) %MON seaice_hsnow_del2            =   3.5561480795693E-04
(PID.TID 0000.0001) // =======================================================
(PID.TID 0000.0001) // End MONITOR SEAICE statistics
(PID.TID 0000.0001) // =======================================================
(PID.TID 0000.0001) // =======================================================
(PID.TID 0000.0001) // Begin MONITOR dynamic field statistics
(PID.TID 0000.0001) // =======================================================
(PID.TID 0000.0001) %MON time_tsnumber                =                174890
(PID.TID 0000.0001) %MON time_secondsf                =   7.8700500000000E+07
(PID.TID 0000.0001) %MON dynstat_eta_max              =   2.7700320924170E+00
(PID.TID 0000.0001) %MON dynstat_eta_min              =  -1.0074467967314E+01
(PID.TID 0000.0001) %MON dynstat_eta_mean             =   9.3252838234304E-02
(PID.TID 0000.0001) %MON dynstat_eta_sd               =   9.6705690616339E-01
(PID.TID 0000.0001) %MON dynstat_eta_del2             =   2.0112572075995E-03
(PID.TID 0000.0001) %MON dynstat_uvel_max             =   1.4524537202462E+00
(PID.TID 0000.0001) %MON dynstat_uvel_min             =  -2.2272035173213E+00
(PID.TID 0000.0001) %MON dynstat_uvel_mean            =   7.4287203739963E-03
(PID.TID 0000.0001) %MON dynstat_uvel_sd              =   4.4201099890174E-02
(PID.TID 0000.0001) %MON dynstat_uvel_del2            =   4.2990785075384E-05
(PID.TID 0000.0001) %MON dynstat_vvel_max             =   1.9570883243791E+00
(PID.TID 0000.0001) %MON dynstat_vvel_min             =  -1.8216972404796E+00
(PID.TID 0000.0001) %MON dynstat_vvel_mean            =   3.3695791494328E-03
(PID.TID 0000.0001) %MON dynstat_vvel_sd              =   4.4894464487841E-02
(PID.TID 0000.0001) %MON dynstat_vvel_del2            =   4.1747012208603E-05
(PID.TID 0000.0001) %MON dynstat_wvel_max             =   9.5886772944966E-03
(PID.TID 0000.0001) %MON dynstat_wvel_min             =  -9.5108936397405E-03
(PID.TID 0000.0001) %MON dynstat_wvel_mean            =   3.2942262874459E-07
(PID.TID 0000.0001) %MON dynstat_wvel_sd              =   1.7877075041943E-04
(PID.TID 0000.0001) %MON dynstat_wvel_del2            =   3.7547567523271E-07
(PID.TID 0000.0001) %MON dynstat_theta_max            =   3.2448160880657E+01
(PID.TID 0000.0001) %MON dynstat_theta_min            =  -2.0419530633331E+00
(PID.TID 0000.0001) %MON dynstat_theta_mean           =   3.5918045442636E+00
(PID.TID 0000.0001) %MON dynstat_theta_sd             =   4.4414121182185E+00
(PID.TID 0000.0001) %MON dynstat_theta_del2           =   1.2867263511592E-04
(PID.TID 0000.0001) %MON dynstat_salt_max             =   4.0655989482953E+01
(PID.TID 0000.0001) %MON dynstat_salt_min             =   1.5931165629201E+01
(PID.TID 0000.0001) %MON dynstat_salt_mean            =   3.4724793983159E+01
(PID.TID 0000.0001) %MON dynstat_salt_sd              =   3.7974993621742E-01
(PID.TID 0000.0001) %MON dynstat_salt_del2            =   6.2847901132440E-05
(PID.TID 0000.0001) %MON dynstat_sst_max              =   3.2448160880657E+01
(PID.TID 0000.0001) %MON dynstat_sst_min              =  -2.0419530633331E+00
(PID.TID 0000.0001) %MON dynstat_sst_mean             =   1.8170551899621E+01
(PID.TID 0000.0001) %MON dynstat_sst_sd               =   1.0204254441055E+01
(PID.TID 0000.0001) %MON dynstat_sst_del2             =   1.0995630651730E-03
(PID.TID 0000.0001) %MON dynstat_sss_max              =   3.9462960681283E+01
(PID.TID 0000.0001) %MON dynstat_sss_min              =   1.5931165629201E+01
(PID.TID 0000.0001) %MON dynstat_sss_mean             =   3.4641263895576E+01
(PID.TID 0000.0001) %MON dynstat_sss_sd               =   1.3034609462559E+00
(PID.TID 0000.0001) %MON dynstat_sss_del2             =   1.4651090458556E-03
(PID.TID 0000.0001) %MON forcing_qnet_max             =   1.0197775268555E+03
(PID.TID 0000.0001) %MON forcing_qnet_min             =  -1.3333923339844E+03
(PID.TID 0000.0001) %MON forcing_qnet_mean            =   1.5130572978021E+01
(PID.TID 0000.0001) %MON forcing_qnet_sd              =   2.0194736876518E+02
(PID.TID 0000.0001) %MON forcing_qnet_del2            =   3.6845444250316E-01
(PID.TID 0000.0001) %MON forcing_qsw_max              =   0.0000000000000E+00
(PID.TID 0000.0001) %MON forcing_qsw_min              =  -1.1016584171654E+02
(PID.TID 0000.0001) %MON forcing_qsw_mean             =  -1.7159691844907E+01
(PID.TID 0000.0001) %MON forcing_qsw_sd               =   3.0176175576331E+01
(PID.TID 0000.0001) %MON forcing_qsw_del2             =   2.2244005946473E-02
(PID.TID 0000.0001) %MON forcing_empmr_max            =   2.3914730176330E-02
(PID.TID 0000.0001) %MON forcing_empmr_min            =  -3.5927075892687E-02
(PID.TID 0000.0001) %MON forcing_empmr_mean           =  -2.4327315144093E-06
(PID.TID 0000.0001) %MON forcing_empmr_sd             =   2.9801416995010E-04
(PID.TID 0000.0001) %MON forcing_empmr_del2           =   3.5467506571441E-06
(PID.TID 0000.0001) %MON forcing_fu_max               =   8.9189672470093E-01
(PID.TID 0000.0001) %MON forcing_fu_min               =  -1.3686344013135E+00
(PID.TID 0000.0001) %MON forcing_fu_mean              =   1.0598487319893E-02
(PID.TID 0000.0001) %MON forcing_fu_sd                =   1.2698828556864E-01
(PID.TID 0000.0001) %MON forcing_fu_del2              =   1.7128569197485E-04
(PID.TID 0000.0001) %MON forcing_fv_max               =   1.2340488633653E+00
(PID.TID 0000.0001) %MON forcing_fv_min               =  -1.5268085745872E+00
(PID.TID 0000.0001) %MON forcing_fv_mean              =   4.6115964526984E-04
(PID.TID 0000.0001) %MON forcing_fv_sd                =   1.2023698780102E-01
(PID.TID 0000.0001) %MON forcing_fv_del2              =   1.5877190693752E-04
(PID.TID 0000.0001) %MON trAdv_CFL_u_max              =   2.2972844658851E-02
(PID.TID 0000.0001) %MON trAdv_CFL_v_max              =   1.9922427025938E-02
(PID.TID 0000.0001) %MON trAdv_CFL_w_max              =   1.0286486217760E-01
(PID.TID 0000.0001) %MON advcfl_uvel_max              =   2.3280138457463E-02
(PID.TID 0000.0001) %MON advcfl_vvel_max              =   1.9858229371948E-02
(PID.TID 0000.0001) %MON advcfl_wvel_max              =   9.7384869367815E-02
(PID.TID 0000.0001) %MON advcfl_W_hf_max              =   1.0286486217760E-01
(PID.TID 0000.0001) %MON pe_b_mean                    =   2.7138629906769E-03
(PID.TID 0000.0001) %MON ke_max                       =   2.1091434909568E+00
(PID.TID 0000.0001) %MON ke_mean                      =   1.9460164001177E-03
(PID.TID 0000.0001) %MON ke_vol                       =   1.3350064351420E+18
(PID.TID 0000.0001) %MON vort_r_min                   =  -7.6797328444912E-05
(PID.TID 0000.0001) %MON vort_r_max                   =   8.3321065052967E-05
(PID.TID 0000.0001) %MON vort_a_mean                  =  -1.9725077585731E-05
(PID.TID 0000.0001) %MON vort_a_sd                    =   7.4542227969209E-05
(PID.TID 0000.0001) %MON vort_p_mean                  =  -2.1669082615411E-05
(PID.TID 0000.0001) %MON vort_p_sd                    =   9.3619301205456E-05
(PID.TID 0000.0001) %MON surfExpan_theta_mean         =   1.6409090555626E-05
(PID.TID 0000.0001) %MON surfExpan_salt_mean          =   1.0146566372680E-06
(PID.TID 0000.0001) // =======================================================
(PID.TID 0000.0001) // End MONITOR dynamic field statistics
(PID.TID 0000.0001) // =======================================================
(PID.TID 0000.0001) // =======================================================
(PID.TID 0000.0001) // Begin MONITOR SEAICE statistics
(PID.TID 0000.0001) // =======================================================
(PID.TID 0000.0001) %MON seaice_tsnumber              =                174890
(PID.TID 0000.0001) %MON seaice_time_sec              =   7.8700500000000E+07
(PID.TID 0000.0001) %MON seaice_uice_max              =   1.2440212160490E+00
(PID.TID 0000.0001) %MON seaice_uice_min              =  -1.4899390428529E+00
(PID.TID 0000.0001) %MON seaice_uice_mean             =   1.1388582402402E-02
(PID.TID 0000.0001) %MON seaice_uice_sd               =   1.4943887814604E-01
(PID.TID 0000.0001) %MON seaice_uice_del2             =   3.7563988291430E-04
(PID.TID 0000.0001) %MON seaice_vice_max              =   1.0393049790448E+00
(PID.TID 0000.0001) %MON seaice_vice_min              =  -1.4673167075242E+00
(PID.TID 0000.0001) %MON seaice_vice_mean             =  -1.3233182955825E-02
(PID.TID 0000.0001) %MON seaice_vice_sd               =   1.6085719820533E-01
(PID.TID 0000.0001) %MON seaice_vice_del2             =   3.6005023458988E-04
(PID.TID 0000.0001) %MON seaice_area_max              =   1.0016230255896E+00
(PID.TID 0000.0001) %MON seaice_area_min              =   0.0000000000000E+00
(PID.TID 0000.0001) %MON seaice_area_mean             =   5.7624344600894E-02
(PID.TID 0000.0001) %MON seaice_area_sd               =   2.2077542274271E-01
(PID.TID 0000.0001) %MON seaice_area_del2             =   2.8440244091757E-04
(PID.TID 0000.0001) %MON seaice_heff_max              =   9.9473379740692E+00
(PID.TID 0000.0001) %MON seaice_heff_min              =   0.0000000000000E+00
(PID.TID 0000.0001) %MON seaice_heff_mean             =   1.4932166366252E-01
(PID.TID 0000.0001) %MON seaice_heff_sd               =   7.1938690966744E-01
(PID.TID 0000.0001) %MON seaice_heff_del2             =   1.3265337025362E-03
(PID.TID 0000.0001) %MON seaice_hsnow_max             =   3.2856279693326E+00
(PID.TID 0000.0001) %MON seaice_hsnow_min             =   0.0000000000000E+00
(PID.TID 0000.0001) %MON seaice_hsnow_mean            =   1.2594350628270E-02
(PID.TID 0000.0001) %MON seaice_hsnow_sd              =   6.7524867082074E-02
(PID.TID 0000.0001) %MON seaice_hsnow_del2            =   3.5531046905656E-04
(PID.TID 0000.0001) // =======================================================
(PID.TID 0000.0001) // End MONITOR SEAICE statistics
(PID.TID 0000.0001) // =======================================================
(PID.TID 0000.0001) // =======================================================
(PID.TID 0000.0001) // Begin MONITOR dynamic field statistics
(PID.TID 0000.0001) // =======================================================
(PID.TID 0000.0001) %MON time_tsnumber                =                174891
(PID.TID 0000.0001) %MON time_secondsf                =   7.8700950000000E+07
(PID.TID 0000.0001) %MON dynstat_eta_max              =   2.7378101326810E+00
(PID.TID 0000.0001) %MON dynstat_eta_min              =  -1.0054729771419E+01
(PID.TID 0000.0001) %MON dynstat_eta_mean             =   9.3247960687449E-02
(PID.TID 0000.0001) %MON dynstat_eta_sd               =   9.6890873547162E-01
(PID.TID 0000.0001) %MON dynstat_eta_del2             =   2.0113418113503E-03
(PID.TID 0000.0001) %MON dynstat_uvel_max             =   1.4398330117880E+00
(PID.TID 0000.0001) %MON dynstat_uvel_min             =  -2.2217750218621E+00
(PID.TID 0000.0001) %MON dynstat_uvel_mean            =   7.3895017839506E-03
(PID.TID 0000.0001) %MON dynstat_uvel_sd              =   4.4426688165746E-02
(PID.TID 0000.0001) %MON dynstat_uvel_del2            =   4.3100286679957E-05
(PID.TID 0000.0001) %MON dynstat_vvel_max             =   1.9648281570107E+00
(PID.TID 0000.0001) %MON dynstat_vvel_min             =  -1.8140444346387E+00
(PID.TID 0000.0001) %MON dynstat_vvel_mean            =   3.3366228501722E-03
(PID.TID 0000.0001) %MON dynstat_vvel_sd              =   4.5134404635844E-02
(PID.TID 0000.0001) %MON dynstat_vvel_del2            =   4.1860635037835E-05
(PID.TID 0000.0001) %MON dynstat_wvel_max             =   9.6156591054297E-03
(PID.TID 0000.0001) %MON dynstat_wvel_min             =  -9.5587456199428E-03
(PID.TID 0000.0001) %MON dynstat_wvel_mean            =   3.1981242914511E-07
(PID.TID 0000.0001) %MON dynstat_wvel_sd              =   1.7953789239215E-04
(PID.TID 0000.0001) %MON dynstat_wvel_del2            =   3.7672858689280E-07
(PID.TID 0000.0001) %MON dynstat_theta_max            =   3.2447802538357E+01
(PID.TID 0000.0001) %MON dynstat_theta_min            =  -2.0417559420675E+00
(PID.TID 0000.0001) %MON dynstat_theta_mean           =   3.5918020810993E+00
(PID.TID 0000.0001) %MON dynstat_theta_sd             =   4.4414053224606E+00
(PID.TID 0000.0001) %MON dynstat_theta_del2           =   1.2872682843764E-04
(PID.TID 0000.0001) %MON dynstat_salt_max             =   4.0655989469815E+01
(PID.TID 0000.0001) %MON dynstat_salt_min             =   1.5930269581565E+01
(PID.TID 0000.0001) %MON dynstat_salt_mean            =   3.4724793816132E+01
(PID.TID 0000.0001) %MON dynstat_salt_sd              =   3.7975067210997E-01
(PID.TID 0000.0001) %MON dynstat_salt_del2            =   6.2818651879571E-05
(PID.TID 0000.0001) %MON dynstat_sst_max              =   3.2447802538357E+01
(PID.TID 0000.0001) %MON dynstat_sst_min              =  -2.0417559420675E+00
(PID.TID 0000.0001) %MON dynstat_sst_mean             =   1.8170550156958E+01
(PID.TID 0000.0001) %MON dynstat_sst_sd               =   1.0204390072794E+01
(PID.TID 0000.0001) %MON dynstat_sst_del2             =   1.0994037449449E-03
(PID.TID 0000.0001) %MON dynstat_sss_max              =   3.9462983238709E+01
(PID.TID 0000.0001) %MON dynstat_sss_min              =   1.5930269581565E+01
(PID.TID 0000.0001) %MON dynstat_sss_mean             =   3.4641242395870E+01
(PID.TID 0000.0001) %MON dynstat_sss_sd               =   1.3035002411368E+00
(PID.TID 0000.0001) %MON dynstat_sss_del2             =   1.4651215137273E-03
(PID.TID 0000.0001) %MON forcing_qnet_max             =   1.5374449462891E+03
(PID.TID 0000.0001) %MON forcing_qnet_min             =  -1.7594699707031E+03
(PID.TID 0000.0001) %MON forcing_qnet_mean            =   1.4750115740582E+01
(PID.TID 0000.0001) %MON forcing_qnet_sd              =   2.0236296413507E+02
(PID.TID 0000.0001) %MON forcing_qnet_del2            =   3.7107237619333E-01
(PID.TID 0000.0001) %MON forcing_qsw_max              =   0.0000000000000E+00
(PID.TID 0000.0001) %MON forcing_qsw_min              =  -1.1024389949854E+02
(PID.TID 0000.0001) %MON forcing_qsw_mean             =  -1.7211417594042E+01
(PID.TID 0000.0001) %MON forcing_qsw_sd               =   3.0216167074814E+01
(PID.TID 0000.0001) %MON forcing_qsw_del2             =   2.2277975364051E-02
(PID.TID 0000.0001) %MON forcing_empmr_max            =   2.4515163153410E-02
(PID.TID 0000.0001) %MON forcing_empmr_min            =  -3.7800174206495E-02
(PID.TID 0000.0001) %MON forcing_empmr_mean           =  -2.2808398142829E-06
(PID.TID 0000.0001) %MON forcing_empmr_sd             =   3.0147700166904E-04
(PID.TID 0000.0001) %MON forcing_empmr_del2           =   3.5961539678617E-06
(PID.TID 0000.0001) %MON forcing_fu_max               =   8.9236828684807E-01
(PID.TID 0000.0001) %MON forcing_fu_min               =  -1.3654261327472E+00
(PID.TID 0000.0001) %MON forcing_fu_mean              =   1.0598312177360E-02
(PID.TID 0000.0001) %MON forcing_fu_sd                =   1.2695715133735E-01
(PID.TID 0000.0001) %MON forcing_fu_del2              =   1.7114063156468E-04
(PID.TID 0000.0001) %MON forcing_fv_max               =   1.2301617150600E+00
(PID.TID 0000.0001) %MON forcing_fv_min               =  -1.4940343903523E+00
(PID.TID 0000.0001) %MON forcing_fv_mean              =   4.8396047522314E-04
(PID.TID 0000.0001) %MON forcing_fv_sd                =   1.2038598037760E-01
(PID.TID 0000.0001) %MON forcing_fv_del2              =   1.5903035041912E-04
(PID.TID 0000.0001) %MON trAdv_CFL_u_max              =   2.2916851579662E-02
(PID.TID 0000.0001) %MON trAdv_CFL_v_max              =   2.0001215626776E-02
(PID.TID 0000.0001) %MON trAdv_CFL_w_max              =   1.0317494220311E-01
(PID.TID 0000.0001) %MON advcfl_uvel_max              =   2.3223396392841E-02
(PID.TID 0000.0001) %MON advcfl_vvel_max              =   1.9936764085882E-02
(PID.TID 0000.0001) %MON advcfl_wvel_max              =   9.7675341702202E-02
(PID.TID 0000.0001) %MON advcfl_W_hf_max              =   1.0317494220311E-01
(PID.TID 0000.0001) %MON pe_b_mean                    =   2.7172769652783E-03
(PID.TID 0000.0001) %MON ke_max                       =   2.1158937927321E+00
(PID.TID 0000.0001) %MON ke_mean                      =   1.9656863134469E-03
(PID.TID 0000.0001) %MON ke_vol                       =   1.3350064351420E+18
(PID.TID 0000.0001) %MON vort_r_min                   =  -7.6514612668958E-05
(PID.TID 0000.0001) %MON vort_r_max                   =   8.3086230265833E-05
(PID.TID 0000.0001) %MON vort_a_mean                  =  -1.9725077523948E-05
(PID.TID 0000.0001) %MON vort_a_sd                    =   7.4542256094172E-05
(PID.TID 0000.0001) %MON vort_p_mean                  =  -2.1669082547539E-05
(PID.TID 0000.0001) %MON vort_p_sd                    =   9.3619347041086E-05
(PID.TID 0000.0001) %MON surfExpan_theta_mean         =   1.6782434707928E-05
(PID.TID 0000.0001) %MON surfExpan_salt_mean          =   4.1438596026757E-07
(PID.TID 0000.0001) // =======================================================
(PID.TID 0000.0001) // End MONITOR dynamic field statistics
(PID.TID 0000.0001) // =======================================================
(PID.TID 0000.0001) // =======================================================
(PID.TID 0000.0001) // Begin MONITOR SEAICE statistics
(PID.TID 0000.0001) // =======================================================
(PID.TID 0000.0001) %MON seaice_tsnumber              =                174891
(PID.TID 0000.0001) %MON seaice_time_sec              =   7.8700950000000E+07
(PID.TID 0000.0001) %MON seaice_uice_max              =   1.2380410301873E+00
(PID.TID 0000.0001) %MON seaice_uice_min              =  -1.4987604493793E+00
(PID.TID 0000.0001) %MON seaice_uice_mean             =   1.1323038123746E-02
(PID.TID 0000.0001) %MON seaice_uice_sd               =   1.4948095585738E-01
(PID.TID 0000.0001) %MON seaice_uice_del2             =   3.7598380291476E-04
(PID.TID 0000.0001) %MON seaice_vice_max              =   1.0282866378112E+00
(PID.TID 0000.0001) %MON seaice_vice_min              =  -1.4675008793228E+00
(PID.TID 0000.0001) %MON seaice_vice_mean             =  -1.3269192566463E-02
(PID.TID 0000.0001) %MON seaice_vice_sd               =   1.6086186611133E-01
(PID.TID 0000.0001) %MON seaice_vice_del2             =   3.6059193881574E-04
(PID.TID 0000.0001) %MON seaice_area_max              =   1.0015742140050E+00
(PID.TID 0000.0001) %MON seaice_area_min              =   0.0000000000000E+00
(PID.TID 0000.0001) %MON seaice_area_mean             =   5.7626939651997E-02
(PID.TID 0000.0001) %MON seaice_area_sd               =   2.2077365436955E-01
(PID.TID 0000.0001) %MON seaice_area_del2             =   2.8430356201875E-04
(PID.TID 0000.0001) %MON seaice_heff_max              =   9.9473303584906E+00
(PID.TID 0000.0001) %MON seaice_heff_min              =   0.0000000000000E+00
(PID.TID 0000.0001) %MON seaice_heff_mean             =   1.4931815374835E-01
(PID.TID 0000.0001) %MON seaice_heff_sd               =   7.1937587927043E-01
(PID.TID 0000.0001) %MON seaice_heff_del2             =   1.3259440408881E-03
(PID.TID 0000.0001) %MON seaice_hsnow_max             =   3.2856252805882E+00
(PID.TID 0000.0001) %MON seaice_hsnow_min             =   0.0000000000000E+00
(PID.TID 0000.0001) %MON seaice_hsnow_mean            =   1.2593615550464E-02
(PID.TID 0000.0001) %MON seaice_hsnow_sd              =   6.7514055906840E-02
(PID.TID 0000.0001) %MON seaice_hsnow_del2            =   3.5500655694742E-04
(PID.TID 0000.0001) // =======================================================
(PID.TID 0000.0001) // End MONITOR SEAICE statistics
(PID.TID 0000.0001) // =======================================================
(PID.TID 0000.0001) // =======================================================
(PID.TID 0000.0001) // Begin MONITOR dynamic field statistics
(PID.TID 0000.0001) // =======================================================
(PID.TID 0000.0001) %MON time_tsnumber                =                174892
(PID.TID 0000.0001) %MON time_secondsf                =   7.8701400000000E+07
(PID.TID 0000.0001) %MON dynstat_eta_max              =   2.6957119415022E+00
(PID.TID 0000.0001) %MON dynstat_eta_min              =  -1.0035011181014E+01
(PID.TID 0000.0001) %MON dynstat_eta_mean             =   9.3232648150777E-02
(PID.TID 0000.0001) %MON dynstat_eta_sd               =   9.7078957400194E-01
(PID.TID 0000.0001) %MON dynstat_eta_del2             =   2.0114351094225E-03
(PID.TID 0000.0001) %MON dynstat_uvel_max             =   1.4272898703861E+00
(PID.TID 0000.0001) %MON dynstat_uvel_min             =  -2.2164399148421E+00
(PID.TID 0000.0001) %MON dynstat_uvel_mean            =   7.3491014333905E-03
(PID.TID 0000.0001) %MON dynstat_uvel_sd              =   4.4653193646433E-02
(PID.TID 0000.0001) %MON dynstat_uvel_del2            =   4.3210678372349E-05
(PID.TID 0000.0001) %MON dynstat_vvel_max             =   1.9721308041138E+00
(PID.TID 0000.0001) %MON dynstat_vvel_min             =  -1.8072162563012E+00
(PID.TID 0000.0001) %MON dynstat_vvel_mean            =   3.3022205970269E-03
(PID.TID 0000.0001) %MON dynstat_vvel_sd              =   4.5376002301544E-02
(PID.TID 0000.0001) %MON dynstat_vvel_del2            =   4.1975221745181E-05
(PID.TID 0000.0001) %MON dynstat_wvel_max             =   9.6426911197247E-03
(PID.TID 0000.0001) %MON dynstat_wvel_min             =  -9.6052564576050E-03
(PID.TID 0000.0001) %MON dynstat_wvel_mean            =   3.0939492282787E-07
(PID.TID 0000.0001) %MON dynstat_wvel_sd              =   1.8030504227567E-04
(PID.TID 0000.0001) %MON dynstat_wvel_del2            =   3.7797699902983E-07
(PID.TID 0000.0001) %MON dynstat_theta_max            =   3.2447365166266E+01
(PID.TID 0000.0001) %MON dynstat_theta_min            =  -2.0415638725704E+00
(PID.TID 0000.0001) %MON dynstat_theta_mean           =   3.5917995891829E+00
(PID.TID 0000.0001) %MON dynstat_theta_sd             =   4.4413985823046E+00
(PID.TID 0000.0001) %MON dynstat_theta_del2           =   1.2878258278436E-04
(PID.TID 0000.0001) %MON dynstat_salt_max             =   4.0655989456475E+01
(PID.TID 0000.0001) %MON dynstat_salt_min             =   1.5929383153750E+01
(PID.TID 0000.0001) %MON dynstat_salt_mean            =   3.4724793632261E+01
(PID.TID 0000.0001) %MON dynstat_salt_sd              =   3.7975142475781E-01
(PID.TID 0000.0001) %MON dynstat_salt_del2            =   6.2789454128037E-05
(PID.TID 0000.0001) %MON dynstat_sst_max              =   3.2447365166266E+01
(PID.TID 0000.0001) %MON dynstat_sst_min              =  -2.0415638725704E+00
(PID.TID 0000.0001) %MON dynstat_sst_mean             =   1.8170554080148E+01
(PID.TID 0000.0001) %MON dynstat_sst_sd               =   1.0204531302476E+01
(PID.TID 0000.0001) %MON dynstat_sst_del2             =   1.0993073414962E-03
(PID.TID 0000.0001) %MON dynstat_sss_max              =   3.9463006072466E+01
(PID.TID 0000.0001) %MON dynstat_sss_min              =   1.5929383153750E+01
(PID.TID 0000.0001) %MON dynstat_sss_mean             =   3.4641220914007E+01
(PID.TID 0000.0001) %MON dynstat_sss_sd               =   1.3035384601028E+00
(PID.TID 0000.0001) %MON dynstat_sss_del2             =   1.4650963135899E-03
(PID.TID 0000.0001) %MON forcing_qnet_max             =   1.5794895019531E+03
(PID.TID 0000.0001) %MON forcing_qnet_min             =  -2.3168273925781E+03
(PID.TID 0000.0001) %MON forcing_qnet_mean            =   1.4400228130492E+01
(PID.TID 0000.0001) %MON forcing_qnet_sd              =   2.0274761141253E+02
(PID.TID 0000.0001) %MON forcing_qnet_del2            =   3.7776384037444E-01
(PID.TID 0000.0001) %MON forcing_qsw_max              =   0.0000000000000E+00
(PID.TID 0000.0001) %MON forcing_qsw_min              =  -1.1020481707529E+02
(PID.TID 0000.0001) %MON forcing_qsw_mean             =  -1.7254358382832E+01
(PID.TID 0000.0001) %MON forcing_qsw_sd               =   3.0236832422274E+01
(PID.TID 0000.0001) %MON forcing_qsw_del2             =   2.2303825428329E-02
(PID.TID 0000.0001) %MON forcing_empmr_max            =   1.8507564440370E-02
(PID.TID 0000.0001) %MON forcing_empmr_min            =  -3.6248829215765E-02
(PID.TID 0000.0001) %MON forcing_empmr_mean           =  -2.3012342751275E-06
(PID.TID 0000.0001) %MON forcing_empmr_sd             =   2.9352560399046E-04
(PID.TID 0000.0001) %MON forcing_empmr_del2           =   3.4818244624333E-06
(PID.TID 0000.0001) %MON forcing_fu_max               =   8.9202848076820E-01
(PID.TID 0000.0001) %MON forcing_fu_min               =  -1.3627311854469E+00
(PID.TID 0000.0001) %MON forcing_fu_mean              =   1.0604940012207E-02
(PID.TID 0000.0001) %MON forcing_fu_sd                =   1.2694804979568E-01
(PID.TID 0000.0001) %MON forcing_fu_del2              =   1.7070709050206E-04
(PID.TID 0000.0001) %MON forcing_fv_max               =   1.2279529419878E+00
(PID.TID 0000.0001) %MON forcing_fv_min               =  -1.4592768881342E+00
(PID.TID 0000.0001) %MON forcing_fv_mean              =   4.9140081491205E-04
(PID.TID 0000.0001) %MON forcing_fv_sd                =   1.2050583041843E-01
(PID.TID 0000.0001) %MON forcing_fv_del2              =   1.5926609977086E-04
(PID.TID 0000.0001) %MON trAdv_CFL_u_max              =   2.2861821770371E-02
(PID.TID 0000.0001) %MON trAdv_CFL_v_max              =   2.0075553842479E-02
(PID.TID 0000.0001) %MON trAdv_CFL_w_max              =   1.0346891932285E-01
(PID.TID 0000.0001) %MON advcfl_uvel_max              =   2.3167630483194E-02
(PID.TID 0000.0001) %MON advcfl_vvel_max              =   2.0010862755517E-02
(PID.TID 0000.0001) %MON advcfl_wvel_max              =   9.7950464666691E-02
(PID.TID 0000.0001) %MON advcfl_W_hf_max              =   1.0346891932285E-01
(PID.TID 0000.0001) %MON pe_b_mean                    =   2.7204970775549E-03
(PID.TID 0000.0001) %MON ke_max                       =   2.1223486591442E+00
(PID.TID 0000.0001) %MON ke_mean                      =   1.9855624070932E-03
(PID.TID 0000.0001) %MON ke_vol                       =   1.3350064351420E+18
(PID.TID 0000.0001) %MON vort_r_min                   =  -7.6234794737024E-05
(PID.TID 0000.0001) %MON vort_r_max                   =   8.2855441271248E-05
(PID.TID 0000.0001) %MON vort_a_mean                  =  -1.9725077470471E-05
(PID.TID 0000.0001) %MON vort_a_sd                    =   7.4542284581666E-05
(PID.TID 0000.0001) %MON vort_p_mean                  =  -2.1669082488792E-05
(PID.TID 0000.0001) %MON vort_p_sd                    =   9.3619392225299E-05
(PID.TID 0000.0001) %MON surfExpan_theta_mean         =   1.7116458204070E-05
(PID.TID 0000.0001) %MON surfExpan_salt_mean          =  -2.4254042773685E-07
(PID.TID 0000.0001) // =======================================================
(PID.TID 0000.0001) // End MONITOR dynamic field statistics
(PID.TID 0000.0001) // =======================================================
(PID.TID 0000.0001) // =======================================================
(PID.TID 0000.0001) // Begin MONITOR SEAICE statistics
(PID.TID 0000.0001) // =======================================================
(PID.TID 0000.0001) %MON seaice_tsnumber              =                174892
(PID.TID 0000.0001) %MON seaice_time_sec              =   7.8701400000000E+07
(PID.TID 0000.0001) %MON seaice_uice_max              =   1.2318905463758E+00
(PID.TID 0000.0001) %MON seaice_uice_min              =  -1.5067741871934E+00
(PID.TID 0000.0001) %MON seaice_uice_mean             =   1.1248120150758E-02
(PID.TID 0000.0001) %MON seaice_uice_sd               =   1.4952255068305E-01
(PID.TID 0000.0001) %MON seaice_uice_del2             =   3.7631936074563E-04
(PID.TID 0000.0001) %MON seaice_vice_max              =   1.0167163012521E+00
(PID.TID 0000.0001) %MON seaice_vice_min              =  -1.4676709184690E+00
(PID.TID 0000.0001) %MON seaice_vice_mean             =  -1.3316749726763E-02
(PID.TID 0000.0001) %MON seaice_vice_sd               =   1.6086229520001E-01
(PID.TID 0000.0001) %MON seaice_vice_del2             =   3.6112511160523E-04
(PID.TID 0000.0001) %MON seaice_area_max              =   1.0015324366838E+00
(PID.TID 0000.0001) %MON seaice_area_min              =   0.0000000000000E+00
(PID.TID 0000.0001) %MON seaice_area_mean             =   5.7629560408821E-02
(PID.TID 0000.0001) %MON seaice_area_sd               =   2.2077195383008E-01
(PID.TID 0000.0001) %MON seaice_area_del2             =   2.8420491848352E-04
(PID.TID 0000.0001) %MON seaice_heff_max              =   9.9473227429246E+00
(PID.TID 0000.0001) %MON seaice_heff_min              =   0.0000000000000E+00
(PID.TID 0000.0001) %MON seaice_heff_mean             =   1.4931464996301E-01
(PID.TID 0000.0001) %MON seaice_heff_sd               =   7.1936482636494E-01
(PID.TID 0000.0001) %MON seaice_heff_del2             =   1.3253548857687E-03
(PID.TID 0000.0001) %MON seaice_hsnow_max             =   3.2856228301111E+00
(PID.TID 0000.0001) %MON seaice_hsnow_min             =   0.0000000000000E+00
(PID.TID 0000.0001) %MON seaice_hsnow_mean            =   1.2592867235848E-02
(PID.TID 0000.0001) %MON seaice_hsnow_sd              =   6.7503192390864E-02
(PID.TID 0000.0001) %MON seaice_hsnow_del2            =   3.5470316079787E-04
(PID.TID 0000.0001) // =======================================================
(PID.TID 0000.0001) // End MONITOR SEAICE statistics
(PID.TID 0000.0001) // =======================================================
(PID.TID 0000.0001) // =======================================================
(PID.TID 0000.0001) // Begin MONITOR dynamic field statistics
(PID.TID 0000.0001) // =======================================================
(PID.TID 0000.0001) %MON time_tsnumber                =                174893
(PID.TID 0000.0001) %MON time_secondsf                =   7.8701850000000E+07
(PID.TID 0000.0001) %MON dynstat_eta_max              =   2.6441353966615E+00
(PID.TID 0000.0001) %MON dynstat_eta_min              =  -1.0015412075813E+01
(PID.TID 0000.0001) %MON dynstat_eta_mean             =   9.3206307212841E-02
(PID.TID 0000.0001) %MON dynstat_eta_sd               =   9.7269893553305E-01
(PID.TID 0000.0001) %MON dynstat_eta_del2             =   2.0115375597584E-03
(PID.TID 0000.0001) %MON dynstat_uvel_max             =   1.4149199124598E+00
(PID.TID 0000.0001) %MON dynstat_uvel_min             =  -2.2135634839217E+00
(PID.TID 0000.0001) %MON dynstat_uvel_mean            =   7.3077637543191E-03
(PID.TID 0000.0001) %MON dynstat_uvel_sd              =   4.4880541619487E-02
(PID.TID 0000.0001) %MON dynstat_uvel_del2            =   4.3321809589768E-05
(PID.TID 0000.0001) %MON dynstat_vvel_max             =   1.9789807608264E+00
(PID.TID 0000.0001) %MON dynstat_vvel_min             =  -1.8027031298575E+00
(PID.TID 0000.0001) %MON dynstat_vvel_mean            =   3.2664004339192E-03
(PID.TID 0000.0001) %MON dynstat_vvel_sd              =   4.5619441872290E-02
(PID.TID 0000.0001) %MON dynstat_vvel_del2            =   4.2090140589038E-05
(PID.TID 0000.0001) %MON dynstat_wvel_max             =   9.6697753944664E-03
(PID.TID 0000.0001) %MON dynstat_wvel_min             =  -9.6503813210312E-03
(PID.TID 0000.0001) %MON dynstat_wvel_mean            =   2.9836754523098E-07
(PID.TID 0000.0001) %MON dynstat_wvel_sd              =   1.8107195436138E-04
(PID.TID 0000.0001) %MON dynstat_wvel_del2            =   3.7922048827968E-07
(PID.TID 0000.0001) %MON dynstat_theta_max            =   3.2446767691455E+01
(PID.TID 0000.0001) %MON dynstat_theta_min            =  -2.0413768176629E+00
(PID.TID 0000.0001) %MON dynstat_theta_mean           =   3.5917971323255E+00
(PID.TID 0000.0001) %MON dynstat_theta_sd             =   4.4413921680754E+00
(PID.TID 0000.0001) %MON dynstat_theta_del2           =   1.2883746035516E-04
(PID.TID 0000.0001) %MON dynstat_salt_max             =   4.0655989443018E+01
(PID.TID 0000.0001) %MON dynstat_salt_min             =   1.5928500696061E+01
(PID.TID 0000.0001) %MON dynstat_salt_mean            =   3.4724793432143E+01
(PID.TID 0000.0001) %MON dynstat_salt_sd              =   3.7975220330568E-01
(PID.TID 0000.0001) %MON dynstat_salt_del2            =   6.2760600989769E-05
(PID.TID 0000.0001) %MON dynstat_sst_max              =   3.2446767691455E+01
(PID.TID 0000.0001) %MON dynstat_sst_min              =  -2.0413768176629E+00
(PID.TID 0000.0001) %MON dynstat_sst_mean             =   1.8170581954493E+01
(PID.TID 0000.0001) %MON dynstat_sst_sd               =   1.0204685634898E+01
(PID.TID 0000.0001) %MON dynstat_sst_del2             =   1.0991573392593E-03
(PID.TID 0000.0001) %MON dynstat_sss_max              =   3.9463029630900E+01
(PID.TID 0000.0001) %MON dynstat_sss_min              =   1.5928500696061E+01
(PID.TID 0000.0001) %MON dynstat_sss_mean             =   3.4641199863873E+01
(PID.TID 0000.0001) %MON dynstat_sss_sd               =   1.3035780749424E+00
(PID.TID 0000.0001) %MON dynstat_sss_del2             =   1.4650995938337E-03
(PID.TID 0000.0001) %MON forcing_qnet_max             =   1.1202377929688E+03
(PID.TID 0000.0001) %MON forcing_qnet_min             =  -2.0177958984375E+03
(PID.TID 0000.0001) %MON forcing_qnet_mean            =   1.1996995016939E+01
(PID.TID 0000.0001) %MON forcing_qnet_sd              =   2.0387888352175E+02
(PID.TID 0000.0001) %MON forcing_qnet_del2            =   3.8392951457817E-01
(PID.TID 0000.0001) %MON forcing_qsw_max              =   0.0000000000000E+00
(PID.TID 0000.0001) %MON forcing_qsw_min              =  -1.1033277761049E+02
(PID.TID 0000.0001) %MON forcing_qsw_mean             =  -1.7592862594398E+01
(PID.TID 0000.0001) %MON forcing_qsw_sd               =   3.0441253874321E+01
(PID.TID 0000.0001) %MON forcing_qsw_del2             =   2.2408636938044E-02
(PID.TID 0000.0001) %MON forcing_empmr_max            =   1.8779568374157E-02
(PID.TID 0000.0001) %MON forcing_empmr_min            =  -3.7552636116743E-02
(PID.TID 0000.0001) %MON forcing_empmr_mean           =  -2.2782332017780E-06
(PID.TID 0000.0001) %MON forcing_empmr_sd             =   2.9179686526014E-04
(PID.TID 0000.0001) %MON forcing_empmr_del2           =   3.4684069022182E-06
(PID.TID 0000.0001) %MON forcing_fu_max               =   8.9122590422630E-01
(PID.TID 0000.0001) %MON forcing_fu_min               =  -1.3583691057429E+00
(PID.TID 0000.0001) %MON forcing_fu_mean              =   1.0607682110597E-02
(PID.TID 0000.0001) %MON forcing_fu_sd                =   1.2691496464497E-01
(PID.TID 0000.0001) %MON forcing_fu_del2              =   1.7042659095660E-04
(PID.TID 0000.0001) %MON forcing_fv_max               =   1.2233750692911E+00
(PID.TID 0000.0001) %MON forcing_fv_min               =  -1.4223344174829E+00
(PID.TID 0000.0001) %MON forcing_fv_mean              =   5.0467281698336E-04
(PID.TID 0000.0001) %MON forcing_fv_sd                =   1.2063371061734E-01
(PID.TID 0000.0001) %MON forcing_fv_del2              =   1.5943713369210E-04
(PID.TID 0000.0001) %MON trAdv_CFL_u_max              =   2.2807840330466E-02
(PID.TID 0000.0001) %MON trAdv_CFL_v_max              =   2.0145283839351E-02
(PID.TID 0000.0001) %MON trAdv_CFL_w_max              =   1.0374439910948E-01
(PID.TID 0000.0001) %MON advcfl_uvel_max              =   2.3112926966334E-02
(PID.TID 0000.0001) %MON advcfl_vvel_max              =   2.0080368055760E-02
(PID.TID 0000.0001) %MON advcfl_wvel_max              =   9.8207718800903E-02
(PID.TID 0000.0001) %MON advcfl_W_hf_max              =   1.0374439910948E-01
(PID.TID 0000.0001) %MON pe_b_mean                    =   2.7235049131101E-03
(PID.TID 0000.0001) %MON ke_max                       =   2.1285041202408E+00
(PID.TID 0000.0001) %MON ke_mean                      =   2.0056534133837E-03
(PID.TID 0000.0001) %MON ke_vol                       =   1.3350064351420E+18
(PID.TID 0000.0001) %MON vort_r_min                   =  -7.5958506357954E-05
(PID.TID 0000.0001) %MON vort_r_max                   =   8.2629126133239E-05
(PID.TID 0000.0001) %MON vort_a_mean                  =  -1.9725077424781E-05
(PID.TID 0000.0001) %MON vort_a_sd                    =   7.4542313457503E-05
(PID.TID 0000.0001) %MON vort_p_mean                  =  -2.1669082438599E-05
(PID.TID 0000.0001) %MON vort_p_sd                    =   9.3619436961636E-05
(PID.TID 0000.0001) %MON surfExpan_theta_mean         =   1.7422516742845E-05
(PID.TID 0000.0001) %MON surfExpan_salt_mean          =  -9.4518543117302E-07
(PID.TID 0000.0001) // =======================================================
(PID.TID 0000.0001) // End MONITOR dynamic field statistics
(PID.TID 0000.0001) // =======================================================
(PID.TID 0000.0001) // =======================================================
(PID.TID 0000.0001) // Begin MONITOR SEAICE statistics
(PID.TID 0000.0001) // =======================================================
(PID.TID 0000.0001) %MON seaice_tsnumber              =                174893
(PID.TID 0000.0001) %MON seaice_time_sec              =   7.8701850000000E+07
(PID.TID 0000.0001) %MON seaice_uice_max              =   1.2256629082077E+00
(PID.TID 0000.0001) %MON seaice_uice_min              =  -1.5139546643460E+00
(PID.TID 0000.0001) %MON seaice_uice_mean             =   1.1173157684660E-02
(PID.TID 0000.0001) %MON seaice_uice_sd               =   1.4956534096249E-01
(PID.TID 0000.0001) %MON seaice_uice_del2             =   3.7663213846504E-04
(PID.TID 0000.0001) %MON seaice_vice_max              =   1.0046747110555E+00
(PID.TID 0000.0001) %MON seaice_vice_min              =  -1.4678610404628E+00
(PID.TID 0000.0001) %MON seaice_vice_mean             =  -1.3374245764339E-02
(PID.TID 0000.0001) %MON seaice_vice_sd               =   1.6086484032346E-01
(PID.TID 0000.0001) %MON seaice_vice_del2             =   3.6172517707098E-04
(PID.TID 0000.0001) %MON seaice_area_max              =   1.0014956050131E+00
(PID.TID 0000.0001) %MON seaice_area_min              =   0.0000000000000E+00
(PID.TID 0000.0001) %MON seaice_area_mean             =   5.7632210232253E-02
(PID.TID 0000.0001) %MON seaice_area_sd               =   2.2077033759431E-01
(PID.TID 0000.0001) %MON seaice_area_del2             =   2.8410652608432E-04
(PID.TID 0000.0001) %MON seaice_heff_max              =   9.9473151271983E+00
(PID.TID 0000.0001) %MON seaice_heff_min              =   0.0000000000000E+00
(PID.TID 0000.0001) %MON seaice_heff_mean             =   1.4931115127976E-01
(PID.TID 0000.0001) %MON seaice_heff_sd               =   7.1935372289929E-01
(PID.TID 0000.0001) %MON seaice_heff_del2             =   1.3247663480022E-03
(PID.TID 0000.0001) %MON seaice_hsnow_max             =   3.2856203801948E+00
(PID.TID 0000.0001) %MON seaice_hsnow_min             =   0.0000000000000E+00
(PID.TID 0000.0001) %MON seaice_hsnow_mean            =   1.2592123587739E-02
(PID.TID 0000.0001) %MON seaice_hsnow_sd              =   6.7492352083965E-02
(PID.TID 0000.0001) %MON seaice_hsnow_del2            =   3.5440071707896E-04
(PID.TID 0000.0001) // =======================================================
(PID.TID 0000.0001) // End MONITOR SEAICE statistics
(PID.TID 0000.0001) // =======================================================
(PID.TID 0000.0001) // =======================================================
(PID.TID 0000.0001) // Begin MONITOR dynamic field statistics
(PID.TID 0000.0001) // =======================================================
(PID.TID 0000.0001) %MON time_tsnumber                =                174894
(PID.TID 0000.0001) %MON time_secondsf                =   7.8702300000000E+07
(PID.TID 0000.0001) %MON dynstat_eta_max              =   2.5869259356600E+00
(PID.TID 0000.0001) %MON dynstat_eta_min              =  -9.9960452179378E+00
(PID.TID 0000.0001) %MON dynstat_eta_mean             =   9.3168299481004E-02
(PID.TID 0000.0001) %MON dynstat_eta_sd               =   9.7463627713886E-01
(PID.TID 0000.0001) %MON dynstat_eta_del2             =   2.0116471496594E-03
(PID.TID 0000.0001) %MON dynstat_uvel_max             =   1.4133696140566E+00
(PID.TID 0000.0001) %MON dynstat_uvel_min             =  -2.2202069349909E+00
(PID.TID 0000.0001) %MON dynstat_uvel_mean            =   7.2657222872793E-03
(PID.TID 0000.0001) %MON dynstat_uvel_sd              =   4.5108706458200E-02
(PID.TID 0000.0001) %MON dynstat_uvel_del2            =   4.3433730550806E-05
(PID.TID 0000.0001) %MON dynstat_vvel_max             =   1.9853632835972E+00
(PID.TID 0000.0001) %MON dynstat_vvel_min             =  -1.7984240427889E+00
(PID.TID 0000.0001) %MON dynstat_vvel_mean            =   3.2291911060805E-03
(PID.TID 0000.0001) %MON dynstat_vvel_sd              =   4.5864727553850E-02
(PID.TID 0000.0001) %MON dynstat_vvel_del2            =   4.2205594196453E-05
(PID.TID 0000.0001) %MON dynstat_wvel_max             =   9.6969139814486E-03
(PID.TID 0000.0001) %MON dynstat_wvel_min             =  -9.6941537746574E-03
(PID.TID 0000.0001) %MON dynstat_wvel_mean            =   2.8642695924711E-07
(PID.TID 0000.0001) %MON dynstat_wvel_sd              =   1.8183884214152E-04
(PID.TID 0000.0001) %MON dynstat_wvel_del2            =   3.8045847024432E-07
(PID.TID 0000.0001) %MON dynstat_theta_max            =   3.2445973524112E+01
(PID.TID 0000.0001) %MON dynstat_theta_min            =  -2.0411946705533E+00
(PID.TID 0000.0001) %MON dynstat_theta_mean           =   3.5917946602462E+00
(PID.TID 0000.0001) %MON dynstat_theta_sd             =   4.4413858405860E+00
(PID.TID 0000.0001) %MON dynstat_theta_del2           =   1.2889256400830E-04
(PID.TID 0000.0001) %MON dynstat_salt_max             =   4.0655989429534E+01
(PID.TID 0000.0001) %MON dynstat_salt_min             =   1.5927616706164E+01
(PID.TID 0000.0001) %MON dynstat_salt_mean            =   3.4724793213800E+01
(PID.TID 0000.0001) %MON dynstat_salt_sd              =   3.7975300564716E-01
(PID.TID 0000.0001) %MON dynstat_salt_del2            =   6.2731666122262E-05
(PID.TID 0000.0001) %MON dynstat_sst_max              =   3.2445973524112E+01
(PID.TID 0000.0001) %MON dynstat_sst_min              =  -2.0411946705533E+00
(PID.TID 0000.0001) %MON dynstat_sst_mean             =   1.8170617677317E+01
(PID.TID 0000.0001) %MON dynstat_sst_sd               =   1.0204844839418E+01
(PID.TID 0000.0001) %MON dynstat_sst_del2             =   1.0990241935047E-03
(PID.TID 0000.0001) %MON dynstat_sss_max              =   3.9463053742122E+01
(PID.TID 0000.0001) %MON dynstat_sss_min              =   1.5927616706164E+01
(PID.TID 0000.0001) %MON dynstat_sss_mean             =   3.4641178265658E+01
(PID.TID 0000.0001) %MON dynstat_sss_sd               =   1.3036176613672E+00
(PID.TID 0000.0001) %MON dynstat_sss_del2             =   1.4650827124891E-03
(PID.TID 0000.0001) %MON forcing_qnet_max             =   2.2614140625000E+03
(PID.TID 0000.0001) %MON forcing_qnet_min             =  -1.7416485595703E+03
(PID.TID 0000.0001) %MON forcing_qnet_mean            =   1.1415299873383E+01
(PID.TID 0000.0001) %MON forcing_qnet_sd              =   2.0423179358630E+02
(PID.TID 0000.0001) %MON forcing_qnet_del2            =   3.8397976363020E-01
(PID.TID 0000.0001) %MON forcing_qsw_max              =   0.0000000000000E+00
(PID.TID 0000.0001) %MON forcing_qsw_min              =  -1.1056136954123E+02
(PID.TID 0000.0001) %MON forcing_qsw_mean             =  -1.7700487284732E+01
(PID.TID 0000.0001) %MON forcing_qsw_sd               =   3.0473941662240E+01
(PID.TID 0000.0001) %MON forcing_qsw_del2             =   2.2483394629668E-02
(PID.TID 0000.0001) %MON forcing_empmr_max            =   1.9324544817209E-02
(PID.TID 0000.0001) %MON forcing_empmr_min            =  -3.6007184535265E-02
(PID.TID 0000.0001) %MON forcing_empmr_mean           =  -2.5431599480107E-06
(PID.TID 0000.0001) %MON forcing_empmr_sd             =   2.8709595207051E-04
(PID.TID 0000.0001) %MON forcing_empmr_del2           =   3.4370992116949E-06
(PID.TID 0000.0001) %MON forcing_fu_max               =   8.8965690135956E-01
(PID.TID 0000.0001) %MON forcing_fu_min               =  -1.3557437194834E+00
(PID.TID 0000.0001) %MON forcing_fu_mean              =   1.0598997995133E-02
(PID.TID 0000.0001) %MON forcing_fu_sd                =   1.2687956839787E-01
(PID.TID 0000.0001) %MON forcing_fu_del2              =   1.7019677354549E-04
(PID.TID 0000.0001) %MON forcing_fv_max               =   1.2191304359253E+00
(PID.TID 0000.0001) %MON forcing_fv_min               =  -1.3833384331276E+00
(PID.TID 0000.0001) %MON forcing_fv_mean              =   5.2093820775479E-04
(PID.TID 0000.0001) %MON forcing_fv_sd                =   1.2073878863296E-01
(PID.TID 0000.0001) %MON forcing_fv_del2              =   1.5963167060212E-04
(PID.TID 0000.0001) %MON trAdv_CFL_u_max              =   2.2754948279669E-02
(PID.TID 0000.0001) %MON trAdv_CFL_v_max              =   2.0210255533556E-02
(PID.TID 0000.0001) %MON trAdv_CFL_w_max              =   1.0399932337265E-01
(PID.TID 0000.0001) %MON advcfl_uvel_max              =   2.3059327410678E-02
(PID.TID 0000.0001) %MON advcfl_vvel_max              =   2.0145130386400E-02
(PID.TID 0000.0001) %MON advcfl_wvel_max              =   9.8445002816027E-02
(PID.TID 0000.0001) %MON advcfl_W_hf_max              =   1.0399932337265E-01
(PID.TID 0000.0001) %MON pe_b_mean                    =   2.7262804885557E-03
(PID.TID 0000.0001) %MON ke_max                       =   2.1343556321722E+00
(PID.TID 0000.0001) %MON ke_mean                      =   2.0259622398238E-03
(PID.TID 0000.0001) %MON ke_vol                       =   1.3350064351420E+18
(PID.TID 0000.0001) %MON vort_r_min                   =  -7.5686022840681E-05
(PID.TID 0000.0001) %MON vort_r_max                   =   8.2407620330292E-05
(PID.TID 0000.0001) %MON vort_a_mean                  =  -1.9725077386332E-05
(PID.TID 0000.0001) %MON vort_a_sd                    =   7.4542342757474E-05
(PID.TID 0000.0001) %MON vort_p_mean                  =  -2.1669082396359E-05
(PID.TID 0000.0001) %MON vort_p_sd                    =   9.3619481241969E-05
(PID.TID 0000.0001) %MON surfExpan_theta_mean         =   1.7694089210256E-05
(PID.TID 0000.0001) %MON surfExpan_salt_mean          =  -1.7089545033812E-06
(PID.TID 0000.0001) // =======================================================
(PID.TID 0000.0001) // End MONITOR dynamic field statistics
(PID.TID 0000.0001) // =======================================================
(PID.TID 0000.0001) // =======================================================
(PID.TID 0000.0001) // Begin MONITOR SEAICE statistics
(PID.TID 0000.0001) // =======================================================
(PID.TID 0000.0001) %MON seaice_tsnumber              =                174894
(PID.TID 0000.0001) %MON seaice_time_sec              =   7.8702300000000E+07
(PID.TID 0000.0001) %MON seaice_uice_max              =   1.2193812035378E+00
(PID.TID 0000.0001) %MON seaice_uice_min              =  -1.5202799409449E+00
(PID.TID 0000.0001) %MON seaice_uice_mean             =   1.1098547067884E-02
(PID.TID 0000.0001) %MON seaice_uice_sd               =   1.4960729260581E-01
(PID.TID 0000.0001) %MON seaice_uice_del2             =   3.7691081790235E-04
(PID.TID 0000.0001) %MON seaice_vice_max              =   9.9225132900628E-01
(PID.TID 0000.0001) %MON seaice_vice_min              =  -1.4680798203028E+00
(PID.TID 0000.0001) %MON seaice_vice_mean             =  -1.3447590713733E-02
(PID.TID 0000.0001) %MON seaice_vice_sd               =   1.6087671956106E-01
(PID.TID 0000.0001) %MON seaice_vice_del2             =   3.6231989278897E-04
(PID.TID 0000.0001) %MON seaice_area_max              =   1.0014593262142E+00
(PID.TID 0000.0001) %MON seaice_area_min              =   0.0000000000000E+00
(PID.TID 0000.0001) %MON seaice_area_mean             =   5.7634883692007E-02
(PID.TID 0000.0001) %MON seaice_area_sd               =   2.2076884150493E-01
(PID.TID 0000.0001) %MON seaice_area_del2             =   2.8400897107394E-04
(PID.TID 0000.0001) %MON seaice_heff_max              =   9.9473075121238E+00
(PID.TID 0000.0001) %MON seaice_heff_min              =   0.0000000000000E+00
(PID.TID 0000.0001) %MON seaice_heff_mean             =   1.4930765178839E-01
(PID.TID 0000.0001) %MON seaice_heff_sd               =   7.1934256896685E-01
(PID.TID 0000.0001) %MON seaice_heff_del2             =   1.3241790574718E-03
(PID.TID 0000.0001) %MON seaice_hsnow_max             =   3.2856174494487E+00
(PID.TID 0000.0001) %MON seaice_hsnow_min             =   0.0000000000000E+00
(PID.TID 0000.0001) %MON seaice_hsnow_mean            =   1.2591390852900E-02
(PID.TID 0000.0001) %MON seaice_hsnow_sd              =   6.7481491510736E-02
(PID.TID 0000.0001) %MON seaice_hsnow_del2            =   3.5409852949507E-04
(PID.TID 0000.0001) // =======================================================
(PID.TID 0000.0001) // End MONITOR SEAICE statistics
(PID.TID 0000.0001) // =======================================================
(PID.TID 0000.0001) // =======================================================
(PID.TID 0000.0001) // Begin MONITOR dynamic field statistics
(PID.TID 0000.0001) // =======================================================
(PID.TID 0000.0001) %MON time_tsnumber                =                174895
(PID.TID 0000.0001) %MON time_secondsf                =   7.8702750000000E+07
(PID.TID 0000.0001) %MON dynstat_eta_max              =   2.5668652690363E+00
(PID.TID 0000.0001) %MON dynstat_eta_min              =  -9.9770300563501E+00
(PID.TID 0000.0001) %MON dynstat_eta_mean             =   9.3117605197877E-02
(PID.TID 0000.0001) %MON dynstat_eta_sd               =   9.7660070211466E-01
(PID.TID 0000.0001) %MON dynstat_eta_del2             =   2.0117590442724E-03
(PID.TID 0000.0001) %MON dynstat_uvel_max             =   1.4118330327819E+00
(PID.TID 0000.0001) %MON dynstat_uvel_min             =  -2.2266663613167E+00
(PID.TID 0000.0001) %MON dynstat_uvel_mean            =   7.2232095000463E-03
(PID.TID 0000.0001) %MON dynstat_uvel_sd              =   4.5337619426013E-02
(PID.TID 0000.0001) %MON dynstat_uvel_del2            =   4.3546493831032E-05
(PID.TID 0000.0001) %MON dynstat_vvel_max             =   1.9912641050841E+00
(PID.TID 0000.0001) %MON dynstat_vvel_min             =  -1.7943703171197E+00
(PID.TID 0000.0001) %MON dynstat_vvel_mean            =   3.1906243169903E-03
(PID.TID 0000.0001) %MON dynstat_vvel_sd              =   4.6111916642822E-02
(PID.TID 0000.0001) %MON dynstat_vvel_del2            =   4.2321639866658E-05
(PID.TID 0000.0001) %MON dynstat_wvel_max             =   9.7435910317736E-03
(PID.TID 0000.0001) %MON dynstat_wvel_min             =  -9.7366114569095E-03
(PID.TID 0000.0001) %MON dynstat_wvel_mean            =   2.7333682526633E-07
(PID.TID 0000.0001) %MON dynstat_wvel_sd              =   1.8260556540384E-04
(PID.TID 0000.0001) %MON dynstat_wvel_del2            =   3.8169110898074E-07
(PID.TID 0000.0001) %MON dynstat_theta_max            =   3.2444992336697E+01
(PID.TID 0000.0001) %MON dynstat_theta_min            =  -2.0410172241123E+00
(PID.TID 0000.0001) %MON dynstat_theta_mean           =   3.5917921818504E+00
(PID.TID 0000.0001) %MON dynstat_theta_sd             =   4.4413796325609E+00
(PID.TID 0000.0001) %MON dynstat_theta_del2           =   1.2894801891569E-04
(PID.TID 0000.0001) %MON dynstat_salt_max             =   4.0655989416113E+01
(PID.TID 0000.0001) %MON dynstat_salt_min             =   1.5926732791180E+01
(PID.TID 0000.0001) %MON dynstat_salt_mean            =   3.4724792980252E+01
(PID.TID 0000.0001) %MON dynstat_salt_sd              =   3.7975382924685E-01
(PID.TID 0000.0001) %MON dynstat_salt_del2            =   6.2703294500949E-05
(PID.TID 0000.0001) %MON dynstat_sst_max              =   3.2444992336697E+01
(PID.TID 0000.0001) %MON dynstat_sst_min              =  -2.0410172241123E+00
(PID.TID 0000.0001) %MON dynstat_sst_mean             =   1.8170660559348E+01
(PID.TID 0000.0001) %MON dynstat_sst_sd               =   1.0205008802520E+01
(PID.TID 0000.0001) %MON dynstat_sst_del2             =   1.0988896112300E-03
(PID.TID 0000.0001) %MON dynstat_sss_max              =   3.9463077681334E+01
(PID.TID 0000.0001) %MON dynstat_sss_min              =   1.5926732791180E+01
(PID.TID 0000.0001) %MON dynstat_sss_mean             =   3.4641157311591E+01
(PID.TID 0000.0001) %MON dynstat_sss_sd               =   1.3036570023353E+00
(PID.TID 0000.0001) %MON dynstat_sss_del2             =   1.4650953054280E-03
(PID.TID 0000.0001) %MON forcing_qnet_max             =   1.3940043945312E+03
(PID.TID 0000.0001) %MON forcing_qnet_min             =  -1.5015363769531E+03
(PID.TID 0000.0001) %MON forcing_qnet_mean            =   1.0736143004063E+01
(PID.TID 0000.0001) %MON forcing_qnet_sd              =   2.0415944616640E+02
(PID.TID 0000.0001) %MON forcing_qnet_del2            =   3.8396458258242E-01
(PID.TID 0000.0001) %MON forcing_qsw_max              =   0.0000000000000E+00
(PID.TID 0000.0001) %MON forcing_qsw_min              =  -1.1067175343635E+02
(PID.TID 0000.0001) %MON forcing_qsw_mean             =  -1.7800726512682E+01
(PID.TID 0000.0001) %MON forcing_qsw_sd               =   3.0487697940570E+01
(PID.TID 0000.0001) %MON forcing_qsw_del2             =   2.2548959589283E-02
(PID.TID 0000.0001) %MON forcing_empmr_max            =   1.9922146573663E-02
(PID.TID 0000.0001) %MON forcing_empmr_min            =  -3.6214876919985E-02
(PID.TID 0000.0001) %MON forcing_empmr_mean           =  -2.6318512730353E-06
(PID.TID 0000.0001) %MON forcing_empmr_sd             =   2.8959560470894E-04
(PID.TID 0000.0001) %MON forcing_empmr_del2           =   3.5355443704391E-06
(PID.TID 0000.0001) %MON forcing_fu_max               =   8.8877448439598E-01
(PID.TID 0000.0001) %MON forcing_fu_min               =  -1.3523631664879E+00
(PID.TID 0000.0001) %MON forcing_fu_mean              =   1.0607565086957E-02
(PID.TID 0000.0001) %MON forcing_fu_sd                =   1.2687165780681E-01
(PID.TID 0000.0001) %MON forcing_fu_del2              =   1.7008679913415E-04
(PID.TID 0000.0001) %MON forcing_fv_max               =   1.2159154112011E+00
(PID.TID 0000.0001) %MON forcing_fv_min               =  -1.3422483482255E+00
(PID.TID 0000.0001) %MON forcing_fv_mean              =   5.3311589557800E-04
(PID.TID 0000.0001) %MON forcing_fv_sd                =   1.2087139907087E-01
(PID.TID 0000.0001) %MON forcing_fv_del2              =   1.5995764579387E-04
(PID.TID 0000.0001) %MON trAdv_CFL_u_max              =   2.2703164100600E-02
(PID.TID 0000.0001) %MON trAdv_CFL_v_max              =   2.0270323688887E-02
(PID.TID 0000.0001) %MON trAdv_CFL_w_max              =   1.0423075819859E-01
(PID.TID 0000.0001) %MON advcfl_uvel_max              =   2.3006850546079E-02
(PID.TID 0000.0001) %MON advcfl_vvel_max              =   2.0205004979237E-02
(PID.TID 0000.0001) %MON advcfl_wvel_max              =   9.8659313058346E-02
(PID.TID 0000.0001) %MON advcfl_W_hf_max              =   1.0423075819859E-01
(PID.TID 0000.0001) %MON pe_b_mean                    =   2.7287919534960E-03
(PID.TID 0000.0001) %MON ke_max                       =   2.1399021251761E+00
(PID.TID 0000.0001) %MON ke_mean                      =   2.0464922309455E-03
(PID.TID 0000.0001) %MON ke_vol                       =   1.3350064351420E+18
(PID.TID 0000.0001) %MON vort_r_min                   =  -7.5417647560226E-05
(PID.TID 0000.0001) %MON vort_r_max                   =   8.2191174973106E-05
(PID.TID 0000.0001) %MON vort_a_mean                  =  -1.9725077354577E-05
(PID.TID 0000.0001) %MON vort_a_sd                    =   7.4542372514787E-05
(PID.TID 0000.0001) %MON vort_p_mean                  =  -2.1669082361476E-05
(PID.TID 0000.0001) %MON vort_p_sd                    =   9.3619525140399E-05
(PID.TID 0000.0001) %MON surfExpan_theta_mean         =   1.7915021832185E-05
(PID.TID 0000.0001) %MON surfExpan_salt_mean          =  -2.5480119545616E-06
(PID.TID 0000.0001) // =======================================================
(PID.TID 0000.0001) // End MONITOR dynamic field statistics
(PID.TID 0000.0001) // =======================================================
(PID.TID 0000.0001) // =======================================================
(PID.TID 0000.0001) // Begin MONITOR SEAICE statistics
(PID.TID 0000.0001) // =======================================================
(PID.TID 0000.0001) %MON seaice_tsnumber              =                174895
(PID.TID 0000.0001) %MON seaice_time_sec              =   7.8702750000000E+07
(PID.TID 0000.0001) %MON seaice_uice_max              =   1.2130877518408E+00
(PID.TID 0000.0001) %MON seaice_uice_min              =  -1.5257317234410E+00
(PID.TID 0000.0001) %MON seaice_uice_mean             =   1.1016942329732E-02
(PID.TID 0000.0001) %MON seaice_uice_sd               =   1.4965118979452E-01
(PID.TID 0000.0001) %MON seaice_uice_del2             =   3.7721231196586E-04
(PID.TID 0000.0001) %MON seaice_vice_max              =   9.8425020629105E-01
(PID.TID 0000.0001) %MON seaice_vice_min              =  -1.4683508532495E+00
(PID.TID 0000.0001) %MON seaice_vice_mean             =  -1.3531905255413E-02
(PID.TID 0000.0001) %MON seaice_vice_sd               =   1.6089166091583E-01
(PID.TID 0000.0001) %MON seaice_vice_del2             =   3.6291308327858E-04
(PID.TID 0000.0001) %MON seaice_area_max              =   1.0014256307823E+00
(PID.TID 0000.0001) %MON seaice_area_min              =   0.0000000000000E+00
(PID.TID 0000.0001) %MON seaice_area_mean             =   5.7637579718195E-02
(PID.TID 0000.0001) %MON seaice_area_sd               =   2.2076744690033E-01
(PID.TID 0000.0001) %MON seaice_area_del2             =   2.8391361852381E-04
(PID.TID 0000.0001) %MON seaice_heff_max              =   9.9472989432429E+00
(PID.TID 0000.0001) %MON seaice_heff_min              =   0.0000000000000E+00
(PID.TID 0000.0001) %MON seaice_heff_mean             =   1.4930415944861E-01
(PID.TID 0000.0001) %MON seaice_heff_sd               =   7.1933139371869E-01
(PID.TID 0000.0001) %MON seaice_heff_del2             =   1.3235926943570E-03
(PID.TID 0000.0001) %MON seaice_hsnow_max             =   3.2856149936849E+00
(PID.TID 0000.0001) %MON seaice_hsnow_min             =   0.0000000000000E+00
(PID.TID 0000.0001) %MON seaice_hsnow_mean            =   1.2590644994648E-02
(PID.TID 0000.0001) %MON seaice_hsnow_sd              =   6.7470579968054E-02
(PID.TID 0000.0001) %MON seaice_hsnow_del2            =   3.5379740564431E-04
(PID.TID 0000.0001) // =======================================================
(PID.TID 0000.0001) // End MONITOR SEAICE statistics
(PID.TID 0000.0001) // =======================================================
(PID.TID 0000.0001) // =======================================================
(PID.TID 0000.0001) // Begin MONITOR dynamic field statistics
(PID.TID 0000.0001) // =======================================================
(PID.TID 0000.0001) %MON time_tsnumber                =                174896
(PID.TID 0000.0001) %MON time_secondsf                =   7.8703200000000E+07
(PID.TID 0000.0001) %MON dynstat_eta_max              =   2.5388671205270E+00
(PID.TID 0000.0001) %MON dynstat_eta_min              =  -9.9584822184902E+00
(PID.TID 0000.0001) %MON dynstat_eta_mean             =   9.3052873298021E-02
(PID.TID 0000.0001) %MON dynstat_eta_sd               =   9.7859117762576E-01
(PID.TID 0000.0001) %MON dynstat_eta_del2             =   2.0118691018388E-03
(PID.TID 0000.0001) %MON dynstat_uvel_max             =   1.4102895516335E+00
(PID.TID 0000.0001) %MON dynstat_uvel_min             =  -2.2329403997779E+00
(PID.TID 0000.0001) %MON dynstat_uvel_mean            =   7.1804521435571E-03
(PID.TID 0000.0001) %MON dynstat_uvel_sd              =   4.5567225102856E-02
(PID.TID 0000.0001) %MON dynstat_uvel_del2            =   4.3660291288700E-05
(PID.TID 0000.0001) %MON dynstat_vvel_max             =   1.9966699634517E+00
(PID.TID 0000.0001) %MON dynstat_vvel_min             =  -1.7905359003510E+00
(PID.TID 0000.0001) %MON dynstat_vvel_mean            =   3.1507373008957E-03
(PID.TID 0000.0001) %MON dynstat_vvel_sd              =   4.6361023593867E-02
(PID.TID 0000.0001) %MON dynstat_vvel_del2            =   4.2438169259746E-05
(PID.TID 0000.0001) %MON dynstat_wvel_max             =   9.8474190236546E-03
(PID.TID 0000.0001) %MON dynstat_wvel_min             =  -9.7777957475235E-03
(PID.TID 0000.0001) %MON dynstat_wvel_mean            =   2.5876369584895E-07
(PID.TID 0000.0001) %MON dynstat_wvel_sd              =   1.8337158233455E-04
(PID.TID 0000.0001) %MON dynstat_wvel_del2            =   3.8291757080379E-07
(PID.TID 0000.0001) %MON dynstat_theta_max            =   3.2443823288757E+01
(PID.TID 0000.0001) %MON dynstat_theta_min            =  -2.0408442562057E+00
(PID.TID 0000.0001) %MON dynstat_theta_mean           =   3.5917897042157E+00
(PID.TID 0000.0001) %MON dynstat_theta_sd             =   4.4413735604512E+00
(PID.TID 0000.0001) %MON dynstat_theta_del2           =   1.2900460733809E-04
(PID.TID 0000.0001) %MON dynstat_salt_max             =   4.0655989402847E+01
(PID.TID 0000.0001) %MON dynstat_salt_min             =   1.5925871306255E+01
(PID.TID 0000.0001) %MON dynstat_salt_mean            =   3.4724792731410E+01
(PID.TID 0000.0001) %MON dynstat_salt_sd              =   3.7975467115013E-01
(PID.TID 0000.0001) %MON dynstat_salt_del2            =   6.2674895700382E-05
(PID.TID 0000.0001) %MON dynstat_sst_max              =   3.2443823288757E+01
(PID.TID 0000.0001) %MON dynstat_sst_min              =  -2.0408442562057E+00
(PID.TID 0000.0001) %MON dynstat_sst_mean             =   1.8170710702031E+01
(PID.TID 0000.0001) %MON dynstat_sst_sd               =   1.0205178405427E+01
(PID.TID 0000.0001) %MON dynstat_sst_del2             =   1.0988024015309E-03
(PID.TID 0000.0001) %MON dynstat_sss_max              =   3.9463101896881E+01
(PID.TID 0000.0001) %MON dynstat_sss_min              =   1.5925871306255E+01
(PID.TID 0000.0001) %MON dynstat_sss_mean             =   3.4641136602226E+01
(PID.TID 0000.0001) %MON dynstat_sss_sd               =   1.3036962775142E+00
(PID.TID 0000.0001) %MON dynstat_sss_del2             =   1.4651031175107E-03
(PID.TID 0000.0001) %MON forcing_qnet_max             =   8.3244763166308E+02
(PID.TID 0000.0001) %MON forcing_qnet_min             =  -1.3566727294922E+03
(PID.TID 0000.0001) %MON forcing_qnet_mean            =   1.0103273794177E+01
(PID.TID 0000.0001) %MON forcing_qnet_sd              =   2.0409716911845E+02
(PID.TID 0000.0001) %MON forcing_qnet_del2            =   3.6237540991912E-01
(PID.TID 0000.0001) %MON forcing_qsw_max              =   0.0000000000000E+00
(PID.TID 0000.0001) %MON forcing_qsw_min              =  -1.1066378368008E+02
(PID.TID 0000.0001) %MON forcing_qsw_mean             =  -1.7893423275748E+01
(PID.TID 0000.0001) %MON forcing_qsw_sd               =   3.0482620010492E+01
(PID.TID 0000.0001) %MON forcing_qsw_del2             =   2.2605224565936E-02
(PID.TID 0000.0001) %MON forcing_empmr_max            =   2.0569119602442E-02
(PID.TID 0000.0001) %MON forcing_empmr_min            =  -3.6677170544863E-02
(PID.TID 0000.0001) %MON forcing_empmr_mean           =  -2.5181897783536E-06
(PID.TID 0000.0001) %MON forcing_empmr_sd             =   2.8968010216629E-04
(PID.TID 0000.0001) %MON forcing_empmr_del2           =   3.5312193617792E-06
(PID.TID 0000.0001) %MON forcing_fu_max               =   8.8460820913315E-01
(PID.TID 0000.0001) %MON forcing_fu_min               =  -1.3495205233002E+00
(PID.TID 0000.0001) %MON forcing_fu_mean              =   1.0605243421787E-02
(PID.TID 0000.0001) %MON forcing_fu_sd                =   1.2683008002578E-01
(PID.TID 0000.0001) %MON forcing_fu_del2              =   1.6983778229573E-04
(PID.TID 0000.0001) %MON forcing_fv_max               =   1.2114155603878E+00
(PID.TID 0000.0001) %MON forcing_fv_min               =  -1.2990840806492E+00
(PID.TID 0000.0001) %MON forcing_fv_mean              =   5.5114512589165E-04
(PID.TID 0000.0001) %MON forcing_fv_sd                =   1.2099040271919E-01
(PID.TID 0000.0001) %MON forcing_fv_del2              =   1.6014999473296E-04
(PID.TID 0000.0001) %MON trAdv_CFL_u_max              =   2.2652565232644E-02
(PID.TID 0000.0001) %MON trAdv_CFL_v_max              =   2.0325353304822E-02
(PID.TID 0000.0001) %MON trAdv_CFL_w_max              =   1.0443358763363E-01
(PID.TID 0000.0001) %MON advcfl_uvel_max              =   2.2955574847779E-02
(PID.TID 0000.0001) %MON advcfl_vvel_max              =   2.0259857268773E-02
(PID.TID 0000.0001) %MON advcfl_wvel_max              =   9.8845328922334E-02
(PID.TID 0000.0001) %MON advcfl_W_hf_max              =   1.0443358763363E-01
(PID.TID 0000.0001) %MON pe_b_mean                    =   2.7309996396516E-03
(PID.TID 0000.0001) %MON ke_max                       =   2.1451405730085E+00
(PID.TID 0000.0001) %MON ke_mean                      =   2.0672453472598E-03
(PID.TID 0000.0001) %MON ke_vol                       =   1.3350064351420E+18
(PID.TID 0000.0001) %MON vort_r_min                   =  -7.5153950691511E-05
(PID.TID 0000.0001) %MON vort_r_max                   =   8.1980125866861E-05
(PID.TID 0000.0001) %MON vort_a_mean                  =  -1.9725077328962E-05
(PID.TID 0000.0001) %MON vort_a_sd                    =   7.4542402758889E-05
(PID.TID 0000.0001) %MON vort_p_mean                  =  -2.1669082333336E-05
(PID.TID 0000.0001) %MON vort_p_sd                    =   9.3619568998138E-05
(PID.TID 0000.0001) %MON surfExpan_theta_mean         =   1.8072022718440E-05
(PID.TID 0000.0001) %MON surfExpan_salt_mean          =  -3.4874453617758E-06
(PID.TID 0000.0001) // =======================================================
(PID.TID 0000.0001) // End MONITOR dynamic field statistics
(PID.TID 0000.0001) // =======================================================
(PID.TID 0000.0001) // =======================================================
(PID.TID 0000.0001) // Begin MONITOR SEAICE statistics
(PID.TID 0000.0001) // =======================================================
(PID.TID 0000.0001) %MON seaice_tsnumber              =                174896
(PID.TID 0000.0001) %MON seaice_time_sec              =   7.8703200000000E+07
(PID.TID 0000.0001) %MON seaice_uice_max              =   1.2068512396658E+00
(PID.TID 0000.0001) %MON seaice_uice_min              =  -1.5302937672886E+00
(PID.TID 0000.0001) %MON seaice_uice_mean             =   1.0931934367256E-02
(PID.TID 0000.0001) %MON seaice_uice_sd               =   1.4969316229119E-01
(PID.TID 0000.0001) %MON seaice_uice_del2             =   3.7748718683299E-04
(PID.TID 0000.0001) %MON seaice_vice_max              =   9.8365965256038E-01
(PID.TID 0000.0001) %MON seaice_vice_min              =  -1.4686842816250E+00
(PID.TID 0000.0001) %MON seaice_vice_mean             =  -1.3625466281983E-02
(PID.TID 0000.0001) %MON seaice_vice_sd               =   1.6090766830608E-01
(PID.TID 0000.0001) %MON seaice_vice_del2             =   3.6348836401981E-04
(PID.TID 0000.0001) %MON seaice_area_max              =   1.0013948422378E+00
(PID.TID 0000.0001) %MON seaice_area_min              =   0.0000000000000E+00
(PID.TID 0000.0001) %MON seaice_area_mean             =   5.7640245023167E-02
(PID.TID 0000.0001) %MON seaice_area_sd               =   2.2076591797354E-01
(PID.TID 0000.0001) %MON seaice_area_del2             =   2.8381867244589E-04
(PID.TID 0000.0001) %MON seaice_heff_max              =   9.9472913286073E+00
(PID.TID 0000.0001) %MON seaice_heff_min              =   0.0000000000000E+00
(PID.TID 0000.0001) %MON seaice_heff_mean             =   1.4930067900930E-01
(PID.TID 0000.0001) %MON seaice_heff_sd               =   7.1932023404971E-01
(PID.TID 0000.0001) %MON seaice_heff_del2             =   1.3230087627066E-03
(PID.TID 0000.0001) %MON seaice_hsnow_max             =   3.2856125450321E+00
(PID.TID 0000.0001) %MON seaice_hsnow_min             =   0.0000000000000E+00
(PID.TID 0000.0001) %MON seaice_hsnow_mean            =   1.2589898975315E-02
(PID.TID 0000.0001) %MON seaice_hsnow_sd              =   6.7459675506491E-02
(PID.TID 0000.0001) %MON seaice_hsnow_del2            =   3.5349715516244E-04
(PID.TID 0000.0001) // =======================================================
(PID.TID 0000.0001) // End MONITOR SEAICE statistics
(PID.TID 0000.0001) // =======================================================
(PID.TID 0000.0001) // =======================================================
(PID.TID 0000.0001) // Begin MONITOR dynamic field statistics
(PID.TID 0000.0001) // =======================================================
(PID.TID 0000.0001) %MON time_tsnumber                =                174897
(PID.TID 0000.0001) %MON time_secondsf                =   7.8703650000000E+07
(PID.TID 0000.0001) %MON dynstat_eta_max              =   2.5031548648832E+00
(PID.TID 0000.0001) %MON dynstat_eta_min              =  -9.9405019110798E+00
(PID.TID 0000.0001) %MON dynstat_eta_mean             =   9.2973132820395E-02
(PID.TID 0000.0001) %MON dynstat_eta_sd               =   9.8060740998229E-01
(PID.TID 0000.0001) %MON dynstat_eta_del2             =   2.0119760051284E-03
(PID.TID 0000.0001) %MON dynstat_uvel_max             =   1.4087547177219E+00
(PID.TID 0000.0001) %MON dynstat_uvel_min             =  -2.2390276039488E+00
(PID.TID 0000.0001) %MON dynstat_uvel_mean            =   7.1376672902505E-03
(PID.TID 0000.0001) %MON dynstat_uvel_sd              =   4.5797470428858E-02
(PID.TID 0000.0001) %MON dynstat_uvel_del2            =   4.3774841477374E-05
(PID.TID 0000.0001) %MON dynstat_vvel_max             =   2.0015681285296E+00
(PID.TID 0000.0001) %MON dynstat_vvel_min             =  -1.7869140480846E+00
(PID.TID 0000.0001) %MON dynstat_vvel_mean            =   3.1095893248230E-03
(PID.TID 0000.0001) %MON dynstat_vvel_sd              =   4.6612191048769E-02
(PID.TID 0000.0001) %MON dynstat_vvel_del2            =   4.2555589860728E-05
(PID.TID 0000.0001) %MON dynstat_wvel_max             =   9.9506418384928E-03
(PID.TID 0000.0001) %MON dynstat_wvel_min             =  -9.8177774353321E-03
(PID.TID 0000.0001) %MON dynstat_wvel_mean            =   2.4304642038608E-07
(PID.TID 0000.0001) %MON dynstat_wvel_sd              =   1.8413693464898E-04
(PID.TID 0000.0001) %MON dynstat_wvel_del2            =   3.8413800369865E-07
(PID.TID 0000.0001) %MON dynstat_theta_max            =   3.2442472462451E+01
(PID.TID 0000.0001) %MON dynstat_theta_min            =  -2.0406754859998E+00
(PID.TID 0000.0001) %MON dynstat_theta_mean           =   3.5917872320580E+00
(PID.TID 0000.0001) %MON dynstat_theta_sd             =   4.4413676305833E+00
(PID.TID 0000.0001) %MON dynstat_theta_del2           =   1.2906047999282E-04
(PID.TID 0000.0001) %MON dynstat_salt_max             =   4.0655989389828E+01
(PID.TID 0000.0001) %MON dynstat_salt_min             =   1.5925040067499E+01
(PID.TID 0000.0001) %MON dynstat_salt_mean            =   3.4724792467166E+01
(PID.TID 0000.0001) %MON dynstat_salt_sd              =   3.7975553394523E-01
(PID.TID 0000.0001) %MON dynstat_salt_del2            =   6.2646823525968E-05
(PID.TID 0000.0001) %MON dynstat_sst_max              =   3.2442472462451E+01
(PID.TID 0000.0001) %MON dynstat_sst_min              =  -2.0406754859998E+00
(PID.TID 0000.0001) %MON dynstat_sst_mean             =   1.8170768281561E+01
(PID.TID 0000.0001) %MON dynstat_sst_sd               =   1.0205352538706E+01
(PID.TID 0000.0001) %MON dynstat_sst_del2             =   1.0986710361531E-03
(PID.TID 0000.0001) %MON dynstat_sss_max              =   3.9463126837107E+01
(PID.TID 0000.0001) %MON dynstat_sss_min              =   1.5925040067499E+01
(PID.TID 0000.0001) %MON dynstat_sss_mean             =   3.4641115313865E+01
(PID.TID 0000.0001) %MON dynstat_sss_sd               =   1.3037356600052E+00
(PID.TID 0000.0001) %MON dynstat_sss_del2             =   1.4651203684537E-03
(PID.TID 0000.0001) %MON forcing_qnet_max             =   8.3257737790910E+02
(PID.TID 0000.0001) %MON forcing_qnet_min             =  -1.6416688232422E+03
(PID.TID 0000.0001) %MON forcing_qnet_mean            =   9.5095569470339E+00
(PID.TID 0000.0001) %MON forcing_qnet_sd              =   2.0430410293794E+02
(PID.TID 0000.0001) %MON forcing_qnet_del2            =   3.6427835580716E-01
(PID.TID 0000.0001) %MON forcing_qsw_max              =   0.0000000000000E+00
(PID.TID 0000.0001) %MON forcing_qsw_min              =  -1.1053749079058E+02
(PID.TID 0000.0001) %MON forcing_qsw_mean             =  -1.7978074351143E+01
(PID.TID 0000.0001) %MON forcing_qsw_sd               =   3.0459012002140E+01
(PID.TID 0000.0001) %MON forcing_qsw_del2             =   2.2652085502909E-02
(PID.TID 0000.0001) %MON forcing_empmr_max            =   2.1251628175378E-02
(PID.TID 0000.0001) %MON forcing_empmr_min            =  -3.6411169916391E-02
(PID.TID 0000.0001) %MON forcing_empmr_mean           =  -2.5142195106239E-06
(PID.TID 0000.0001) %MON forcing_empmr_sd             =   2.8987886138087E-04
(PID.TID 0000.0001) %MON forcing_empmr_del2           =   3.5612773638031E-06
(PID.TID 0000.0001) %MON forcing_fu_max               =   8.8655987381935E-01
(PID.TID 0000.0001) %MON forcing_fu_min               =  -1.3459103587618E+00
(PID.TID 0000.0001) %MON forcing_fu_mean              =   1.0605595833665E-02
(PID.TID 0000.0001) %MON forcing_fu_sd                =   1.2677974408503E-01
(PID.TID 0000.0001) %MON forcing_fu_del2              =   1.6959729628257E-04
(PID.TID 0000.0001) %MON forcing_fv_max               =   1.2132492065430E+00
(PID.TID 0000.0001) %MON forcing_fv_min               =  -1.2541840539823E+00
(PID.TID 0000.0001) %MON forcing_fv_mean              =   5.6869066588745E-04
(PID.TID 0000.0001) %MON forcing_fv_sd                =   1.2115600507467E-01
(PID.TID 0000.0001) %MON forcing_fv_del2              =   1.6040053092387E-04
(PID.TID 0000.0001) %MON trAdv_CFL_u_max              =   2.2603116685133E-02
(PID.TID 0000.0001) %MON trAdv_CFL_v_max              =   2.0375214792988E-02
(PID.TID 0000.0001) %MON trAdv_CFL_w_max              =   1.0460439089254E-01
(PID.TID 0000.0001) %MON advcfl_uvel_max              =   2.2905464857063E-02
(PID.TID 0000.0001) %MON advcfl_vvel_max              =   2.0309558084217E-02
(PID.TID 0000.0001) %MON advcfl_wvel_max              =   9.8999569690493E-02
(PID.TID 0000.0001) %MON advcfl_W_hf_max              =   1.0460439089254E-01
(PID.TID 0000.0001) %MON pe_b_mean                    =   2.7328746999763E-03
(PID.TID 0000.0001) %MON ke_max                       =   2.1500685430227E+00
(PID.TID 0000.0001) %MON ke_mean                      =   2.0882293554810E-03
(PID.TID 0000.0001) %MON ke_vol                       =   1.3350064351420E+18
(PID.TID 0000.0001) %MON vort_r_min                   =  -7.4895054303392E-05
(PID.TID 0000.0001) %MON vort_r_max                   =   8.1774511063080E-05
(PID.TID 0000.0001) %MON vort_a_mean                  =  -1.9725077308849E-05
(PID.TID 0000.0001) %MON vort_a_sd                    =   7.4542433531305E-05
(PID.TID 0000.0001) %MON vort_p_mean                  =  -2.1669082311241E-05
(PID.TID 0000.0001) %MON vort_p_sd                    =   9.3619612215252E-05
(PID.TID 0000.0001) %MON surfExpan_theta_mean         =   1.8174556485482E-05
(PID.TID 0000.0001) %MON surfExpan_salt_mean          =  -4.5094711433990E-06
(PID.TID 0000.0001) // =======================================================
(PID.TID 0000.0001) // End MONITOR dynamic field statistics
(PID.TID 0000.0001) // =======================================================
(PID.TID 0000.0001) // =======================================================
(PID.TID 0000.0001) // Begin MONITOR SEAICE statistics
(PID.TID 0000.0001) // =======================================================
(PID.TID 0000.0001) %MON seaice_tsnumber              =                174897
(PID.TID 0000.0001) %MON seaice_time_sec              =   7.8703650000000E+07
(PID.TID 0000.0001) %MON seaice_uice_max              =   1.2045378018697E+00
(PID.TID 0000.0001) %MON seaice_uice_min              =  -1.5339547313790E+00
(PID.TID 0000.0001) %MON seaice_uice_mean             =   1.0846921723271E-02
(PID.TID 0000.0001) %MON seaice_uice_sd               =   1.4973573375034E-01
(PID.TID 0000.0001) %MON seaice_uice_del2             =   3.7780264599827E-04
(PID.TID 0000.0001) %MON seaice_vice_max              =   9.8320337535723E-01
(PID.TID 0000.0001) %MON seaice_vice_min              =  -1.4690786346878E+00
(PID.TID 0000.0001) %MON seaice_vice_mean             =  -1.3726519089268E-02
(PID.TID 0000.0001) %MON seaice_vice_sd               =   1.6092325745388E-01
(PID.TID 0000.0001) %MON seaice_vice_del2             =   3.6403931946617E-04
(PID.TID 0000.0001) %MON seaice_area_max              =   1.0013661214103E+00
(PID.TID 0000.0001) %MON seaice_area_min              =   0.0000000000000E+00
(PID.TID 0000.0001) %MON seaice_area_mean             =   5.7642908957252E-02
(PID.TID 0000.0001) %MON seaice_area_sd               =   2.2076437237781E-01
(PID.TID 0000.0001) %MON seaice_area_del2             =   2.8372455961184E-04
(PID.TID 0000.0001) %MON seaice_heff_max              =   9.9472827594777E+00
(PID.TID 0000.0001) %MON seaice_heff_min              =   0.0000000000000E+00
(PID.TID 0000.0001) %MON seaice_heff_mean             =   1.4929720022600E-01
(PID.TID 0000.0001) %MON seaice_heff_sd               =   7.1930901713411E-01
(PID.TID 0000.0001) %MON seaice_heff_del2             =   1.3224264832885E-03
(PID.TID 0000.0001) %MON seaice_hsnow_max             =   3.2856096172802E+00
(PID.TID 0000.0001) %MON seaice_hsnow_min             =   0.0000000000000E+00
(PID.TID 0000.0001) %MON seaice_hsnow_mean            =   1.2589157815360E-02
(PID.TID 0000.0001) %MON seaice_hsnow_sd              =   6.7448768480613E-02
(PID.TID 0000.0001) %MON seaice_hsnow_del2            =   3.5319793104713E-04
(PID.TID 0000.0001) // =======================================================
(PID.TID 0000.0001) // End MONITOR SEAICE statistics
(PID.TID 0000.0001) // =======================================================
(PID.TID 0000.0001) // =======================================================
(PID.TID 0000.0001) // Begin MONITOR dynamic field statistics
(PID.TID 0000.0001) // =======================================================
(PID.TID 0000.0001) %MON time_tsnumber                =                174898
(PID.TID 0000.0001) %MON time_secondsf                =   7.8704100000000E+07
(PID.TID 0000.0001) %MON dynstat_eta_max              =   2.4599928967950E+00
(PID.TID 0000.0001) %MON dynstat_eta_min              =  -9.9231747177555E+00
(PID.TID 0000.0001) %MON dynstat_eta_mean             =   9.2877472085602E-02
(PID.TID 0000.0001) %MON dynstat_eta_sd               =   9.8264832844135E-01
(PID.TID 0000.0001) %MON dynstat_eta_del2             =   2.0120773171480E-03
(PID.TID 0000.0001) %MON dynstat_uvel_max             =   1.4072234542273E+00
(PID.TID 0000.0001) %MON dynstat_uvel_min             =  -2.2449288575741E+00
(PID.TID 0000.0001) %MON dynstat_uvel_mean            =   7.0950779157260E-03
(PID.TID 0000.0001) %MON dynstat_uvel_sd              =   4.6028317475312E-02
(PID.TID 0000.0001) %MON dynstat_uvel_del2            =   4.3890306658091E-05
(PID.TID 0000.0001) %MON dynstat_vvel_max             =   2.0059468513216E+00
(PID.TID 0000.0001) %MON dynstat_vvel_min             =  -1.7834964991241E+00
(PID.TID 0000.0001) %MON dynstat_vvel_mean            =   3.0672460725230E-03
(PID.TID 0000.0001) %MON dynstat_vvel_sd              =   4.6865409089450E-02
(PID.TID 0000.0001) %MON dynstat_vvel_del2            =   4.2673807841684E-05
(PID.TID 0000.0001) %MON dynstat_wvel_max             =   1.0053231899220E-02
(PID.TID 0000.0001) %MON dynstat_wvel_min             =  -9.8565886829891E-03
(PID.TID 0000.0001) %MON dynstat_wvel_mean            =   2.2645303594378E-07
(PID.TID 0000.0001) %MON dynstat_wvel_sd              =   1.8490197136057E-04
(PID.TID 0000.0001) %MON dynstat_wvel_del2            =   3.8535206915226E-07
(PID.TID 0000.0001) %MON dynstat_theta_max            =   3.2440952364736E+01
(PID.TID 0000.0001) %MON dynstat_theta_min            =  -2.0405105896465E+00
(PID.TID 0000.0001) %MON dynstat_theta_mean           =   3.5917847731474E+00
(PID.TID 0000.0001) %MON dynstat_theta_sd             =   4.4413618617449E+00
(PID.TID 0000.0001) %MON dynstat_theta_del2           =   1.2911658925061E-04
(PID.TID 0000.0001) %MON dynstat_salt_max             =   4.0655989377149E+01
(PID.TID 0000.0001) %MON dynstat_salt_min             =   1.5924239381347E+01
(PID.TID 0000.0001) %MON dynstat_salt_mean            =   3.4724792190230E+01
(PID.TID 0000.0001) %MON dynstat_salt_sd              =   3.7975641457931E-01
(PID.TID 0000.0001) %MON dynstat_salt_del2            =   6.2618938138573E-05
(PID.TID 0000.0001) %MON dynstat_sst_max              =   3.2440952364736E+01
(PID.TID 0000.0001) %MON dynstat_sst_min              =  -2.0405105896465E+00
(PID.TID 0000.0001) %MON dynstat_sst_mean             =   1.8170834175540E+01
(PID.TID 0000.0001) %MON dynstat_sst_sd               =   1.0205532164611E+01
(PID.TID 0000.0001) %MON dynstat_sst_del2             =   1.0985544346359E-03
(PID.TID 0000.0001) %MON dynstat_sss_max              =   3.9463152330119E+01
(PID.TID 0000.0001) %MON dynstat_sss_min              =   1.5924239381347E+01
(PID.TID 0000.0001) %MON dynstat_sss_mean             =   3.4641095274692E+01
(PID.TID 0000.0001) %MON dynstat_sss_sd               =   1.3037738526272E+00
(PID.TID 0000.0001) %MON dynstat_sss_del2             =   1.4651388848482E-03
(PID.TID 0000.0001) %MON forcing_qnet_max             =   8.3230858948328E+02
(PID.TID 0000.0001) %MON forcing_qnet_min             =  -1.7938242187500E+03
(PID.TID 0000.0001) %MON forcing_qnet_mean            =   8.9342895632843E+00
(PID.TID 0000.0001) %MON forcing_qnet_sd              =   2.0447012224049E+02
(PID.TID 0000.0001) %MON forcing_qnet_del2            =   3.7126863398201E-01
(PID.TID 0000.0001) %MON forcing_qsw_max              =   0.0000000000000E+00
(PID.TID 0000.0001) %MON forcing_qsw_min              =  -1.1058819147100E+02
(PID.TID 0000.0001) %MON forcing_qsw_mean             =  -1.8053598853989E+01
(PID.TID 0000.0001) %MON forcing_qsw_sd               =   3.0417526701844E+01
(PID.TID 0000.0001) %MON forcing_qsw_del2             =   2.2689161883883E-02
(PID.TID 0000.0001) %MON forcing_empmr_max            =   2.1943630650640E-02
(PID.TID 0000.0001) %MON forcing_empmr_min            =  -3.4860398620367E-02
(PID.TID 0000.0001) %MON forcing_empmr_mean           =  -1.9894701241165E-06
(PID.TID 0000.0001) %MON forcing_empmr_sd             =   2.8791719533927E-04
(PID.TID 0000.0001) %MON forcing_empmr_del2           =   3.5774054172649E-06
(PID.TID 0000.0001) %MON forcing_fu_max               =   8.7581008672714E-01
(PID.TID 0000.0001) %MON forcing_fu_min               =  -1.3426205981136E+00
(PID.TID 0000.0001) %MON forcing_fu_mean              =   1.0602919782486E-02
(PID.TID 0000.0001) %MON forcing_fu_sd                =   1.2671177230464E-01
(PID.TID 0000.0001) %MON forcing_fu_del2              =   1.6924561789928E-04
(PID.TID 0000.0001) %MON forcing_fv_max               =   1.2127620577812E+00
(PID.TID 0000.0001) %MON forcing_fv_min               =  -1.2077574108389E+00
(PID.TID 0000.0001) %MON forcing_fv_mean              =   5.8399298837605E-04
(PID.TID 0000.0001) %MON forcing_fv_sd                =   1.2127785854225E-01
(PID.TID 0000.0001) %MON forcing_fv_del2              =   1.6068793933141E-04
(PID.TID 0000.0001) %MON trAdv_CFL_u_max              =   2.2554813875583E-02
(PID.TID 0000.0001) %MON trAdv_CFL_v_max              =   2.0419788552999E-02
(PID.TID 0000.0001) %MON trAdv_CFL_w_max              =   1.0474253872526E-01
(PID.TID 0000.0001) %MON advcfl_uvel_max              =   2.2856515930149E-02
(PID.TID 0000.0001) %MON advcfl_vvel_max              =   2.0353988210583E-02
(PID.TID 0000.0001) %MON advcfl_wvel_max              =   9.9121480064910E-02
(PID.TID 0000.0001) %MON advcfl_W_hf_max              =   1.0474253872526E-01
(PID.TID 0000.0001) %MON pe_b_mean                    =   2.7343880252375E-03
(PID.TID 0000.0001) %MON ke_max                       =   2.1546959384097E+00
(PID.TID 0000.0001) %MON ke_mean                      =   2.1094459205684E-03
(PID.TID 0000.0001) %MON ke_vol                       =   1.3350064351420E+18
(PID.TID 0000.0001) %MON vort_r_min                   =  -7.4641060813882E-05
(PID.TID 0000.0001) %MON vort_r_max                   =   8.1574415778210E-05
(PID.TID 0000.0001) %MON vort_a_mean                  =  -1.9725077293574E-05
(PID.TID 0000.0001) %MON vort_a_sd                    =   7.4542464862814E-05
(PID.TID 0000.0001) %MON vort_p_mean                  =  -2.1669082294460E-05
(PID.TID 0000.0001) %MON vort_p_sd                    =   9.3619655122468E-05
(PID.TID 0000.0001) %MON surfExpan_theta_mean         =   1.8219711279046E-05
(PID.TID 0000.0001) %MON surfExpan_salt_mean          =  -5.5904122441347E-06
(PID.TID 0000.0001) // =======================================================
(PID.TID 0000.0001) // End MONITOR dynamic field statistics
(PID.TID 0000.0001) // =======================================================
(PID.TID 0000.0001) // =======================================================
(PID.TID 0000.0001) // Begin MONITOR SEAICE statistics
(PID.TID 0000.0001) // =======================================================
(PID.TID 0000.0001) %MON seaice_tsnumber              =                174898
(PID.TID 0000.0001) %MON seaice_time_sec              =   7.8704100000000E+07
(PID.TID 0000.0001) %MON seaice_uice_max              =   1.2028199462389E+00
(PID.TID 0000.0001) %MON seaice_uice_min              =  -1.5367093916636E+00
(PID.TID 0000.0001) %MON seaice_uice_mean             =   1.0759856234920E-02
(PID.TID 0000.0001) %MON seaice_uice_sd               =   1.4977538041896E-01
(PID.TID 0000.0001) %MON seaice_uice_del2             =   3.7809193565889E-04
(PID.TID 0000.0001) %MON seaice_vice_max              =   9.8289044188975E-01
(PID.TID 0000.0001) %MON seaice_vice_min              =  -1.4695357678362E+00
(PID.TID 0000.0001) %MON seaice_vice_mean             =  -1.3835900241126E-02
(PID.TID 0000.0001) %MON seaice_vice_sd               =   1.6094452087851E-01
(PID.TID 0000.0001) %MON seaice_vice_del2             =   3.6460405453972E-04
(PID.TID 0000.0001) %MON seaice_area_max              =   1.0013401134263E+00
(PID.TID 0000.0001) %MON seaice_area_min              =   0.0000000000000E+00
(PID.TID 0000.0001) %MON seaice_area_mean             =   5.7645596194574E-02
(PID.TID 0000.0001) %MON seaice_area_sd               =   2.2076289879392E-01
(PID.TID 0000.0001) %MON seaice_area_del2             =   2.8363235515732E-04
(PID.TID 0000.0001) %MON seaice_heff_max              =   9.9472751454160E+00
(PID.TID 0000.0001) %MON seaice_heff_min              =   0.0000000000000E+00
(PID.TID 0000.0001) %MON seaice_heff_mean             =   1.4929372203228E-01
(PID.TID 0000.0001) %MON seaice_heff_sd               =   7.1929772211014E-01
(PID.TID 0000.0001) %MON seaice_heff_del2             =   1.3218459838837E-03
(PID.TID 0000.0001) %MON seaice_hsnow_max             =   3.2856069339579E+00
(PID.TID 0000.0001) %MON seaice_hsnow_min             =   0.0000000000000E+00
(PID.TID 0000.0001) %MON seaice_hsnow_mean            =   1.2588408701582E-02
(PID.TID 0000.0001) %MON seaice_hsnow_sd              =   6.7437821428478E-02
(PID.TID 0000.0001) %MON seaice_hsnow_del2            =   3.5289983933190E-04
(PID.TID 0000.0001) // =======================================================
(PID.TID 0000.0001) // End MONITOR SEAICE statistics
(PID.TID 0000.0001) // =======================================================
(PID.TID 0000.0001) // =======================================================
(PID.TID 0000.0001) // Begin MONITOR dynamic field statistics
(PID.TID 0000.0001) // =======================================================
(PID.TID 0000.0001) %MON time_tsnumber                =                174899
(PID.TID 0000.0001) %MON time_secondsf                =   7.8704550000000E+07
(PID.TID 0000.0001) %MON dynstat_eta_max              =   2.4096811292080E+00
(PID.TID 0000.0001) %MON dynstat_eta_min              =  -9.9065756183215E+00
(PID.TID 0000.0001) %MON dynstat_eta_mean             =   9.2765626155942E-02
(PID.TID 0000.0001) %MON dynstat_eta_sd               =   9.8471346404624E-01
(PID.TID 0000.0001) %MON dynstat_eta_del2             =   2.0121717145391E-03
(PID.TID 0000.0001) %MON dynstat_uvel_max             =   1.4056770325335E+00
(PID.TID 0000.0001) %MON dynstat_uvel_min             =  -2.2506419151796E+00
(PID.TID 0000.0001) %MON dynstat_uvel_mean            =   7.0529051156415E-03
(PID.TID 0000.0001) %MON dynstat_uvel_sd              =   4.6259719129022E-02
(PID.TID 0000.0001) %MON dynstat_uvel_del2            =   4.4006724333904E-05
(PID.TID 0000.0001) %MON dynstat_vvel_max             =   2.0097950939065E+00
(PID.TID 0000.0001) %MON dynstat_vvel_min             =  -1.7802740690671E+00
(PID.TID 0000.0001) %MON dynstat_vvel_mean            =   3.0237794948813E-03
(PID.TID 0000.0001) %MON dynstat_vvel_sd              =   4.7120672080185E-02
(PID.TID 0000.0001) %MON dynstat_vvel_del2            =   4.2792791131473E-05
(PID.TID 0000.0001) %MON dynstat_wvel_max             =   1.0155158287828E-02
(PID.TID 0000.0001) %MON dynstat_wvel_min             =  -9.8942825909535E-03
(PID.TID 0000.0001) %MON dynstat_wvel_mean            =   2.0903360635658E-07
(PID.TID 0000.0001) %MON dynstat_wvel_sd              =   1.8566627007809E-04
(PID.TID 0000.0001) %MON dynstat_wvel_del2            =   3.8655942951450E-07
(PID.TID 0000.0001) %MON dynstat_theta_max            =   3.2439271547325E+01
(PID.TID 0000.0001) %MON dynstat_theta_min            =  -2.0403491922240E+00
(PID.TID 0000.0001) %MON dynstat_theta_mean           =   3.5917823243455E+00
(PID.TID 0000.0001) %MON dynstat_theta_sd             =   4.4413562143330E+00
(PID.TID 0000.0001) %MON dynstat_theta_del2           =   1.2917279225724E-04
(PID.TID 0000.0001) %MON dynstat_salt_max             =   4.0655989364900E+01
(PID.TID 0000.0001) %MON dynstat_salt_min             =   1.5923469796094E+01
(PID.TID 0000.0001) %MON dynstat_salt_mean            =   3.4724791898298E+01
(PID.TID 0000.0001) %MON dynstat_salt_sd              =   3.7975732650898E-01
(PID.TID 0000.0001) %MON dynstat_salt_del2            =   6.2591204031501E-05
(PID.TID 0000.0001) %MON dynstat_sst_max              =   3.2439271547325E+01
(PID.TID 0000.0001) %MON dynstat_sst_min              =  -2.0403491922240E+00
(PID.TID 0000.0001) %MON dynstat_sst_mean             =   1.8170903849775E+01
(PID.TID 0000.0001) %MON dynstat_sst_sd               =   1.0205713171095E+01
(PID.TID 0000.0001) %MON dynstat_sst_del2             =   1.0984100266087E-03
(PID.TID 0000.0001) %MON dynstat_sss_max              =   3.9463177651120E+01
(PID.TID 0000.0001) %MON dynstat_sss_min              =   1.5923469796094E+01
(PID.TID 0000.0001) %MON dynstat_sss_mean             =   3.4641074415500E+01
(PID.TID 0000.0001) %MON dynstat_sss_sd               =   1.3038141687532E+00
(PID.TID 0000.0001) %MON dynstat_sss_del2             =   1.4651667245732E-03
(PID.TID 0000.0001) %MON forcing_qnet_max             =   8.3278036912349E+02
(PID.TID 0000.0001) %MON forcing_qnet_min             =  -1.1337167968750E+03
(PID.TID 0000.0001) %MON forcing_qnet_mean            =   8.5986866968468E+00
(PID.TID 0000.0001) %MON forcing_qnet_sd              =   2.0427114130491E+02
(PID.TID 0000.0001) %MON forcing_qnet_del2            =   3.5685903631969E-01
(PID.TID 0000.0001) %MON forcing_qsw_max              =   0.0000000000000E+00
(PID.TID 0000.0001) %MON forcing_qsw_min              =  -1.1066424818782E+02
(PID.TID 0000.0001) %MON forcing_qsw_mean             =  -1.8119134822569E+01
(PID.TID 0000.0001) %MON forcing_qsw_sd               =   3.0358718748478E+01
(PID.TID 0000.0001) %MON forcing_qsw_del2             =   2.2716268109575E-02
(PID.TID 0000.0001) %MON forcing_empmr_max            =   2.2497287020087E-02
(PID.TID 0000.0001) %MON forcing_empmr_min            =  -3.5961970686913E-02
(PID.TID 0000.0001) %MON forcing_empmr_mean           =  -2.1608844548623E-06
(PID.TID 0000.0001) %MON forcing_empmr_sd             =   2.9129488979414E-04
(PID.TID 0000.0001) %MON forcing_empmr_del2           =   3.6159923688506E-06
(PID.TID 0000.0001) %MON forcing_fu_max               =   8.7412491440773E-01
(PID.TID 0000.0001) %MON forcing_fu_min               =  -1.3382553251125E+00
(PID.TID 0000.0001) %MON forcing_fu_mean              =   1.0607770290153E-02
(PID.TID 0000.0001) %MON forcing_fu_sd                =   1.2663853000005E-01
(PID.TID 0000.0001) %MON forcing_fu_del2              =   1.6900559432184E-04
(PID.TID 0000.0001) %MON forcing_fv_max               =   1.2118214964867E+00
(PID.TID 0000.0001) %MON forcing_fv_min               =  -1.1581592264474E+00
(PID.TID 0000.0001) %MON forcing_fv_mean              =   5.9171201803843E-04
(PID.TID 0000.0001) %MON forcing_fv_sd                =   1.2140481209321E-01
(PID.TID 0000.0001) %MON forcing_fv_del2              =   1.6092573949376E-04
(PID.TID 0000.0001) %MON trAdv_CFL_u_max              =   2.2507631725133E-02
(PID.TID 0000.0001) %MON trAdv_CFL_v_max              =   2.0458962222945E-02
(PID.TID 0000.0001) %MON trAdv_CFL_w_max              =   1.0484907512079E-01
(PID.TID 0000.0001) %MON advcfl_uvel_max              =   2.2808702652712E-02
(PID.TID 0000.0001) %MON advcfl_vvel_max              =   2.0393035648032E-02
(PID.TID 0000.0001) %MON advcfl_wvel_max              =   9.9212261480835E-02
(PID.TID 0000.0001) %MON advcfl_W_hf_max              =   1.0484907512079E-01
(PID.TID 0000.0001) %MON pe_b_mean                    =   2.7355306022533E-03
(PID.TID 0000.0001) %MON ke_max                       =   2.1590122610512E+00
(PID.TID 0000.0001) %MON ke_mean                      =   2.1308964248541E-03
(PID.TID 0000.0001) %MON ke_vol                       =   1.3350064351420E+18
(PID.TID 0000.0001) %MON vort_r_min                   =  -7.4392161028160E-05
(PID.TID 0000.0001) %MON vort_r_max                   =   8.1379862234880E-05
(PID.TID 0000.0001) %MON vort_a_mean                  =  -1.9725077282468E-05
(PID.TID 0000.0001) %MON vort_a_sd                    =   7.4542496785321E-05
(PID.TID 0000.0001) %MON vort_p_mean                  =  -2.1669082282259E-05
(PID.TID 0000.0001) %MON vort_p_sd                    =   9.3619697928791E-05
(PID.TID 0000.0001) %MON surfExpan_theta_mean         =   1.8214416246910E-05
(PID.TID 0000.0001) %MON surfExpan_salt_mean          =  -6.7210207014689E-06
(PID.TID 0000.0001) // =======================================================
(PID.TID 0000.0001) // End MONITOR dynamic field statistics
(PID.TID 0000.0001) // =======================================================
(PID.TID 0000.0001) // =======================================================
(PID.TID 0000.0001) // Begin MONITOR SEAICE statistics
(PID.TID 0000.0001) // =======================================================
(PID.TID 0000.0001) %MON seaice_tsnumber              =                174899
(PID.TID 0000.0001) %MON seaice_time_sec              =   7.8704550000000E+07
(PID.TID 0000.0001) %MON seaice_uice_max              =   1.2010834870227E+00
(PID.TID 0000.0001) %MON seaice_uice_min              =  -1.5385563945944E+00
(PID.TID 0000.0001) %MON seaice_uice_mean             =   1.0672126206821E-02
(PID.TID 0000.0001) %MON seaice_uice_sd               =   1.4981466120485E-01
(PID.TID 0000.0001) %MON seaice_uice_del2             =   3.7839393652431E-04
(PID.TID 0000.0001) %MON seaice_vice_max              =   9.8272787381118E-01
(PID.TID 0000.0001) %MON seaice_vice_min              =  -1.4700574846299E+00
(PID.TID 0000.0001) %MON seaice_vice_mean             =  -1.3952788422348E-02
(PID.TID 0000.0001) %MON seaice_vice_sd               =   1.6096972920297E-01
(PID.TID 0000.0001) %MON seaice_vice_del2             =   3.6516581886765E-04
(PID.TID 0000.0001) %MON seaice_area_max              =   1.0013160038339E+00
(PID.TID 0000.0001) %MON seaice_area_min              =   0.0000000000000E+00
(PID.TID 0000.0001) %MON seaice_area_mean             =   5.7648309420384E-02
(PID.TID 0000.0001) %MON seaice_area_sd               =   2.2076151262422E-01
(PID.TID 0000.0001) %MON seaice_area_del2             =   2.8354195472376E-04
(PID.TID 0000.0001) %MON seaice_heff_max              =   9.9472665781394E+00
(PID.TID 0000.0001) %MON seaice_heff_min              =   0.0000000000000E+00
(PID.TID 0000.0001) %MON seaice_heff_mean             =   1.4929024582822E-01
(PID.TID 0000.0001) %MON seaice_heff_sd               =   7.1928636290983E-01
(PID.TID 0000.0001) %MON seaice_heff_del2             =   1.3212671405984E-03
(PID.TID 0000.0001) %MON seaice_hsnow_max             =   3.2856042425681E+00
(PID.TID 0000.0001) %MON seaice_hsnow_min             =   0.0000000000000E+00
(PID.TID 0000.0001) %MON seaice_hsnow_mean            =   1.2587652813990E-02
(PID.TID 0000.0001) %MON seaice_hsnow_sd              =   6.7426858095793E-02
(PID.TID 0000.0001) %MON seaice_hsnow_del2            =   3.5260275505262E-04
(PID.TID 0000.0001) // =======================================================
(PID.TID 0000.0001) // End MONITOR SEAICE statistics
(PID.TID 0000.0001) // =======================================================
(PID.TID 0000.0001) // =======================================================
(PID.TID 0000.0001) // Begin MONITOR dynamic field statistics
(PID.TID 0000.0001) // =======================================================
(PID.TID 0000.0001) %MON time_tsnumber                =                174900
(PID.TID 0000.0001) %MON time_secondsf                =   7.8705000000000E+07
(PID.TID 0000.0001) %MON dynstat_eta_max              =   2.3525508292081E+00
(PID.TID 0000.0001) %MON dynstat_eta_min              =  -9.9070679671360E+00
(PID.TID 0000.0001) %MON dynstat_eta_mean             =   9.2636883216363E-02
(PID.TID 0000.0001) %MON dynstat_eta_sd               =   9.8680220623268E-01
(PID.TID 0000.0001) %MON dynstat_eta_del2             =   2.0122580551547E-03
(PID.TID 0000.0001) %MON dynstat_uvel_max             =   1.4041313724920E+00
(PID.TID 0000.0001) %MON dynstat_uvel_min             =  -2.2561633161712E+00
(PID.TID 0000.0001) %MON dynstat_uvel_mean            =   7.0113541878144E-03
(PID.TID 0000.0001) %MON dynstat_uvel_sd              =   4.6491623831447E-02
(PID.TID 0000.0001) %MON dynstat_uvel_del2            =   4.4124083707036E-05
(PID.TID 0000.0001) %MON dynstat_vvel_max             =   2.0131029899883E+00
(PID.TID 0000.0001) %MON dynstat_vvel_min             =  -1.7772356900140E+00
(PID.TID 0000.0001) %MON dynstat_vvel_mean            =   2.9792728128282E-03
(PID.TID 0000.0001) %MON dynstat_vvel_sd              =   4.7377966622092E-02
(PID.TID 0000.0001) %MON dynstat_vvel_del2            =   4.2912658215221E-05
(PID.TID 0000.0001) %MON dynstat_wvel_max             =   1.0256425106353E-02
(PID.TID 0000.0001) %MON dynstat_wvel_min             =  -9.9309212376382E-03
(PID.TID 0000.0001) %MON dynstat_wvel_mean            =   1.9068345821636E-07
(PID.TID 0000.0001) %MON dynstat_wvel_sd              =   1.8642914597421E-04
(PID.TID 0000.0001) %MON dynstat_wvel_del2            =   3.8776028753827E-07
(PID.TID 0000.0001) %MON dynstat_theta_max            =   3.2437434043781E+01
(PID.TID 0000.0001) %MON dynstat_theta_min            =  -2.0401909671573E+00
(PID.TID 0000.0001) %MON dynstat_theta_mean           =   3.5917798954622E+00
(PID.TID 0000.0001) %MON dynstat_theta_sd             =   4.4413507233534E+00
(PID.TID 0000.0001) %MON dynstat_theta_del2           =   1.2923036528570E-04
(PID.TID 0000.0001) %MON dynstat_salt_max             =   4.0655989353172E+01
(PID.TID 0000.0001) %MON dynstat_salt_min             =   1.5922732032320E+01
(PID.TID 0000.0001) %MON dynstat_salt_mean            =   3.4724791593169E+01
(PID.TID 0000.0001) %MON dynstat_salt_sd              =   3.7975825936872E-01
(PID.TID 0000.0001) %MON dynstat_salt_del2            =   6.2563549628942E-05
(PID.TID 0000.0001) %MON dynstat_sst_max              =   3.2437434043781E+01
(PID.TID 0000.0001) %MON dynstat_sst_min              =  -2.0401909671573E+00
(PID.TID 0000.0001) %MON dynstat_sst_mean             =   1.8170978039508E+01
(PID.TID 0000.0001) %MON dynstat_sst_sd               =   1.0205898772186E+01
(PID.TID 0000.0001) %MON dynstat_sst_del2             =   1.0983156747717E-03
(PID.TID 0000.0001) %MON dynstat_sss_max              =   3.9463203248455E+01
(PID.TID 0000.0001) %MON dynstat_sss_min              =   1.5922732032320E+01
(PID.TID 0000.0001) %MON dynstat_sss_mean             =   3.4641054050566E+01
(PID.TID 0000.0001) %MON dynstat_sss_sd               =   1.3038541622585E+00
(PID.TID 0000.0001) %MON dynstat_sss_del2             =   1.4651875361665E-03
(PID.TID 0000.0001) %MON forcing_qnet_max             =   8.3589840001634E+02
(PID.TID 0000.0001) %MON forcing_qnet_min             =  -1.0687474365234E+03
(PID.TID 0000.0001) %MON forcing_qnet_mean            =   8.1697343541655E+00
(PID.TID 0000.0001) %MON forcing_qnet_sd              =   2.0414163360653E+02
(PID.TID 0000.0001) %MON forcing_qnet_del2            =   3.5325138300973E-01
(PID.TID 0000.0001) %MON forcing_qsw_max              =   0.0000000000000E+00
(PID.TID 0000.0001) %MON forcing_qsw_min              =  -1.1082330930113E+02
(PID.TID 0000.0001) %MON forcing_qsw_mean             =  -1.8173829630329E+01
(PID.TID 0000.0001) %MON forcing_qsw_sd               =   3.0283131735594E+01
(PID.TID 0000.0001) %MON forcing_qsw_del2             =   2.2733245857219E-02
(PID.TID 0000.0001) %MON forcing_empmr_max            =   2.2419434040785E-02
(PID.TID 0000.0001) %MON forcing_empmr_min            =  -3.5994499921799E-02
(PID.TID 0000.0001) %MON forcing_empmr_mean           =  -2.2846500511028E-06
(PID.TID 0000.0001) %MON forcing_empmr_sd             =   2.9213443628593E-04
(PID.TID 0000.0001) %MON forcing_empmr_del2           =   3.6415680956595E-06
(PID.TID 0000.0001) %MON forcing_fu_max               =   8.6392626166344E-01
(PID.TID 0000.0001) %MON forcing_fu_min               =  -1.3348185854323E+00
(PID.TID 0000.0001) %MON forcing_fu_mean              =   1.0616809148658E-02
(PID.TID 0000.0001) %MON forcing_fu_sd                =   1.2658653934007E-01
(PID.TID 0000.0001) %MON forcing_fu_del2              =   1.6870439529182E-04
(PID.TID 0000.0001) %MON forcing_fv_max               =   1.2124852538109E+00
(PID.TID 0000.0001) %MON forcing_fv_min               =  -1.1507321596146E+00
(PID.TID 0000.0001) %MON forcing_fv_mean              =   6.1036570561760E-04
(PID.TID 0000.0001) %MON forcing_fv_sd                =   1.2156230835115E-01
(PID.TID 0000.0001) %MON forcing_fv_del2              =   1.6095556737984E-04
(PID.TID 0000.0001) %MON trAdv_CFL_u_max              =   2.2461563634899E-02
(PID.TID 0000.0001) %MON trAdv_CFL_v_max              =   2.0492635367626E-02
(PID.TID 0000.0001) %MON trAdv_CFL_w_max              =   1.0492388178476E-01
(PID.TID 0000.0001) %MON advcfl_uvel_max              =   2.2762018337598E-02
(PID.TID 0000.0001) %MON advcfl_vvel_max              =   2.0426600285005E-02
(PID.TID 0000.0001) %MON advcfl_wvel_max              =   9.9271819247858E-02
(PID.TID 0000.0001) %MON advcfl_W_hf_max              =   1.0492388178476E-01
(PID.TID 0000.0001) %MON pe_b_mean                    =   2.7362801731718E-03
(PID.TID 0000.0001) %MON ke_max                       =   2.1630125688541E+00
(PID.TID 0000.0001) %MON ke_mean                      =   2.1525815438980E-03
(PID.TID 0000.0001) %MON ke_vol                       =   1.3350064351420E+18
(PID.TID 0000.0001) %MON vort_r_min                   =  -7.4148413141327E-05
(PID.TID 0000.0001) %MON vort_r_max                   =   8.1190870989442E-05
(PID.TID 0000.0001) %MON vort_a_mean                  =  -1.9725077274729E-05
(PID.TID 0000.0001) %MON vort_a_sd                    =   7.4542529332135E-05
(PID.TID 0000.0001) %MON vort_p_mean                  =  -2.1669082273758E-05
(PID.TID 0000.0001) %MON vort_p_sd                    =   9.3619740587283E-05
(PID.TID 0000.0001) %MON surfExpan_theta_mean         =   1.8155701551883E-05
(PID.TID 0000.0001) %MON surfExpan_salt_mean          =  -7.9106231670789E-06
(PID.TID 0000.0001) // =======================================================
(PID.TID 0000.0001) // End MONITOR dynamic field statistics
(PID.TID 0000.0001) // =======================================================
(PID.TID 0000.0001) // =======================================================
(PID.TID 0000.0001) // Begin MONITOR SEAICE statistics
(PID.TID 0000.0001) // =======================================================
(PID.TID 0000.0001) %MON seaice_tsnumber              =                174900
(PID.TID 0000.0001) %MON seaice_time_sec              =   7.8705000000000E+07
(PID.TID 0000.0001) %MON seaice_uice_max              =   1.1993494351487E+00
(PID.TID 0000.0001) %MON seaice_uice_min              =  -1.5394916674598E+00
(PID.TID 0000.0001) %MON seaice_uice_mean             =   1.0583480699451E-02
(PID.TID 0000.0001) %MON seaice_uice_sd               =   1.4985168758724E-01
(PID.TID 0000.0001) %MON seaice_uice_del2             =   3.7870095454090E-04
(PID.TID 0000.0001) %MON seaice_vice_max              =   9.8272170122075E-01
(PID.TID 0000.0001) %MON seaice_vice_min              =  -1.4706244725912E+00
(PID.TID 0000.0001) %MON seaice_vice_mean             =  -1.4077184966516E-02
(PID.TID 0000.0001) %MON seaice_vice_sd               =   1.6099833614306E-01
(PID.TID 0000.0001) %MON seaice_vice_del2             =   3.6574566880084E-04
(PID.TID 0000.0001) %MON seaice_area_max              =   1.0012906769066E+00
(PID.TID 0000.0001) %MON seaice_area_min              =   0.0000000000000E+00
(PID.TID 0000.0001) %MON seaice_area_mean             =   5.7651035155449E-02
(PID.TID 0000.0001) %MON seaice_area_sd               =   2.2076016579187E-01
(PID.TID 0000.0001) %MON seaice_area_del2             =   2.8345352090612E-04
(PID.TID 0000.0001) %MON seaice_heff_max              =   9.9472589642832E+00
(PID.TID 0000.0001) %MON seaice_heff_min              =   0.0000000000000E+00
(PID.TID 0000.0001) %MON seaice_heff_mean             =   1.4928676864998E-01
(PID.TID 0000.0001) %MON seaice_heff_sd               =   7.1927493171055E-01
(PID.TID 0000.0001) %MON seaice_heff_del2             =   1.3206898282382E-03
(PID.TID 0000.0001) %MON seaice_hsnow_max             =   3.2856015549038E+00
(PID.TID 0000.0001) %MON seaice_hsnow_min             =   0.0000000000000E+00
(PID.TID 0000.0001) %MON seaice_hsnow_mean            =   1.2586901678894E-02
(PID.TID 0000.0001) %MON seaice_hsnow_sd              =   6.7415874650382E-02
(PID.TID 0000.0001) %MON seaice_hsnow_del2            =   3.5230656290937E-04
(PID.TID 0000.0001) // =======================================================
(PID.TID 0000.0001) // End MONITOR SEAICE statistics
(PID.TID 0000.0001) // =======================================================
(PID.TID 0000.0001) // =======================================================
(PID.TID 0000.0001) // Begin MONITOR dynamic field statistics
(PID.TID 0000.0001) // =======================================================
(PID.TID 0000.0001) %MON time_tsnumber                =                174901
(PID.TID 0000.0001) %MON time_secondsf                =   7.8705450000000E+07
(PID.TID 0000.0001) %MON dynstat_eta_max              =   2.3765852869512E+00
(PID.TID 0000.0001) %MON dynstat_eta_min              =  -9.9102947071167E+00
(PID.TID 0000.0001) %MON dynstat_eta_mean             =   9.2490225832809E-02
(PID.TID 0000.0001) %MON dynstat_eta_sd               =   9.8891383383417E-01
(PID.TID 0000.0001) %MON dynstat_eta_del2             =   2.0123344456603E-03
(PID.TID 0000.0001) %MON dynstat_uvel_max             =   1.4025782466258E+00
(PID.TID 0000.0001) %MON dynstat_uvel_min             =  -2.2614919838692E+00
(PID.TID 0000.0001) %MON dynstat_uvel_mean            =   6.9706245136273E-03
(PID.TID 0000.0001) %MON dynstat_uvel_sd              =   4.6724013581946E-02
(PID.TID 0000.0001) %MON dynstat_uvel_del2            =   4.4242319155314E-05
(PID.TID 0000.0001) %MON dynstat_vvel_max             =   2.0158621127144E+00
(PID.TID 0000.0001) %MON dynstat_vvel_min             =  -1.7743681459918E+00
(PID.TID 0000.0001) %MON dynstat_vvel_mean            =   2.9338090184729E-03
(PID.TID 0000.0001) %MON dynstat_vvel_sd              =   4.7637378771331E-02
(PID.TID 0000.0001) %MON dynstat_vvel_del2            =   4.3033156326174E-05
(PID.TID 0000.0001) %MON dynstat_wvel_max             =   1.0357008981147E-02
(PID.TID 0000.0001) %MON dynstat_wvel_min             =  -9.9666114513100E-03
(PID.TID 0000.0001) %MON dynstat_wvel_mean            =   1.7116229344962E-07
(PID.TID 0000.0001) %MON dynstat_wvel_sd              =   1.8719041863156E-04
(PID.TID 0000.0001) %MON dynstat_wvel_del2            =   3.8895358656022E-07
(PID.TID 0000.0001) %MON dynstat_theta_max            =   3.2435452332071E+01
(PID.TID 0000.0001) %MON dynstat_theta_min            =  -2.0400355513045E+00
(PID.TID 0000.0001) %MON dynstat_theta_mean           =   3.5917775656137E+00
(PID.TID 0000.0001) %MON dynstat_theta_sd             =   4.4413457299086E+00
(PID.TID 0000.0001) %MON dynstat_theta_del2           =   1.2928688512572E-04
(PID.TID 0000.0001) %MON dynstat_salt_max             =   4.0655989342054E+01
(PID.TID 0000.0001) %MON dynstat_salt_min             =   1.5922025224418E+01
(PID.TID 0000.0001) %MON dynstat_salt_mean            =   3.4724791276306E+01
(PID.TID 0000.0001) %MON dynstat_salt_sd              =   3.7975921564597E-01
(PID.TID 0000.0001) %MON dynstat_salt_del2            =   6.2536322355338E-05
(PID.TID 0000.0001) %MON dynstat_sst_max              =   3.2435452332071E+01
(PID.TID 0000.0001) %MON dynstat_sst_min              =  -2.0400355513045E+00
(PID.TID 0000.0001) %MON dynstat_sst_mean             =   1.8171081432313E+01
(PID.TID 0000.0001) %MON dynstat_sst_sd               =   1.0206102525383E+01
(PID.TID 0000.0001) %MON dynstat_sst_del2             =   1.0981445771447E-03
(PID.TID 0000.0001) %MON dynstat_sss_max              =   3.9463229570463E+01
(PID.TID 0000.0001) %MON dynstat_sss_min              =   1.5922025224418E+01
(PID.TID 0000.0001) %MON dynstat_sss_mean             =   3.4641034450748E+01
(PID.TID 0000.0001) %MON dynstat_sss_sd               =   1.3038947644575E+00
(PID.TID 0000.0001) %MON dynstat_sss_del2             =   1.4652360131693E-03
(PID.TID 0000.0001) %MON forcing_qnet_max             =   8.3246300141000E+02
(PID.TID 0000.0001) %MON forcing_qnet_min             =  -1.3734151611328E+03
(PID.TID 0000.0001) %MON forcing_qnet_mean            =   5.3595829186487E+00
(PID.TID 0000.0001) %MON forcing_qnet_sd              =   2.0468803944285E+02
(PID.TID 0000.0001) %MON forcing_qnet_del2            =   3.6351709053505E-01
(PID.TID 0000.0001) %MON forcing_qsw_max              =   0.0000000000000E+00
(PID.TID 0000.0001) %MON forcing_qsw_min              =  -1.1134991094470E+02
(PID.TID 0000.0001) %MON forcing_qsw_mean             =  -1.8506841423060E+01
(PID.TID 0000.0001) %MON forcing_qsw_sd               =   3.0175233932583E+01
(PID.TID 0000.0001) %MON forcing_qsw_del2             =   2.2772339122885E-02
(PID.TID 0000.0001) %MON forcing_empmr_max            =   2.0883247256279E-02
(PID.TID 0000.0001) %MON forcing_empmr_min            =  -3.5726919770241E-02
(PID.TID 0000.0001) %MON forcing_empmr_mean           =  -2.1317218273911E-06
(PID.TID 0000.0001) %MON forcing_empmr_sd             =   2.9356822492143E-04
(PID.TID 0000.0001) %MON forcing_empmr_del2           =   3.6344975701767E-06
(PID.TID 0000.0001) %MON forcing_fu_max               =   8.6871939897537E-01
(PID.TID 0000.0001) %MON forcing_fu_min               =  -1.3303703704545E+00
(PID.TID 0000.0001) %MON forcing_fu_mean              =   1.0630529521934E-02
(PID.TID 0000.0001) %MON forcing_fu_sd                =   1.2654306111164E-01
(PID.TID 0000.0001) %MON forcing_fu_del2              =   1.6840667918309E-04
(PID.TID 0000.0001) %MON forcing_fv_max               =   1.2169402241707E+00
(PID.TID 0000.0001) %MON forcing_fv_min               =  -1.1553956270218E+00
(PID.TID 0000.0001) %MON forcing_fv_mean              =   6.1803514996962E-04
(PID.TID 0000.0001) %MON forcing_fv_sd                =   1.2165551862765E-01
(PID.TID 0000.0001) %MON forcing_fv_del2              =   1.6120501616850E-04
(PID.TID 0000.0001) %MON trAdv_CFL_u_max              =   2.2416543308528E-02
(PID.TID 0000.0001) %MON trAdv_CFL_v_max              =   2.0520722204832E-02
(PID.TID 0000.0001) %MON trAdv_CFL_w_max              =   1.0496601035193E-01
(PID.TID 0000.0001) %MON advcfl_uvel_max              =   2.2716395801649E-02
(PID.TID 0000.0001) %MON advcfl_vvel_max              =   2.0454596615716E-02
(PID.TID 0000.0001) %MON advcfl_wvel_max              =   9.9299169108458E-02
(PID.TID 0000.0001) %MON advcfl_W_hf_max              =   1.0496601035193E-01
(PID.TID 0000.0001) %MON pe_b_mean                    =   2.7366059950228E-03
(PID.TID 0000.0001) %MON ke_max                       =   2.1666961781542E+00
(PID.TID 0000.0001) %MON ke_mean                      =   2.1745079048320E-03
(PID.TID 0000.0001) %MON ke_vol                       =   1.3350064351420E+18
(PID.TID 0000.0001) %MON vort_r_min                   =  -7.3909811002118E-05
(PID.TID 0000.0001) %MON vort_r_max                   =   8.1007244735923E-05
(PID.TID 0000.0001) %MON vort_a_mean                  =  -1.9725077268897E-05
(PID.TID 0000.0001) %MON vort_a_sd                    =   7.4542562527861E-05
(PID.TID 0000.0001) %MON vort_p_mean                  =  -2.1669082267351E-05
(PID.TID 0000.0001) %MON vort_p_sd                    =   9.3619783173266E-05
(PID.TID 0000.0001) %MON surfExpan_theta_mean         =   1.8024667635649E-05
(PID.TID 0000.0001) %MON surfExpan_salt_mean          =  -9.1758943502552E-06
(PID.TID 0000.0001) // =======================================================
(PID.TID 0000.0001) // End MONITOR dynamic field statistics
(PID.TID 0000.0001) // =======================================================
(PID.TID 0000.0001) // =======================================================
(PID.TID 0000.0001) // Begin MONITOR SEAICE statistics
(PID.TID 0000.0001) // =======================================================
(PID.TID 0000.0001) %MON seaice_tsnumber              =                174901
(PID.TID 0000.0001) %MON seaice_time_sec              =   7.8705450000000E+07
(PID.TID 0000.0001) %MON seaice_uice_max              =   1.1975972640545E+00
(PID.TID 0000.0001) %MON seaice_uice_min              =  -1.5395259220645E+00
(PID.TID 0000.0001) %MON seaice_uice_mean             =   1.0493943817200E-02
(PID.TID 0000.0001) %MON seaice_uice_sd               =   1.4988806197740E-01
(PID.TID 0000.0001) %MON seaice_uice_del2             =   3.7902754881806E-04
(PID.TID 0000.0001) %MON seaice_vice_max              =   9.8287823027610E-01
(PID.TID 0000.0001) %MON seaice_vice_min              =  -1.4712614356816E+00
(PID.TID 0000.0001) %MON seaice_vice_mean             =  -1.4208447744466E-02
(PID.TID 0000.0001) %MON seaice_vice_sd               =   1.6102963402485E-01
(PID.TID 0000.0001) %MON seaice_vice_del2             =   3.6634608496595E-04
(PID.TID 0000.0001) %MON seaice_area_max              =   1.0012624847838E+00
(PID.TID 0000.0001) %MON seaice_area_min              =   0.0000000000000E+00
(PID.TID 0000.0001) %MON seaice_area_mean             =   5.7653781823113E-02
(PID.TID 0000.0001) %MON seaice_area_sd               =   2.2075886122730E-01
(PID.TID 0000.0001) %MON seaice_area_del2             =   2.8336850387503E-04
(PID.TID 0000.0001) %MON seaice_heff_max              =   9.9472513508894E+00
(PID.TID 0000.0001) %MON seaice_heff_min              =   0.0000000000000E+00
(PID.TID 0000.0001) %MON seaice_heff_mean             =   1.4928329548280E-01
(PID.TID 0000.0001) %MON seaice_heff_sd               =   7.1926343390614E-01
(PID.TID 0000.0001) %MON seaice_heff_del2             =   1.3201135083436E-03
(PID.TID 0000.0001) %MON seaice_hsnow_max             =   3.2855988671049E+00
(PID.TID 0000.0001) %MON seaice_hsnow_min             =   0.0000000000000E+00
(PID.TID 0000.0001) %MON seaice_hsnow_mean            =   1.2586165734452E-02
(PID.TID 0000.0001) %MON seaice_hsnow_sd              =   6.7404953984479E-02
(PID.TID 0000.0001) %MON seaice_hsnow_del2            =   3.5201104197948E-04
(PID.TID 0000.0001) // =======================================================
(PID.TID 0000.0001) // End MONITOR SEAICE statistics
(PID.TID 0000.0001) // =======================================================
(PID.TID 0000.0001) // =======================================================
(PID.TID 0000.0001) // Begin MONITOR dynamic field statistics
(PID.TID 0000.0001) // =======================================================
(PID.TID 0000.0001) %MON time_tsnumber                =                174902
(PID.TID 0000.0001) %MON time_secondsf                =   7.8705900000000E+07
(PID.TID 0000.0001) %MON dynstat_eta_max              =   2.4163313399192E+00
(PID.TID 0000.0001) %MON dynstat_eta_min              =  -9.9152208580416E+00
(PID.TID 0000.0001) %MON dynstat_eta_mean             =   9.2324462028419E-02
(PID.TID 0000.0001) %MON dynstat_eta_sd               =   9.9104800480168E-01
(PID.TID 0000.0001) %MON dynstat_eta_del2             =   2.0123972901135E-03
(PID.TID 0000.0001) %MON dynstat_uvel_max             =   1.4010131756614E+00
(PID.TID 0000.0001) %MON dynstat_uvel_min             =  -2.2666302366363E+00
(PID.TID 0000.0001) %MON dynstat_uvel_mean            =   6.9309021804115E-03
(PID.TID 0000.0001) %MON dynstat_uvel_sd              =   4.6956839285632E-02
(PID.TID 0000.0001) %MON dynstat_uvel_del2            =   4.4361452951654E-05
(PID.TID 0000.0001) %MON dynstat_vvel_max             =   2.0180657236960E+00
(PID.TID 0000.0001) %MON dynstat_vvel_min             =  -1.7716570603704E+00
(PID.TID 0000.0001) %MON dynstat_vvel_mean            =   2.8874683466343E-03
(PID.TID 0000.0001) %MON dynstat_vvel_sd              =   4.7898850232733E-02
(PID.TID 0000.0001) %MON dynstat_vvel_del2            =   4.3154413444209E-05
(PID.TID 0000.0001) %MON dynstat_wvel_max             =   1.0456861185125E-02
(PID.TID 0000.0001) %MON dynstat_wvel_min             =  -1.0001446384072E-02
(PID.TID 0000.0001) %MON dynstat_wvel_mean            =   1.4989447797064E-07
(PID.TID 0000.0001) %MON dynstat_wvel_sd              =   1.8795021743307E-04
(PID.TID 0000.0001) %MON dynstat_wvel_del2            =   3.9013977283744E-07
(PID.TID 0000.0001) %MON dynstat_theta_max            =   3.2433339935725E+01
(PID.TID 0000.0001) %MON dynstat_theta_min            =  -2.0398825657491E+00
(PID.TID 0000.0001) %MON dynstat_theta_mean           =   3.5917752783653E+00
(PID.TID 0000.0001) %MON dynstat_theta_sd             =   4.4413409351422E+00
(PID.TID 0000.0001) %MON dynstat_theta_del2           =   1.2934378536982E-04
(PID.TID 0000.0001) %MON dynstat_salt_max             =   4.0655989331631E+01
(PID.TID 0000.0001) %MON dynstat_salt_min             =   1.5921349092816E+01
(PID.TID 0000.0001) %MON dynstat_salt_mean            =   3.4724790948179E+01
(PID.TID 0000.0001) %MON dynstat_salt_sd              =   3.7976019312391E-01
(PID.TID 0000.0001) %MON dynstat_salt_del2            =   6.2509160763019E-05
(PID.TID 0000.0001) %MON dynstat_sst_max              =   3.2433339935725E+01
(PID.TID 0000.0001) %MON dynstat_sst_min              =  -2.0398825657491E+00
(PID.TID 0000.0001) %MON dynstat_sst_mean             =   1.8171190781932E+01
(PID.TID 0000.0001) %MON dynstat_sst_sd               =   1.0206309204225E+01
(PID.TID 0000.0001) %MON dynstat_sst_del2             =   1.0980068600602E-03
(PID.TID 0000.0001) %MON dynstat_sss_max              =   3.9463256168800E+01
(PID.TID 0000.0001) %MON dynstat_sss_min              =   1.5921349092816E+01
(PID.TID 0000.0001) %MON dynstat_sss_mean             =   3.4641015015077E+01
(PID.TID 0000.0001) %MON dynstat_sss_sd               =   1.3039349671964E+00
(PID.TID 0000.0001) %MON dynstat_sss_del2             =   1.4652780760936E-03
(PID.TID 0000.0001) %MON forcing_qnet_max             =   1.7896654052734E+03
(PID.TID 0000.0001) %MON forcing_qnet_min             =  -1.4207431640625E+03
(PID.TID 0000.0001) %MON forcing_qnet_mean            =   4.7731065177422E+00
(PID.TID 0000.0001) %MON forcing_qnet_sd              =   2.0481832076902E+02
(PID.TID 0000.0001) %MON forcing_qnet_del2            =   3.7418862004248E-01
(PID.TID 0000.0001) %MON forcing_qsw_max              =   0.0000000000000E+00
(PID.TID 0000.0001) %MON forcing_qsw_min              =  -1.1144682066527E+02
(PID.TID 0000.0001) %MON forcing_qsw_mean             =  -1.8620730988642E+01
(PID.TID 0000.0001) %MON forcing_qsw_sd               =   3.0144129022370E+01
(PID.TID 0000.0001) %MON forcing_qsw_del2             =   2.2814134892694E-02
(PID.TID 0000.0001) %MON forcing_empmr_max            =   1.8233777955174E-02
(PID.TID 0000.0001) %MON forcing_empmr_min            =  -3.5989660769701E-02
(PID.TID 0000.0001) %MON forcing_empmr_mean           =  -2.1246164308756E-06
(PID.TID 0000.0001) %MON forcing_empmr_sd             =   2.9478829369985E-04
(PID.TID 0000.0001) %MON forcing_empmr_del2           =   3.5831682521907E-06
(PID.TID 0000.0001) %MON forcing_fu_max               =   8.6616441607475E-01
(PID.TID 0000.0001) %MON forcing_fu_min               =  -1.3286029739152E+00
(PID.TID 0000.0001) %MON forcing_fu_mean              =   1.0645869718888E-02
(PID.TID 0000.0001) %MON forcing_fu_sd                =   1.2651455479918E-01
(PID.TID 0000.0001) %MON forcing_fu_del2              =   1.6819931442021E-04
(PID.TID 0000.0001) %MON forcing_fv_max               =   1.2173687219620E+00
(PID.TID 0000.0001) %MON forcing_fv_min               =  -1.1614525914192E+00
(PID.TID 0000.0001) %MON forcing_fv_mean              =   6.3069089268596E-04
(PID.TID 0000.0001) %MON forcing_fv_sd                =   1.2172524668117E-01
(PID.TID 0000.0001) %MON forcing_fv_del2              =   1.6138950368852E-04
(PID.TID 0000.0001) %MON trAdv_CFL_u_max              =   2.2372478682525E-02
(PID.TID 0000.0001) %MON trAdv_CFL_v_max              =   2.0543154140289E-02
(PID.TID 0000.0001) %MON trAdv_CFL_w_max              =   1.0497393637018E-01
(PID.TID 0000.0001) %MON advcfl_uvel_max              =   2.2671741749890E-02
(PID.TID 0000.0001) %MON advcfl_vvel_max              =   2.0476956266925E-02
(PID.TID 0000.0001) %MON advcfl_wvel_max              =   9.9292747830131E-02
(PID.TID 0000.0001) %MON advcfl_W_hf_max              =   1.0497393637018E-01
(PID.TID 0000.0001) %MON pe_b_mean                    =   2.7364736970131E-03
(PID.TID 0000.0001) %MON ke_max                       =   2.1700707305499E+00
(PID.TID 0000.0001) %MON ke_mean                      =   2.1966740032510E-03
(PID.TID 0000.0001) %MON ke_vol                       =   1.3350064351420E+18
(PID.TID 0000.0001) %MON vort_r_min                   =  -7.3676095667612E-05
(PID.TID 0000.0001) %MON vort_r_max                   =   8.0828741124732E-05
(PID.TID 0000.0001) %MON vort_a_mean                  =  -1.9725077263347E-05
(PID.TID 0000.0001) %MON vort_a_sd                    =   7.4542596404175E-05
(PID.TID 0000.0001) %MON vort_p_mean                  =  -2.1669082261254E-05
(PID.TID 0000.0001) %MON vort_p_sd                    =   9.3619825725648E-05
(PID.TID 0000.0001) %MON surfExpan_theta_mean         =   1.7807559749100E-05
(PID.TID 0000.0001) %MON surfExpan_salt_mean          =  -1.0544812836657E-05
(PID.TID 0000.0001) // =======================================================
(PID.TID 0000.0001) // End MONITOR dynamic field statistics
(PID.TID 0000.0001) // =======================================================
(PID.TID 0000.0001) // =======================================================
(PID.TID 0000.0001) // Begin MONITOR SEAICE statistics
(PID.TID 0000.0001) // =======================================================
(PID.TID 0000.0001) %MON seaice_tsnumber              =                174902
(PID.TID 0000.0001) %MON seaice_time_sec              =   7.8705900000000E+07
(PID.TID 0000.0001) %MON seaice_uice_max              =   1.1957868291829E+00
(PID.TID 0000.0001) %MON seaice_uice_min              =  -1.5386620524704E+00
(PID.TID 0000.0001) %MON seaice_uice_mean             =   1.0410669548752E-02
(PID.TID 0000.0001) %MON seaice_uice_sd               =   1.4992344457745E-01
(PID.TID 0000.0001) %MON seaice_uice_del2             =   3.7930066637148E-04
(PID.TID 0000.0001) %MON seaice_vice_max              =   9.8319841289372E-01
(PID.TID 0000.0001) %MON seaice_vice_min              =  -1.4723280153158E+00
(PID.TID 0000.0001) %MON seaice_vice_mean             =  -1.4354807500298E-02
(PID.TID 0000.0001) %MON seaice_vice_sd               =   1.6107392970938E-01
(PID.TID 0000.0001) %MON seaice_vice_del2             =   3.6693826103086E-04
(PID.TID 0000.0001) %MON seaice_area_max              =   1.0012279947061E+00
(PID.TID 0000.0001) %MON seaice_area_min              =   0.0000000000000E+00
(PID.TID 0000.0001) %MON seaice_area_mean             =   5.7656547629087E-02
(PID.TID 0000.0001) %MON seaice_area_sd               =   2.2075759650291E-01
(PID.TID 0000.0001) %MON seaice_area_del2             =   2.8328793598030E-04
(PID.TID 0000.0001) %MON seaice_heff_max              =   9.9472427840807E+00
(PID.TID 0000.0001) %MON seaice_heff_min              =   0.0000000000000E+00
(PID.TID 0000.0001) %MON seaice_heff_mean             =   1.4927982492855E-01
(PID.TID 0000.0001) %MON seaice_heff_sd               =   7.1925187223273E-01
(PID.TID 0000.0001) %MON seaice_heff_del2             =   1.3195397671194E-03
(PID.TID 0000.0001) %MON seaice_hsnow_max             =   3.2855959365708E+00
(PID.TID 0000.0001) %MON seaice_hsnow_min             =   0.0000000000000E+00
(PID.TID 0000.0001) %MON seaice_hsnow_mean            =   1.2585412465461E-02
(PID.TID 0000.0001) %MON seaice_hsnow_sd              =   6.7393985788305E-02
(PID.TID 0000.0001) %MON seaice_hsnow_del2            =   3.5171624592896E-04
(PID.TID 0000.0001) // =======================================================
(PID.TID 0000.0001) // End MONITOR SEAICE statistics
(PID.TID 0000.0001) // =======================================================
(PID.TID 0000.0001) // =======================================================
(PID.TID 0000.0001) // Begin MONITOR dynamic field statistics
(PID.TID 0000.0001) // =======================================================
(PID.TID 0000.0001) %MON time_tsnumber                =                174903
(PID.TID 0000.0001) %MON time_secondsf                =   7.8706350000000E+07
(PID.TID 0000.0001) %MON dynstat_eta_max              =   2.4525076295801E+00
(PID.TID 0000.0001) %MON dynstat_eta_min              =  -9.9218307011557E+00
(PID.TID 0000.0001) %MON dynstat_eta_mean             =   9.2138460413646E-02
(PID.TID 0000.0001) %MON dynstat_eta_sd               =   9.9320379513050E-01
(PID.TID 0000.0001) %MON dynstat_eta_del2             =   2.0124532688495E-03
(PID.TID 0000.0001) %MON dynstat_uvel_max             =   1.3994397430719E+00
(PID.TID 0000.0001) %MON dynstat_uvel_min             =  -2.2715810020822E+00
(PID.TID 0000.0001) %MON dynstat_uvel_mean            =   6.8923619313177E-03
(PID.TID 0000.0001) %MON dynstat_uvel_sd              =   4.7190078722727E-02
(PID.TID 0000.0001) %MON dynstat_uvel_del2            =   4.4481555845579E-05
(PID.TID 0000.0001) %MON dynstat_vvel_max             =   2.0197091905849E+00
(PID.TID 0000.0001) %MON dynstat_vvel_min             =  -1.7690863555008E+00
(PID.TID 0000.0001) %MON dynstat_vvel_mean            =   2.8403456104522E-03
(PID.TID 0000.0001) %MON dynstat_vvel_sd              =   4.8162372672779E-02
(PID.TID 0000.0001) %MON dynstat_vvel_del2            =   4.3276141872987E-05
(PID.TID 0000.0001) %MON dynstat_wvel_max             =   1.0555948211383E-02
(PID.TID 0000.0001) %MON dynstat_wvel_min             =  -1.0035505063680E-02
(PID.TID 0000.0001) %MON dynstat_wvel_mean            =   1.2691556150388E-07
(PID.TID 0000.0001) %MON dynstat_wvel_sd              =   1.8870796675732E-04
(PID.TID 0000.0001) %MON dynstat_wvel_del2            =   3.9131859071428E-07
(PID.TID 0000.0001) %MON dynstat_theta_max            =   3.2431104935408E+01
(PID.TID 0000.0001) %MON dynstat_theta_min            =  -2.0397316257736E+00
(PID.TID 0000.0001) %MON dynstat_theta_mean           =   3.5917730445107E+00
(PID.TID 0000.0001) %MON dynstat_theta_sd             =   4.4413363715531E+00
(PID.TID 0000.0001) %MON dynstat_theta_del2           =   1.2940072690970E-04
(PID.TID 0000.0001) %MON dynstat_salt_max             =   4.0655989321986E+01
(PID.TID 0000.0001) %MON dynstat_salt_min             =   1.5920702871693E+01
(PID.TID 0000.0001) %MON dynstat_salt_mean            =   3.4724790608693E+01
(PID.TID 0000.0001) %MON dynstat_salt_sd              =   3.7976119670540E-01
(PID.TID 0000.0001) %MON dynstat_salt_del2            =   6.2482372930423E-05
(PID.TID 0000.0001) %MON dynstat_sst_max              =   3.2431104935408E+01
(PID.TID 0000.0001) %MON dynstat_sst_min              =  -2.0397316257736E+00
(PID.TID 0000.0001) %MON dynstat_sst_mean             =   1.8171306643340E+01
(PID.TID 0000.0001) %MON dynstat_sst_sd               =   1.0206519860311E+01
(PID.TID 0000.0001) %MON dynstat_sst_del2             =   1.0978558008330E-03
(PID.TID 0000.0001) %MON dynstat_sss_max              =   3.9463282423233E+01
(PID.TID 0000.0001) %MON dynstat_sss_min              =   1.5920702871693E+01
(PID.TID 0000.0001) %MON dynstat_sss_mean             =   3.4640995084855E+01
(PID.TID 0000.0001) %MON dynstat_sss_sd               =   1.3039769272370E+00
(PID.TID 0000.0001) %MON dynstat_sss_del2             =   1.4653512375825E-03
(PID.TID 0000.0001) %MON forcing_qnet_max             =   1.7610863037109E+03
(PID.TID 0000.0001) %MON forcing_qnet_min             =  -1.2854787597656E+03
(PID.TID 0000.0001) %MON forcing_qnet_mean            =   4.1730724317338E+00
(PID.TID 0000.0001) %MON forcing_qnet_sd              =   2.0483467344820E+02
(PID.TID 0000.0001) %MON forcing_qnet_del2            =   3.7039559092979E-01
(PID.TID 0000.0001) %MON forcing_qsw_max              =   0.0000000000000E+00
(PID.TID 0000.0001) %MON forcing_qsw_min              =  -1.1142904382837E+02
(PID.TID 0000.0001) %MON forcing_qsw_mean             =  -1.8723368942907E+01
(PID.TID 0000.0001) %MON forcing_qsw_sd               =   3.0100824249445E+01
(PID.TID 0000.0001) %MON forcing_qsw_del2             =   2.2845158867547E-02
(PID.TID 0000.0001) %MON forcing_empmr_max            =   1.9104275852442E-02
(PID.TID 0000.0001) %MON forcing_empmr_min            =  -3.6720626056194E-02
(PID.TID 0000.0001) %MON forcing_empmr_mean           =  -2.2016864590378E-06
(PID.TID 0000.0001) %MON forcing_empmr_sd             =   3.0074540679813E-04
(PID.TID 0000.0001) %MON forcing_empmr_del2           =   3.6360135245228E-06
(PID.TID 0000.0001) %MON forcing_fu_max               =   8.6363497376442E-01
(PID.TID 0000.0001) %MON forcing_fu_min               =  -1.3239564611542E+00
(PID.TID 0000.0001) %MON forcing_fu_mean              =   1.0649709088981E-02
(PID.TID 0000.0001) %MON forcing_fu_sd                =   1.2646931922784E-01
(PID.TID 0000.0001) %MON forcing_fu_del2              =   1.6796214611627E-04
(PID.TID 0000.0001) %MON forcing_fv_max               =   1.2152152061462E+00
(PID.TID 0000.0001) %MON forcing_fv_min               =  -1.1661449670792E+00
(PID.TID 0000.0001) %MON forcing_fv_mean              =   6.4118104690808E-04
(PID.TID 0000.0001) %MON forcing_fv_sd                =   1.2178960967609E-01
(PID.TID 0000.0001) %MON forcing_fv_del2              =   1.6147939297667E-04
(PID.TID 0000.0001) %MON trAdv_CFL_u_max              =   2.2329363518180E-02
(PID.TID 0000.0001) %MON trAdv_CFL_v_max              =   2.0559884018423E-02
(PID.TID 0000.0001) %MON trAdv_CFL_w_max              =   1.0494763227982E-01
(PID.TID 0000.0001) %MON advcfl_uvel_max              =   2.2628049860162E-02
(PID.TID 0000.0001) %MON advcfl_vvel_max              =   2.0493632235015E-02
(PID.TID 0000.0001) %MON advcfl_wvel_max              =   9.9252598121669E-02
(PID.TID 0000.0001) %MON advcfl_W_hf_max              =   1.0494763227982E-01
(PID.TID 0000.0001) %MON pe_b_mean                    =   2.7358496276569E-03
(PID.TID 0000.0001) %MON ke_max                       =   2.1731440173533E+00
(PID.TID 0000.0001) %MON ke_mean                      =   2.2190817154666E-03
(PID.TID 0000.0001) %MON ke_vol                       =   1.3350064351420E+18
(PID.TID 0000.0001) %MON vort_r_min                   =  -7.3447290535092E-05
(PID.TID 0000.0001) %MON vort_r_max                   =   8.0655323055296E-05
(PID.TID 0000.0001) %MON vort_a_mean                  =  -1.9725077258165E-05
(PID.TID 0000.0001) %MON vort_a_sd                    =   7.4542630988735E-05
(PID.TID 0000.0001) %MON vort_p_mean                  =  -2.1669082255562E-05
(PID.TID 0000.0001) %MON vort_p_sd                    =   9.3619868561375E-05
(PID.TID 0000.0001) %MON surfExpan_theta_mean         =   1.7500697670441E-05
(PID.TID 0000.0001) %MON surfExpan_salt_mean          =  -1.2011650401518E-05
(PID.TID 0000.0001) // =======================================================
(PID.TID 0000.0001) // End MONITOR dynamic field statistics
(PID.TID 0000.0001) // =======================================================
(PID.TID 0000.0001) // =======================================================
(PID.TID 0000.0001) // Begin MONITOR SEAICE statistics
(PID.TID 0000.0001) // =======================================================
(PID.TID 0000.0001) %MON seaice_tsnumber              =                174903
(PID.TID 0000.0001) %MON seaice_time_sec              =   7.8706350000000E+07
(PID.TID 0000.0001) %MON seaice_uice_max              =   1.1939939923329E+00
(PID.TID 0000.0001) %MON seaice_uice_min              =  -1.5369210723330E+00
(PID.TID 0000.0001) %MON seaice_uice_mean             =   1.0324967614819E-02
(PID.TID 0000.0001) %MON seaice_uice_sd               =   1.4995691301299E-01
(PID.TID 0000.0001) %MON seaice_uice_del2             =   3.7964564035994E-04
(PID.TID 0000.0001) %MON seaice_vice_max              =   9.8369297556702E-01
(PID.TID 0000.0001) %MON seaice_vice_min              =  -1.4735712256529E+00
(PID.TID 0000.0001) %MON seaice_vice_mean             =  -1.4507452099089E-02
(PID.TID 0000.0001) %MON seaice_vice_sd               =   1.6112297058196E-01
(PID.TID 0000.0001) %MON seaice_vice_del2             =   3.6756644544643E-04
(PID.TID 0000.0001) %MON seaice_area_max              =   1.0011908196829E+00
(PID.TID 0000.0001) %MON seaice_area_min              =   0.0000000000000E+00
(PID.TID 0000.0001) %MON seaice_area_mean             =   5.7659334621117E-02
(PID.TID 0000.0001) %MON seaice_area_sd               =   2.2075640140912E-01
(PID.TID 0000.0001) %MON seaice_area_del2             =   2.8321396404537E-04
(PID.TID 0000.0001) %MON seaice_heff_max              =   9.9472351713560E+00
(PID.TID 0000.0001) %MON seaice_heff_min              =   0.0000000000000E+00
(PID.TID 0000.0001) %MON seaice_heff_mean             =   1.4927635751640E-01
(PID.TID 0000.0001) %MON seaice_heff_sd               =   7.1924024745823E-01
(PID.TID 0000.0001) %MON seaice_heff_del2             =   1.3189683097557E-03
(PID.TID 0000.0001) %MON seaice_hsnow_max             =   3.2855932433849E+00
(PID.TID 0000.0001) %MON seaice_hsnow_min             =   0.0000000000000E+00
(PID.TID 0000.0001) %MON seaice_hsnow_mean            =   1.2584669310374E-02
(PID.TID 0000.0001) %MON seaice_hsnow_sd              =   6.7383003047275E-02
(PID.TID 0000.0001) %MON seaice_hsnow_del2            =   3.5142230597420E-04
(PID.TID 0000.0001) // =======================================================
(PID.TID 0000.0001) // End MONITOR SEAICE statistics
(PID.TID 0000.0001) // =======================================================
(PID.TID 0000.0001) // =======================================================
(PID.TID 0000.0001) // Begin MONITOR dynamic field statistics
(PID.TID 0000.0001) // =======================================================
(PID.TID 0000.0001) %MON time_tsnumber                =                174904
(PID.TID 0000.0001) %MON time_secondsf                =   7.8706800000000E+07
(PID.TID 0000.0001) %MON dynstat_eta_max              =   2.4850618608450E+00
(PID.TID 0000.0001) %MON dynstat_eta_min              =  -9.9332925719765E+00
(PID.TID 0000.0001) %MON dynstat_eta_mean             =   9.1931610020096E-02
(PID.TID 0000.0001) %MON dynstat_eta_sd               =   9.9537987264650E-01
(PID.TID 0000.0001) %MON dynstat_eta_del2             =   2.0125009384275E-03
(PID.TID 0000.0001) %MON dynstat_uvel_max             =   1.3978399882437E+00
(PID.TID 0000.0001) %MON dynstat_uvel_min             =  -2.2763452749378E+00
(PID.TID 0000.0001) %MON dynstat_uvel_mean            =   6.8551844585750E-03
(PID.TID 0000.0001) %MON dynstat_uvel_sd              =   4.7423702159105E-02
(PID.TID 0000.0001) %MON dynstat_uvel_del2            =   4.4602294577878E-05
(PID.TID 0000.0001) %MON dynstat_vvel_max             =   2.0207901283195E+00
(PID.TID 0000.0001) %MON dynstat_vvel_min             =  -1.7666403772792E+00
(PID.TID 0000.0001) %MON dynstat_vvel_mean            =   2.7925512636709E-03
(PID.TID 0000.0001) %MON dynstat_vvel_sd              =   4.8427924842600E-02
(PID.TID 0000.0001) %MON dynstat_vvel_del2            =   4.3398975915994E-05
(PID.TID 0000.0001) %MON dynstat_wvel_max             =   1.0654292028094E-02
(PID.TID 0000.0001) %MON dynstat_wvel_min             =  -1.0068888169565E-02
(PID.TID 0000.0001) %MON dynstat_wvel_mean            =   1.0299373568106E-07
(PID.TID 0000.0001) %MON dynstat_wvel_sd              =   1.8946344584460E-04
(PID.TID 0000.0001) %MON dynstat_wvel_del2            =   3.9248986100538E-07
(PID.TID 0000.0001) %MON dynstat_theta_max            =   3.2428761657631E+01
(PID.TID 0000.0001) %MON dynstat_theta_min            =  -2.0395823507261E+00
(PID.TID 0000.0001) %MON dynstat_theta_mean           =   3.5917708831061E+00
(PID.TID 0000.0001) %MON dynstat_theta_sd             =   4.4413320906142E+00
(PID.TID 0000.0001) %MON dynstat_theta_del2           =   1.2944014417715E-04
(PID.TID 0000.0001) %MON dynstat_salt_max             =   4.0655989313199E+01
(PID.TID 0000.0001) %MON dynstat_salt_min             =   1.5920085481440E+01
(PID.TID 0000.0001) %MON dynstat_salt_mean            =   3.4724790263276E+01
(PID.TID 0000.0001) %MON dynstat_salt_sd              =   3.7976209531086E-01
(PID.TID 0000.0001) %MON dynstat_salt_del2            =   6.2442395337502E-05
(PID.TID 0000.0001) %MON dynstat_sst_max              =   3.2428761657631E+01
(PID.TID 0000.0001) %MON dynstat_sst_min              =  -2.0395823507261E+00
(PID.TID 0000.0001) %MON dynstat_sst_mean             =   1.8171430082638E+01
(PID.TID 0000.0001) %MON dynstat_sst_sd               =   1.0206735699686E+01
(PID.TID 0000.0001) %MON dynstat_sst_del2             =   1.0943363645478E-03
(PID.TID 0000.0001) %MON dynstat_sss_max              =   3.9463308953993E+01
(PID.TID 0000.0001) %MON dynstat_sss_min              =   1.5920085481440E+01
(PID.TID 0000.0001) %MON dynstat_sss_mean             =   3.4640976600544E+01
(PID.TID 0000.0001) %MON dynstat_sss_sd               =   1.3040047503337E+00
(PID.TID 0000.0001) %MON dynstat_sss_del2             =   1.4645168056413E-03
(PID.TID 0000.0001) %MON forcing_qnet_max             =   9.8497015380859E+02
(PID.TID 0000.0001) %MON forcing_qnet_min             =  -2.3582794013734E+04
(PID.TID 0000.0001) %MON forcing_qnet_mean            =   3.2221798539266E+00
(PID.TID 0000.0001) %MON forcing_qnet_sd              =   2.2362555406082E+02
(PID.TID 0000.0001) %MON forcing_qnet_del2            =   1.0154205261136E+00
(PID.TID 0000.0001) %MON forcing_qsw_max              =   0.0000000000000E+00
(PID.TID 0000.0001) %MON forcing_qsw_min              =  -1.1132927293971E+02
(PID.TID 0000.0001) %MON forcing_qsw_mean             =  -1.8814218744930E+01
(PID.TID 0000.0001) %MON forcing_qsw_sd               =   3.0045864579655E+01
(PID.TID 0000.0001) %MON forcing_qsw_del2             =   2.2865382313069E-02
(PID.TID 0000.0001) %MON forcing_empmr_max            =   2.0555343478918E-02
(PID.TID 0000.0001) %MON forcing_empmr_min            =  -3.7983089685440E-02
(PID.TID 0000.0001) %MON forcing_empmr_mean           =  -2.0484196726531E-06
(PID.TID 0000.0001) %MON forcing_empmr_sd             =   3.0630730765938E-04
(PID.TID 0000.0001) %MON forcing_empmr_del2           =   3.7290985752640E-06
(PID.TID 0000.0001) %MON forcing_fu_max               =   8.6422753334045E-01
(PID.TID 0000.0001) %MON forcing_fu_min               =  -1.3215233473810E+00
(PID.TID 0000.0001) %MON forcing_fu_mean              =   1.0653862804057E-02
(PID.TID 0000.0001) %MON forcing_fu_sd                =   1.2637219163737E-01
(PID.TID 0000.0001) %MON forcing_fu_del2              =   1.6764952107505E-04
(PID.TID 0000.0001) %MON forcing_fv_max               =   1.2128760814667E+00
(PID.TID 0000.0001) %MON forcing_fv_min               =  -1.1685331463814E+00
(PID.TID 0000.0001) %MON forcing_fv_mean              =   6.5804234062474E-04
(PID.TID 0000.0001) %MON forcing_fv_sd                =   1.2189619055208E-01
(PID.TID 0000.0001) %MON forcing_fv_del2              =   1.6151398467883E-04
(PID.TID 0000.0001) %MON trAdv_CFL_u_max              =   2.2287095579321E-02
(PID.TID 0000.0001) %MON trAdv_CFL_v_max              =   2.0570887560198E-02
(PID.TID 0000.0001) %MON trAdv_CFL_w_max              =   1.0488706311893E-01
(PID.TID 0000.0001) %MON advcfl_uvel_max              =   2.2585216528742E-02
(PID.TID 0000.0001) %MON advcfl_vvel_max              =   2.0504600319185E-02
(PID.TID 0000.0001) %MON advcfl_wvel_max              =   9.9178743264938E-02
(PID.TID 0000.0001) %MON advcfl_W_hf_max              =   1.0488706311893E-01
(PID.TID 0000.0001) %MON pe_b_mean                    =   2.7347128452949E-03
(PID.TID 0000.0001) %MON ke_max                       =   2.1759175475604E+00
(PID.TID 0000.0001) %MON ke_mean                      =   2.2417319990912E-03
(PID.TID 0000.0001) %MON ke_vol                       =   1.3350064351420E+18
(PID.TID 0000.0001) %MON vort_r_min                   =  -7.3223232898651E-05
(PID.TID 0000.0001) %MON vort_r_max                   =   8.0486684522438E-05
(PID.TID 0000.0001) %MON vort_a_mean                  =  -1.9725077254011E-05
(PID.TID 0000.0001) %MON vort_a_sd                    =   7.4542666325358E-05
(PID.TID 0000.0001) %MON vort_p_mean                  =  -2.1669082250998E-05
(PID.TID 0000.0001) %MON vort_p_sd                    =   9.3619911030333E-05
(PID.TID 0000.0001) %MON surfExpan_theta_mean         =   1.7125182705264E-05
(PID.TID 0000.0001) %MON surfExpan_salt_mean          =  -1.3526055616962E-05
(PID.TID 0000.0001) // =======================================================
(PID.TID 0000.0001) // End MONITOR dynamic field statistics
(PID.TID 0000.0001) // =======================================================
(PID.TID 0000.0001) // =======================================================
(PID.TID 0000.0001) // Begin MONITOR SEAICE statistics
(PID.TID 0000.0001) // =======================================================
(PID.TID 0000.0001) %MON seaice_tsnumber              =                174904
(PID.TID 0000.0001) %MON seaice_time_sec              =   7.8706800000000E+07
(PID.TID 0000.0001) %MON seaice_uice_max              =   1.1921889954774E+00
(PID.TID 0000.0001) %MON seaice_uice_min              =  -1.5343152417653E+00
(PID.TID 0000.0001) %MON seaice_uice_mean             =   1.0241757057382E-02
(PID.TID 0000.0001) %MON seaice_uice_sd               =   1.4999016608116E-01
(PID.TID 0000.0001) %MON seaice_uice_del2             =   3.8001724432122E-04
(PID.TID 0000.0001) %MON seaice_vice_max              =   9.8436539741903E-01
(PID.TID 0000.0001) %MON seaice_vice_min              =  -1.4751280981391E+00
(PID.TID 0000.0001) %MON seaice_vice_mean             =  -1.4666516066454E-02
(PID.TID 0000.0001) %MON seaice_vice_sd               =   1.6117740562376E-01
(PID.TID 0000.0001) %MON seaice_vice_del2             =   3.6820791878363E-04
(PID.TID 0000.0001) %MON seaice_area_max              =   1.0011527172842E+00
(PID.TID 0000.0001) %MON seaice_area_min              =   0.0000000000000E+00
(PID.TID 0000.0001) %MON seaice_area_mean             =   5.7662143303410E-02
(PID.TID 0000.0001) %MON seaice_area_sd               =   2.2075526530166E-01
(PID.TID 0000.0001) %MON seaice_area_del2             =   2.8314408319602E-04
(PID.TID 0000.0001) %MON seaice_heff_max              =   9.9472285122535E+00
(PID.TID 0000.0001) %MON seaice_heff_min              =   0.0000000000000E+00
(PID.TID 0000.0001) %MON seaice_heff_mean             =   1.4927289594728E-01
(PID.TID 0000.0001) %MON seaice_heff_sd               =   7.1922855945804E-01
(PID.TID 0000.0001) %MON seaice_heff_del2             =   1.3183976391550E-03
(PID.TID 0000.0001) %MON seaice_hsnow_max             =   3.2855907973575E+00
(PID.TID 0000.0001) %MON seaice_hsnow_min             =   0.0000000000000E+00
(PID.TID 0000.0001) %MON seaice_hsnow_mean            =   1.2583907579508E-02
(PID.TID 0000.0001) %MON seaice_hsnow_sd              =   6.7371984602095E-02
(PID.TID 0000.0001) %MON seaice_hsnow_del2            =   3.5112928826183E-04
(PID.TID 0000.0001) // =======================================================
(PID.TID 0000.0001) // End MONITOR SEAICE statistics
(PID.TID 0000.0001) // =======================================================
(PID.TID 0000.0001) // =======================================================
(PID.TID 0000.0001) // Begin MONITOR dynamic field statistics
(PID.TID 0000.0001) // =======================================================
(PID.TID 0000.0001) %MON time_tsnumber                =                174905
(PID.TID 0000.0001) %MON time_secondsf                =   7.8707250000000E+07
(PID.TID 0000.0001) %MON dynstat_eta_max              =   2.5139287992815E+00
(PID.TID 0000.0001) %MON dynstat_eta_min              =  -9.9469382403915E+00
(PID.TID 0000.0001) %MON dynstat_eta_mean             =   9.1703355915294E-02
(PID.TID 0000.0001) %MON dynstat_eta_sd               =   9.9757490336676E-01
(PID.TID 0000.0001) %MON dynstat_eta_del2             =   2.0125352637076E-03
(PID.TID 0000.0001) %MON dynstat_uvel_max             =   1.3962278736420E+00
(PID.TID 0000.0001) %MON dynstat_uvel_min             =  -2.2809228867608E+00
(PID.TID 0000.0001) %MON dynstat_uvel_mean            =   6.8195382130812E-03
(PID.TID 0000.0001) %MON dynstat_uvel_sd              =   4.7657709334612E-02
(PID.TID 0000.0001) %MON dynstat_uvel_del2            =   4.4724119733808E-05
(PID.TID 0000.0001) %MON dynstat_vvel_max             =   2.0213086697710E+00
(PID.TID 0000.0001) %MON dynstat_vvel_min             =  -1.7643047963217E+00
(PID.TID 0000.0001) %MON dynstat_vvel_mean            =   2.7441769616619E-03
(PID.TID 0000.0001) %MON dynstat_vvel_sd              =   4.8695525781187E-02
(PID.TID 0000.0001) %MON dynstat_vvel_del2            =   4.3522215462305E-05
(PID.TID 0000.0001) %MON dynstat_wvel_max             =   1.0751825622784E-02
(PID.TID 0000.0001) %MON dynstat_wvel_min             =  -1.0101701165746E-02
(PID.TID 0000.0001) %MON dynstat_wvel_mean            =   7.8081815674197E-08
(PID.TID 0000.0001) %MON dynstat_wvel_sd              =   1.9021643001979E-04
(PID.TID 0000.0001) %MON dynstat_wvel_del2            =   3.9365339738531E-07
(PID.TID 0000.0001) %MON dynstat_theta_max            =   3.2426324389355E+01
(PID.TID 0000.0001) %MON dynstat_theta_min            =  -2.0394396061913E+00
(PID.TID 0000.0001) %MON dynstat_theta_mean           =   3.5917687832459E+00
(PID.TID 0000.0001) %MON dynstat_theta_sd             =   4.4413280394896E+00
(PID.TID 0000.0001) %MON dynstat_theta_del2           =   1.2949767358353E-04
(PID.TID 0000.0001) %MON dynstat_salt_max             =   4.0655989305343E+01
(PID.TID 0000.0001) %MON dynstat_salt_min             =   1.5919495254025E+01
(PID.TID 0000.0001) %MON dynstat_salt_mean            =   3.4724789906769E+01
(PID.TID 0000.0001) %MON dynstat_salt_sd              =   3.7976312842123E-01
(PID.TID 0000.0001) %MON dynstat_salt_del2            =   6.2415860823160E-05
(PID.TID 0000.0001) %MON dynstat_sst_max              =   3.2426324389355E+01
(PID.TID 0000.0001) %MON dynstat_sst_min              =  -2.0394396061913E+00
(PID.TID 0000.0001) %MON dynstat_sst_mean             =   1.8171557149086E+01
(PID.TID 0000.0001) %MON dynstat_sst_sd               =   1.0206955305194E+01
(PID.TID 0000.0001) %MON dynstat_sst_del2             =   1.0942111477408E-03
(PID.TID 0000.0001) %MON dynstat_sss_max              =   3.9463335761078E+01
(PID.TID 0000.0001) %MON dynstat_sss_min              =   1.5919495254025E+01
(PID.TID 0000.0001) %MON dynstat_sss_mean             =   3.4640956880256E+01
(PID.TID 0000.0001) %MON dynstat_sss_sd               =   1.3040461454933E+00
(PID.TID 0000.0001) %MON dynstat_sss_del2             =   1.4645950058921E-03
(PID.TID 0000.0001) %MON forcing_qnet_max             =   7.5953553042391E+02
(PID.TID 0000.0001) %MON forcing_qnet_min             =  -1.4945229028300E+03
(PID.TID 0000.0001) %MON forcing_qnet_mean            =   2.9478894582832E+00
(PID.TID 0000.0001) %MON forcing_qnet_sd              =   2.0452471727950E+02
(PID.TID 0000.0001) %MON forcing_qnet_del2            =   3.6048252646724E-01
(PID.TID 0000.0001) %MON forcing_qsw_max              =   0.0000000000000E+00
(PID.TID 0000.0001) %MON forcing_qsw_min              =  -1.1148027529230E+02
(PID.TID 0000.0001) %MON forcing_qsw_mean             =  -1.8892693205816E+01
(PID.TID 0000.0001) %MON forcing_qsw_sd               =   2.9979873362758E+01
(PID.TID 0000.0001) %MON forcing_qsw_del2             =   2.2874710431682E-02
(PID.TID 0000.0001) %MON forcing_empmr_max            =   2.9077546671033E-02
(PID.TID 0000.0001) %MON forcing_empmr_min            =  -3.6711491644382E-02
(PID.TID 0000.0001) %MON forcing_empmr_mean           =  -2.0350354225354E-06
(PID.TID 0000.0001) %MON forcing_empmr_sd             =   3.0929316829208E-04
(PID.TID 0000.0001) %MON forcing_empmr_del2           =   3.7350706873548E-06
(PID.TID 0000.0001) %MON forcing_fu_max               =   8.6938810348511E-01
(PID.TID 0000.0001) %MON forcing_fu_min               =  -1.3186824695554E+00
(PID.TID 0000.0001) %MON forcing_fu_mean              =   1.0668412758569E-02
(PID.TID 0000.0001) %MON forcing_fu_sd                =   1.2632676707203E-01
(PID.TID 0000.0001) %MON forcing_fu_del2              =   1.6745115993396E-04
(PID.TID 0000.0001) %MON forcing_fv_max               =   1.2130174636841E+00
(PID.TID 0000.0001) %MON forcing_fv_min               =  -1.1748070716858E+00
(PID.TID 0000.0001) %MON forcing_fv_mean              =   6.7222290474813E-04
(PID.TID 0000.0001) %MON forcing_fv_sd                =   1.2193718314776E-01
(PID.TID 0000.0001) %MON forcing_fv_del2              =   1.6154992240366E-04
(PID.TID 0000.0001) %MON trAdv_CFL_u_max              =   2.2245609258783E-02
(PID.TID 0000.0001) %MON trAdv_CFL_v_max              =   2.0576166118196E-02
(PID.TID 0000.0001) %MON trAdv_CFL_w_max              =   1.0479315632820E-01
(PID.TID 0000.0001) %MON advcfl_uvel_max              =   2.2543175270876E-02
(PID.TID 0000.0001) %MON advcfl_vvel_max              =   2.0509861867657E-02
(PID.TID 0000.0001) %MON advcfl_wvel_max              =   9.9072162780396E-02
(PID.TID 0000.0001) %MON advcfl_W_hf_max              =   1.0479315632820E-01
(PID.TID 0000.0001) %MON pe_b_mean                    =   2.7330436698321E-03
(PID.TID 0000.0001) %MON ke_max                       =   2.1783907639580E+00
(PID.TID 0000.0001) %MON ke_mean                      =   2.2646288520198E-03
(PID.TID 0000.0001) %MON ke_vol                       =   1.3350064351420E+18
(PID.TID 0000.0001) %MON vort_r_min                   =  -7.3003719732555E-05
(PID.TID 0000.0001) %MON vort_r_max                   =   8.0322546445051E-05
(PID.TID 0000.0001) %MON vort_a_mean                  =  -1.9725077251164E-05
(PID.TID 0000.0001) %MON vort_a_sd                    =   7.4542702434944E-05
(PID.TID 0000.0001) %MON vort_p_mean                  =  -2.1669082247870E-05
(PID.TID 0000.0001) %MON vort_p_sd                    =   9.3619953934487E-05
(PID.TID 0000.0001) %MON surfExpan_theta_mean         =   1.6671407267770E-05
(PID.TID 0000.0001) %MON surfExpan_salt_mean          =  -1.5096379145050E-05
(PID.TID 0000.0001) // =======================================================
(PID.TID 0000.0001) // End MONITOR dynamic field statistics
(PID.TID 0000.0001) // =======================================================
(PID.TID 0000.0001) // =======================================================
(PID.TID 0000.0001) // Begin MONITOR SEAICE statistics
(PID.TID 0000.0001) // =======================================================
(PID.TID 0000.0001) %MON seaice_tsnumber              =                174905
(PID.TID 0000.0001) %MON seaice_time_sec              =   7.8707250000000E+07
(PID.TID 0000.0001) %MON seaice_uice_max              =   1.1903821825037E+00
(PID.TID 0000.0001) %MON seaice_uice_min              =  -1.5308727707755E+00
(PID.TID 0000.0001) %MON seaice_uice_mean             =   1.0159835204969E-02
(PID.TID 0000.0001) %MON seaice_uice_sd               =   1.5001661737108E-01
(PID.TID 0000.0001) %MON seaice_uice_del2             =   3.8041636953437E-04
(PID.TID 0000.0001) %MON seaice_vice_max              =   9.8522291074189E-01
(PID.TID 0000.0001) %MON seaice_vice_min              =  -1.4767803028870E+00
(PID.TID 0000.0001) %MON seaice_vice_mean             =  -1.4831137960810E-02
(PID.TID 0000.0001) %MON seaice_vice_sd               =   1.6123668831961E-01
(PID.TID 0000.0001) %MON seaice_vice_del2             =   3.6887062559994E-04
(PID.TID 0000.0001) %MON seaice_area_max              =   1.0011442730049E+00
(PID.TID 0000.0001) %MON seaice_area_min              =   0.0000000000000E+00
(PID.TID 0000.0001) %MON seaice_area_mean             =   5.7664972980512E-02
(PID.TID 0000.0001) %MON seaice_area_sd               =   2.2075418598743E-01
(PID.TID 0000.0001) %MON seaice_area_del2             =   2.8307789314185E-04
(PID.TID 0000.0001) %MON seaice_heff_max              =   9.9472208996936E+00
(PID.TID 0000.0001) %MON seaice_heff_min              =   0.0000000000000E+00
(PID.TID 0000.0001) %MON seaice_heff_mean             =   1.4926944042396E-01
(PID.TID 0000.0001) %MON seaice_heff_sd               =   7.1921681234888E-01
(PID.TID 0000.0001) %MON seaice_heff_del2             =   1.3178276330560E-03
(PID.TID 0000.0001) %MON seaice_hsnow_max             =   3.2855885857523E+00
(PID.TID 0000.0001) %MON seaice_hsnow_min             =   0.0000000000000E+00
(PID.TID 0000.0001) %MON seaice_hsnow_mean            =   1.2583141672301E-02
(PID.TID 0000.0001) %MON seaice_hsnow_sd              =   6.7360963127839E-02
(PID.TID 0000.0001) %MON seaice_hsnow_del2            =   3.5083700988799E-04
(PID.TID 0000.0001) // =======================================================
(PID.TID 0000.0001) // End MONITOR SEAICE statistics
(PID.TID 0000.0001) // =======================================================
(PID.TID 0000.0001) // =======================================================
(PID.TID 0000.0001) // Begin MONITOR dynamic field statistics
(PID.TID 0000.0001) // =======================================================
(PID.TID 0000.0001) %MON time_tsnumber                =                174906
(PID.TID 0000.0001) %MON time_secondsf                =   7.8707700000000E+07
(PID.TID 0000.0001) %MON dynstat_eta_max              =   2.5390449924868E+00
(PID.TID 0000.0001) %MON dynstat_eta_min              =  -9.9601512111267E+00
(PID.TID 0000.0001) %MON dynstat_eta_mean             =   9.1452985766395E-02
(PID.TID 0000.0001) %MON dynstat_eta_sd               =   9.9978793454556E-01
(PID.TID 0000.0001) %MON dynstat_eta_del2             =   2.0125554548463E-03
(PID.TID 0000.0001) %MON dynstat_uvel_max             =   1.3945835150222E+00
(PID.TID 0000.0001) %MON dynstat_uvel_min             =  -2.2853147374499E+00
(PID.TID 0000.0001) %MON dynstat_uvel_mean            =   6.7855700667666E-03
(PID.TID 0000.0001) %MON dynstat_uvel_sd              =   4.7892092452493E-02
(PID.TID 0000.0001) %MON dynstat_uvel_del2            =   4.4846554161254E-05
(PID.TID 0000.0001) %MON dynstat_vvel_max             =   2.0212676686915E+00
(PID.TID 0000.0001) %MON dynstat_vvel_min             =  -1.7620668533349E+00
(PID.TID 0000.0001) %MON dynstat_vvel_mean            =   2.6953309713235E-03
(PID.TID 0000.0001) %MON dynstat_vvel_sd              =   4.8965109221125E-02
(PID.TID 0000.0001) %MON dynstat_vvel_del2            =   4.3646346173064E-05
(PID.TID 0000.0001) %MON dynstat_wvel_max             =   1.0848503154728E-02
(PID.TID 0000.0001) %MON dynstat_wvel_min             =  -1.0133936907812E-02
(PID.TID 0000.0001) %MON dynstat_wvel_mean            =   5.1977028260662E-08
(PID.TID 0000.0001) %MON dynstat_wvel_sd              =   1.9096670818117E-04
(PID.TID 0000.0001) %MON dynstat_wvel_del2            =   3.9480889567804E-07
(PID.TID 0000.0001) %MON dynstat_theta_max            =   3.2423798329396E+01
(PID.TID 0000.0001) %MON dynstat_theta_min            =  -2.0392978231104E+00
(PID.TID 0000.0001) %MON dynstat_theta_mean           =   3.5917667598769E+00
(PID.TID 0000.0001) %MON dynstat_theta_sd             =   4.4413242451193E+00
(PID.TID 0000.0001) %MON dynstat_theta_del2           =   1.2955469231724E-04
(PID.TID 0000.0001) %MON dynstat_salt_max             =   4.0655989298490E+01
(PID.TID 0000.0001) %MON dynstat_salt_min             =   1.5918930436600E+01
(PID.TID 0000.0001) %MON dynstat_salt_mean            =   3.4724789542471E+01
(PID.TID 0000.0001) %MON dynstat_salt_sd              =   3.7976417239081E-01
(PID.TID 0000.0001) %MON dynstat_salt_del2            =   6.2389153572479E-05
(PID.TID 0000.0001) %MON dynstat_sst_max              =   3.2423798329396E+01
(PID.TID 0000.0001) %MON dynstat_sst_min              =  -2.0392978231104E+00
(PID.TID 0000.0001) %MON dynstat_sst_mean             =   1.8171686946910E+01
(PID.TID 0000.0001) %MON dynstat_sst_sd               =   1.0207178879463E+01
(PID.TID 0000.0001) %MON dynstat_sst_del2             =   1.0939572195258E-03
(PID.TID 0000.0001) %MON dynstat_sss_max              =   3.9463362844489E+01
(PID.TID 0000.0001) %MON dynstat_sss_min              =   1.5918930436600E+01
(PID.TID 0000.0001) %MON dynstat_sss_mean             =   3.4640937375924E+01
(PID.TID 0000.0001) %MON dynstat_sss_sd               =   1.3040862744010E+00
(PID.TID 0000.0001) %MON dynstat_sss_del2             =   1.4646430547718E-03
(PID.TID 0000.0001) %MON forcing_qnet_max             =   8.8872054562932E+02
(PID.TID 0000.0001) %MON forcing_qnet_min             =  -2.0884215221365E+03
(PID.TID 0000.0001) %MON forcing_qnet_mean            =   2.4773429178586E+00
(PID.TID 0000.0001) %MON forcing_qnet_sd              =   2.0456875436781E+02
(PID.TID 0000.0001) %MON forcing_qnet_del2            =   3.6809521541220E-01
(PID.TID 0000.0001) %MON forcing_qsw_max              =   0.0000000000000E+00
(PID.TID 0000.0001) %MON forcing_qsw_min              =  -1.1167367946181E+02
(PID.TID 0000.0001) %MON forcing_qsw_mean             =  -1.8958094084568E+01
(PID.TID 0000.0001) %MON forcing_qsw_sd               =   2.9903591780401E+01
(PID.TID 0000.0001) %MON forcing_qsw_del2             =   2.2873235211593E-02
(PID.TID 0000.0001) %MON forcing_empmr_max            =   2.3532444611192E-02
(PID.TID 0000.0001) %MON forcing_empmr_min            =  -3.7968028336763E-02
(PID.TID 0000.0001) %MON forcing_empmr_mean           =  -2.1530221342789E-06
(PID.TID 0000.0001) %MON forcing_empmr_sd             =   3.1234891704121E-04
(PID.TID 0000.0001) %MON forcing_empmr_del2           =   3.7604428479591E-06
(PID.TID 0000.0001) %MON forcing_fu_max               =   8.7024545669556E-01
(PID.TID 0000.0001) %MON forcing_fu_min               =  -1.3159715537023E+00
(PID.TID 0000.0001) %MON forcing_fu_mean              =   1.0687948121048E-02
(PID.TID 0000.0001) %MON forcing_fu_sd                =   1.2626916081087E-01
(PID.TID 0000.0001) %MON forcing_fu_del2              =   1.6717508898563E-04
(PID.TID 0000.0001) %MON forcing_fv_max               =   1.2122259140015E+00
(PID.TID 0000.0001) %MON forcing_fv_min               =  -1.1676701903343E+00
(PID.TID 0000.0001) %MON forcing_fv_mean              =   6.8064576153069E-04
(PID.TID 0000.0001) %MON forcing_fv_sd                =   1.2199611020219E-01
(PID.TID 0000.0001) %MON forcing_fv_del2              =   1.6157153636859E-04
(PID.TID 0000.0001) %MON trAdv_CFL_u_max              =   2.2204789319050E-02
(PID.TID 0000.0001) %MON trAdv_CFL_v_max              =   2.0575748742545E-02
(PID.TID 0000.0001) %MON trAdv_CFL_w_max              =   1.0466785665599E-01
(PID.TID 0000.0001) %MON advcfl_uvel_max              =   2.2501809307587E-02
(PID.TID 0000.0001) %MON advcfl_vvel_max              =   2.0509445836949E-02
(PID.TID 0000.0001) %MON advcfl_wvel_max              =   9.8934855329032E-02
(PID.TID 0000.0001) %MON advcfl_W_hf_max              =   1.0466785665599E-01
(PID.TID 0000.0001) %MON pe_b_mean                    =   2.7308205870641E-03
(PID.TID 0000.0001) %MON ke_max                       =   2.1805679076804E+00
(PID.TID 0000.0001) %MON ke_mean                      =   2.2877717964557E-03
(PID.TID 0000.0001) %MON ke_vol                       =   1.3350064351420E+18
(PID.TID 0000.0001) %MON vort_r_min                   =  -7.2788387300579E-05
(PID.TID 0000.0001) %MON vort_r_max                   =   8.0162429136531E-05
(PID.TID 0000.0001) %MON vort_a_mean                  =  -1.9725077249414E-05
(PID.TID 0000.0001) %MON vort_a_sd                    =   7.4542739348336E-05
(PID.TID 0000.0001) %MON vort_p_mean                  =  -2.1669082245948E-05
(PID.TID 0000.0001) %MON vort_p_sd                    =   9.3619996677526E-05
(PID.TID 0000.0001) %MON surfExpan_theta_mean         =   1.6134848011037E-05
(PID.TID 0000.0001) %MON surfExpan_salt_mean          =  -1.6734449032512E-05
(PID.TID 0000.0001) // =======================================================
(PID.TID 0000.0001) // End MONITOR dynamic field statistics
(PID.TID 0000.0001) // =======================================================
(PID.TID 0000.0001) // =======================================================
(PID.TID 0000.0001) // Begin MONITOR SEAICE statistics
(PID.TID 0000.0001) // =======================================================
(PID.TID 0000.0001) %MON seaice_tsnumber              =                174906
(PID.TID 0000.0001) %MON seaice_time_sec              =   7.8707700000000E+07
(PID.TID 0000.0001) %MON seaice_uice_max              =   1.1885521997422E+00
(PID.TID 0000.0001) %MON seaice_uice_min              =  -1.5266123978847E+00
(PID.TID 0000.0001) %MON seaice_uice_mean             =   1.0081565912270E-02
(PID.TID 0000.0001) %MON seaice_uice_sd               =   1.5003943529224E-01
(PID.TID 0000.0001) %MON seaice_uice_del2             =   3.8047000100454E-04
(PID.TID 0000.0001) %MON seaice_vice_max              =   9.8626721108649E-01
(PID.TID 0000.0001) %MON seaice_vice_min              =  -1.4785177562447E+00
(PID.TID 0000.0001) %MON seaice_vice_mean             =  -1.4999791163251E-02
(PID.TID 0000.0001) %MON seaice_vice_sd               =   1.6130400677515E-01
(PID.TID 0000.0001) %MON seaice_vice_del2             =   3.6954951072454E-04
(PID.TID 0000.0001) %MON seaice_area_max              =   1.0011442772428E+00
(PID.TID 0000.0001) %MON seaice_area_min              =   0.0000000000000E+00
(PID.TID 0000.0001) %MON seaice_area_mean             =   5.7667827501273E-02
(PID.TID 0000.0001) %MON seaice_area_sd               =   2.2075314883911E-01
(PID.TID 0000.0001) %MON seaice_area_del2             =   2.8301301256150E-04
(PID.TID 0000.0001) %MON seaice_heff_max              =   9.9472171016727E+00
(PID.TID 0000.0001) %MON seaice_heff_min              =   0.0000000000000E+00
(PID.TID 0000.0001) %MON seaice_heff_mean             =   1.4926598996698E-01
(PID.TID 0000.0001) %MON seaice_heff_sd               =   7.1920500120829E-01
(PID.TID 0000.0001) %MON seaice_heff_del2             =   1.3172580928616E-03
(PID.TID 0000.0001) %MON seaice_hsnow_max             =   3.2855873494711E+00
(PID.TID 0000.0001) %MON seaice_hsnow_min             =   0.0000000000000E+00
(PID.TID 0000.0001) %MON seaice_hsnow_mean            =   1.2582370586281E-02
(PID.TID 0000.0001) %MON seaice_hsnow_sd              =   6.7349925175745E-02
(PID.TID 0000.0001) %MON seaice_hsnow_del2            =   3.5054520429376E-04
(PID.TID 0000.0001) // =======================================================
(PID.TID 0000.0001) // End MONITOR SEAICE statistics
(PID.TID 0000.0001) // =======================================================
(PID.TID 0000.0001) // =======================================================
(PID.TID 0000.0001) // Begin MONITOR dynamic field statistics
(PID.TID 0000.0001) // =======================================================
(PID.TID 0000.0001) %MON time_tsnumber                =                174907
(PID.TID 0000.0001) %MON time_secondsf                =   7.8708150000000E+07
(PID.TID 0000.0001) %MON dynstat_eta_max              =   2.5603386521288E+00
(PID.TID 0000.0001) %MON dynstat_eta_min              =  -9.9727953423106E+00
(PID.TID 0000.0001) %MON dynstat_eta_mean             =   9.1180110608457E-02
(PID.TID 0000.0001) %MON dynstat_eta_sd               =   1.0020180458302E+00
(PID.TID 0000.0001) %MON dynstat_eta_del2             =   2.0125671779423E-03
(PID.TID 0000.0001) %MON dynstat_uvel_max             =   1.3929131542806E+00
(PID.TID 0000.0001) %MON dynstat_uvel_min             =  -2.2895220666239E+00
(PID.TID 0000.0001) %MON dynstat_uvel_mean            =   6.7534178533656E-03
(PID.TID 0000.0001) %MON dynstat_uvel_sd              =   4.8126850848719E-02
(PID.TID 0000.0001) %MON dynstat_uvel_del2            =   4.4969894625140E-05
(PID.TID 0000.0001) %MON dynstat_vvel_max             =   2.0206731672514E+00
(PID.TID 0000.0001) %MON dynstat_vvel_min             =  -1.7599145901274E+00
(PID.TID 0000.0001) %MON dynstat_vvel_mean            =   2.6461375239234E-03
(PID.TID 0000.0001) %MON dynstat_vvel_sd              =   4.9236671697252E-02
(PID.TID 0000.0001) %MON dynstat_vvel_del2            =   4.3770933260133E-05
(PID.TID 0000.0001) %MON dynstat_wvel_max             =   1.0944322894856E-02
(PID.TID 0000.0001) %MON dynstat_wvel_min             =  -1.0165687411761E-02
(PID.TID 0000.0001) %MON dynstat_wvel_mean            =   2.5032589462915E-08
(PID.TID 0000.0001) %MON dynstat_wvel_sd              =   1.9171435820252E-04
(PID.TID 0000.0001) %MON dynstat_wvel_del2            =   3.9595694519256E-07
(PID.TID 0000.0001) %MON dynstat_theta_max            =   3.2421203250997E+01
(PID.TID 0000.0001) %MON dynstat_theta_min            =  -2.0391566002687E+00
(PID.TID 0000.0001) %MON dynstat_theta_mean           =   3.5917648191440E+00
(PID.TID 0000.0001) %MON dynstat_theta_sd             =   4.4413207167443E+00
(PID.TID 0000.0001) %MON dynstat_theta_del2           =   1.2961191544925E-04
(PID.TID 0000.0001) %MON dynstat_salt_max             =   4.0655989292705E+01
(PID.TID 0000.0001) %MON dynstat_salt_min             =   1.5918389712256E+01
(PID.TID 0000.0001) %MON dynstat_salt_mean            =   3.4724789171642E+01
(PID.TID 0000.0001) %MON dynstat_salt_sd              =   3.7976523357438E-01
(PID.TID 0000.0001) %MON dynstat_salt_del2            =   6.2362603004077E-05
(PID.TID 0000.0001) %MON dynstat_sst_max              =   3.2421203250997E+01
(PID.TID 0000.0001) %MON dynstat_sst_min              =  -2.0391566002687E+00
(PID.TID 0000.0001) %MON dynstat_sst_mean             =   1.8171819333291E+01
(PID.TID 0000.0001) %MON dynstat_sst_sd               =   1.0207405805070E+01
(PID.TID 0000.0001) %MON dynstat_sst_del2             =   1.0936988901405E-03
(PID.TID 0000.0001) %MON dynstat_sss_max              =   3.9463390204223E+01
(PID.TID 0000.0001) %MON dynstat_sss_min              =   1.5918389712256E+01
(PID.TID 0000.0001) %MON dynstat_sss_mean             =   3.4640917429732E+01
(PID.TID 0000.0001) %MON dynstat_sss_sd               =   1.3041268210714E+00
(PID.TID 0000.0001) %MON dynstat_sss_del2             =   1.4647090007606E-03
(PID.TID 0000.0001) %MON forcing_qnet_max             =   7.9288940429688E+02
(PID.TID 0000.0001) %MON forcing_qnet_min             =  -1.7801470695114E+03
(PID.TID 0000.0001) %MON forcing_qnet_mean            =   2.1026811175911E+00
(PID.TID 0000.0001) %MON forcing_qnet_sd              =   2.0433084462424E+02
(PID.TID 0000.0001) %MON forcing_qnet_del2            =   3.6612688491617E-01
(PID.TID 0000.0001) %MON forcing_qsw_max              =   0.0000000000000E+00
(PID.TID 0000.0001) %MON forcing_qsw_min              =  -1.1175103992325E+02
(PID.TID 0000.0001) %MON forcing_qsw_mean             =  -1.9009601966034E+01
(PID.TID 0000.0001) %MON forcing_qsw_sd               =   2.9817853230091E+01
(PID.TID 0000.0001) %MON forcing_qsw_del2             =   2.2860906247959E-02
(PID.TID 0000.0001) %MON forcing_empmr_max            =   2.6275500655174E-02
(PID.TID 0000.0001) %MON forcing_empmr_min            =  -3.9901994168758E-02
(PID.TID 0000.0001) %MON forcing_empmr_mean           =  -2.3690360885249E-06
(PID.TID 0000.0001) %MON forcing_empmr_sd             =   3.1529420887666E-04
(PID.TID 0000.0001) %MON forcing_empmr_del2           =   3.8414727649183E-06
(PID.TID 0000.0001) %MON forcing_fu_max               =   8.6891314387321E-01
(PID.TID 0000.0001) %MON forcing_fu_min               =  -1.3123290874752E+00
(PID.TID 0000.0001) %MON forcing_fu_mean              =   1.0708025616302E-02
(PID.TID 0000.0001) %MON forcing_fu_sd                =   1.2619422598732E-01
(PID.TID 0000.0001) %MON forcing_fu_del2              =   1.6689111055028E-04
(PID.TID 0000.0001) %MON forcing_fv_max               =   1.2079032659531E+00
(PID.TID 0000.0001) %MON forcing_fv_min               =  -1.1703094840050E+00
(PID.TID 0000.0001) %MON forcing_fv_mean              =   6.9881995186850E-04
(PID.TID 0000.0001) %MON forcing_fv_sd                =   1.2209420321513E-01
(PID.TID 0000.0001) %MON forcing_fv_del2              =   1.6183983657599E-04
(PID.TID 0000.0001) %MON trAdv_CFL_u_max              =   2.2164569967075E-02
(PID.TID 0000.0001) %MON trAdv_CFL_v_max              =   2.0569696940278E-02
(PID.TID 0000.0001) %MON trAdv_CFL_w_max              =   1.0451399851589E-01
(PID.TID 0000.0001) %MON advcfl_uvel_max              =   2.2461051965753E-02
(PID.TID 0000.0001) %MON advcfl_vvel_max              =   2.0503413535896E-02
(PID.TID 0000.0001) %MON advcfl_wvel_max              =   9.8769691461243E-02
(PID.TID 0000.0001) %MON advcfl_W_hf_max              =   1.0451399851589E-01
(PID.TID 0000.0001) %MON pe_b_mean                    =   2.7280299157050E-03
(PID.TID 0000.0001) %MON ke_max                       =   2.1824551337359E+00
(PID.TID 0000.0001) %MON ke_mean                      =   2.3111635547393E-03
(PID.TID 0000.0001) %MON ke_vol                       =   1.3350064351420E+18
(PID.TID 0000.0001) %MON vort_r_min                   =  -7.2577034815697E-05
(PID.TID 0000.0001) %MON vort_r_max                   =   8.0005997837129E-05
(PID.TID 0000.0001) %MON vort_a_mean                  =  -1.9725077248265E-05
(PID.TID 0000.0001) %MON vort_a_sd                    =   7.4542777086867E-05
(PID.TID 0000.0001) %MON vort_p_mean                  =  -2.1669082244686E-05
(PID.TID 0000.0001) %MON vort_p_sd                    =   9.3620039797260E-05
(PID.TID 0000.0001) %MON surfExpan_theta_mean         =   1.5521894034356E-05
(PID.TID 0000.0001) %MON surfExpan_salt_mean          =  -1.8415475367461E-05
(PID.TID 0000.0001) // =======================================================
(PID.TID 0000.0001) // End MONITOR dynamic field statistics
(PID.TID 0000.0001) // =======================================================
(PID.TID 0000.0001) // =======================================================
(PID.TID 0000.0001) // Begin MONITOR SEAICE statistics
(PID.TID 0000.0001) // =======================================================
(PID.TID 0000.0001) %MON seaice_tsnumber              =                174907
(PID.TID 0000.0001) %MON seaice_time_sec              =   7.8708150000000E+07
(PID.TID 0000.0001) %MON seaice_uice_max              =   1.1867176097243E+00
(PID.TID 0000.0001) %MON seaice_uice_min              =  -1.5215648071736E+00
(PID.TID 0000.0001) %MON seaice_uice_mean             =   1.0001722239218E-02
(PID.TID 0000.0001) %MON seaice_uice_sd               =   1.5006986535718E-01
(PID.TID 0000.0001) %MON seaice_uice_del2             =   3.8088228761401E-04
(PID.TID 0000.0001) %MON seaice_vice_max              =   9.8749672590983E-01
(PID.TID 0000.0001) %MON seaice_vice_min              =  -1.4803018117220E+00
(PID.TID 0000.0001) %MON seaice_vice_mean             =  -1.5172565058534E-02
(PID.TID 0000.0001) %MON seaice_vice_sd               =   1.6137719706997E-01
(PID.TID 0000.0001) %MON seaice_vice_del2             =   3.7018526180927E-04
(PID.TID 0000.0001) %MON seaice_area_max              =   1.0011450529734E+00
(PID.TID 0000.0001) %MON seaice_area_min              =   0.0000000000000E+00
(PID.TID 0000.0001) %MON seaice_area_mean             =   5.7670685713396E-02
(PID.TID 0000.0001) %MON seaice_area_sd               =   2.2075209018118E-01
(PID.TID 0000.0001) %MON seaice_area_del2             =   2.8294268200084E-04
(PID.TID 0000.0001) %MON seaice_heff_max              =   9.9472094896406E+00
(PID.TID 0000.0001) %MON seaice_heff_min              =   0.0000000000000E+00
(PID.TID 0000.0001) %MON seaice_heff_mean             =   1.4926254614521E-01
(PID.TID 0000.0001) %MON seaice_heff_sd               =   7.1919313730881E-01
(PID.TID 0000.0001) %MON seaice_heff_del2             =   1.3166882968257E-03
(PID.TID 0000.0001) %MON seaice_hsnow_max             =   3.2855849003149E+00
(PID.TID 0000.0001) %MON seaice_hsnow_min             =   0.0000000000000E+00
(PID.TID 0000.0001) %MON seaice_hsnow_mean            =   1.2581592105273E-02
(PID.TID 0000.0001) %MON seaice_hsnow_sd              =   6.7338863235688E-02
(PID.TID 0000.0001) %MON seaice_hsnow_del2            =   3.5025394772467E-04
(PID.TID 0000.0001) // =======================================================
(PID.TID 0000.0001) // End MONITOR SEAICE statistics
(PID.TID 0000.0001) // =======================================================
(PID.TID 0000.0001) // =======================================================
(PID.TID 0000.0001) // Begin MONITOR dynamic field statistics
(PID.TID 0000.0001) // =======================================================
(PID.TID 0000.0001) %MON time_tsnumber                =                174908
(PID.TID 0000.0001) %MON time_secondsf                =   7.8708600000000E+07
(PID.TID 0000.0001) %MON dynstat_eta_max              =   2.5777380401911E+00
(PID.TID 0000.0001) %MON dynstat_eta_min              =  -9.9847448466593E+00
(PID.TID 0000.0001) %MON dynstat_eta_mean             =   9.0884035242515E-02
(PID.TID 0000.0001) %MON dynstat_eta_sd               =   1.0042646389598E+00
(PID.TID 0000.0001) %MON dynstat_eta_del2             =   2.0125719812045E-03
(PID.TID 0000.0001) %MON dynstat_uvel_max             =   1.3912067859022E+00
(PID.TID 0000.0001) %MON dynstat_uvel_min             =  -2.2935463759493E+00
(PID.TID 0000.0001) %MON dynstat_uvel_mean            =   6.7232043354443E-03
(PID.TID 0000.0001) %MON dynstat_uvel_sd              =   4.8361960088272E-02
(PID.TID 0000.0001) %MON dynstat_uvel_del2            =   4.5093748646130E-05
(PID.TID 0000.0001) %MON dynstat_vvel_max             =   2.0195342180300E+00
(PID.TID 0000.0001) %MON dynstat_vvel_min             =  -1.7578362987773E+00
(PID.TID 0000.0001) %MON dynstat_vvel_mean            =   2.5967074270467E-03
(PID.TID 0000.0001) %MON dynstat_vvel_sd              =   4.9510141747395E-02
(PID.TID 0000.0001) %MON dynstat_vvel_del2            =   4.3896391406286E-05
(PID.TID 0000.0001) %MON dynstat_wvel_max             =   1.1039328643204E-02
(PID.TID 0000.0001) %MON dynstat_wvel_min             =  -1.0197065001260E-02
(PID.TID 0000.0001) %MON dynstat_wvel_mean            =  -2.9841869437813E-09
(PID.TID 0000.0001) %MON dynstat_wvel_sd              =   1.9245920155575E-04
(PID.TID 0000.0001) %MON dynstat_wvel_del2            =   3.9709679972531E-07
(PID.TID 0000.0001) %MON dynstat_theta_max            =   3.2418546020914E+01
(PID.TID 0000.0001) %MON dynstat_theta_min            =  -2.0390156008533E+00
(PID.TID 0000.0001) %MON dynstat_theta_mean           =   3.5917629712026E+00
(PID.TID 0000.0001) %MON dynstat_theta_sd             =   4.4413174733204E+00
(PID.TID 0000.0001) %MON dynstat_theta_del2           =   1.2966965476328E-04
(PID.TID 0000.0001) %MON dynstat_salt_max             =   4.0655989288050E+01
(PID.TID 0000.0001) %MON dynstat_salt_min             =   1.5917871072743E+01
(PID.TID 0000.0001) %MON dynstat_salt_mean            =   3.4724788796475E+01
(PID.TID 0000.0001) %MON dynstat_salt_sd              =   3.7976630682225E-01
(PID.TID 0000.0001) %MON dynstat_salt_del2            =   6.2336118913595E-05
(PID.TID 0000.0001) %MON dynstat_sst_max              =   3.2418546020914E+01
(PID.TID 0000.0001) %MON dynstat_sst_min              =  -2.0390156008533E+00
(PID.TID 0000.0001) %MON dynstat_sst_mean             =   1.8171954026768E+01
(PID.TID 0000.0001) %MON dynstat_sst_sd               =   1.0207636542932E+01
(PID.TID 0000.0001) %MON dynstat_sst_del2             =   1.0934560568142E-03
(PID.TID 0000.0001) %MON dynstat_sss_max              =   3.9463418288622E+01
(PID.TID 0000.0001) %MON dynstat_sss_min              =   1.5917871072743E+01
(PID.TID 0000.0001) %MON dynstat_sss_mean             =   3.4640897950135E+01
(PID.TID 0000.0001) %MON dynstat_sss_sd               =   1.3041670042795E+00
(PID.TID 0000.0001) %MON dynstat_sss_del2             =   1.4647616028004E-03
(PID.TID 0000.0001) %MON forcing_qnet_max             =   9.1802203369141E+02
(PID.TID 0000.0001) %MON forcing_qnet_min             =  -2.2577900390625E+03
(PID.TID 0000.0001) %MON forcing_qnet_mean            =   1.6917126025191E+00
(PID.TID 0000.0001) %MON forcing_qnet_sd              =   2.0414160839817E+02
(PID.TID 0000.0001) %MON forcing_qnet_del2            =   3.7686510139589E-01
(PID.TID 0000.0001) %MON forcing_qsw_max              =   0.0000000000000E+00
(PID.TID 0000.0001) %MON forcing_qsw_min              =  -1.1172044992549E+02
(PID.TID 0000.0001) %MON forcing_qsw_mean             =  -1.9046149327998E+01
(PID.TID 0000.0001) %MON forcing_qsw_sd               =   2.9723679273345E+01
(PID.TID 0000.0001) %MON forcing_qsw_del2             =   2.2837844601669E-02
(PID.TID 0000.0001) %MON forcing_empmr_max            =   2.7886014431715E-02
(PID.TID 0000.0001) %MON forcing_empmr_min            =  -3.9773195981979E-02
(PID.TID 0000.0001) %MON forcing_empmr_mean           =  -2.3542261543899E-06
(PID.TID 0000.0001) %MON forcing_empmr_sd             =   3.1938088716502E-04
(PID.TID 0000.0001) %MON forcing_empmr_del2           =   3.9184313406900E-06
(PID.TID 0000.0001) %MON forcing_fu_max               =   8.6839932203293E-01
(PID.TID 0000.0001) %MON forcing_fu_min               =  -1.3096264882733E+00
(PID.TID 0000.0001) %MON forcing_fu_mean              =   1.0715932440745E-02
(PID.TID 0000.0001) %MON forcing_fu_sd                =   1.2612892768681E-01
(PID.TID 0000.0001) %MON forcing_fu_del2              =   1.6669083767162E-04
(PID.TID 0000.0001) %MON forcing_fv_max               =   1.2054928541183E+00
(PID.TID 0000.0001) %MON forcing_fv_min               =  -1.1757935881615E+00
(PID.TID 0000.0001) %MON forcing_fv_mean              =   7.0803731083277E-04
(PID.TID 0000.0001) %MON forcing_fv_sd                =   1.2215769203611E-01
(PID.TID 0000.0001) %MON forcing_fv_del2              =   1.6199653276794E-04
(PID.TID 0000.0001) %MON trAdv_CFL_u_max              =   2.2124853372303E-02
(PID.TID 0000.0001) %MON trAdv_CFL_v_max              =   2.0558102863268E-02
(PID.TID 0000.0001) %MON trAdv_CFL_w_max              =   1.0433961185711E-01
(PID.TID 0000.0001) %MON advcfl_uvel_max              =   2.2420804106201E-02
(PID.TID 0000.0001) %MON advcfl_vvel_max              =   2.0491856819421E-02
(PID.TID 0000.0001) %MON advcfl_wvel_max              =   9.8585051744112E-02
(PID.TID 0000.0001) %MON advcfl_W_hf_max              =   1.0433961185711E-01
(PID.TID 0000.0001) %MON pe_b_mean                    =   2.7246506553944E-03
(PID.TID 0000.0001) %MON ke_max                       =   2.1840548105924E+00
(PID.TID 0000.0001) %MON ke_mean                      =   2.3348023387327E-03
(PID.TID 0000.0001) %MON ke_vol                       =   1.3350064351420E+18
(PID.TID 0000.0001) %MON vort_r_min                   =  -7.2369273279215E-05
(PID.TID 0000.0001) %MON vort_r_max                   =   7.9852822684750E-05
(PID.TID 0000.0001) %MON vort_a_mean                  =  -1.9725077247251E-05
(PID.TID 0000.0001) %MON vort_a_sd                    =   7.4542815675985E-05
(PID.TID 0000.0001) %MON vort_p_mean                  =  -2.1669082243572E-05
(PID.TID 0000.0001) %MON vort_p_sd                    =   9.3620082766670E-05
(PID.TID 0000.0001) %MON surfExpan_theta_mean         =   1.4832211760776E-05
(PID.TID 0000.0001) %MON surfExpan_salt_mean          =  -2.0151576058096E-05
(PID.TID 0000.0001) // =======================================================
(PID.TID 0000.0001) // End MONITOR dynamic field statistics
(PID.TID 0000.0001) // =======================================================
(PID.TID 0000.0001) // =======================================================
(PID.TID 0000.0001) // Begin MONITOR SEAICE statistics
(PID.TID 0000.0001) // =======================================================
(PID.TID 0000.0001) %MON seaice_tsnumber              =                174908
(PID.TID 0000.0001) %MON seaice_time_sec              =   7.8708600000000E+07
(PID.TID 0000.0001) %MON seaice_uice_max              =   1.1848683199760E+00
(PID.TID 0000.0001) %MON seaice_uice_min              =  -1.5157636401247E+00
(PID.TID 0000.0001) %MON seaice_uice_mean             =   9.9247624987508E-03
(PID.TID 0000.0001) %MON seaice_uice_sd               =   1.5009502823532E-01
(PID.TID 0000.0001) %MON seaice_uice_del2             =   3.8135175515530E-04
(PID.TID 0000.0001) %MON seaice_vice_max              =   9.8891135696444E-01
(PID.TID 0000.0001) %MON seaice_vice_min              =  -1.4822904192745E+00
(PID.TID 0000.0001) %MON seaice_vice_mean             =  -1.5349765239969E-02
(PID.TID 0000.0001) %MON seaice_vice_sd               =   1.6145694379704E-01
(PID.TID 0000.0001) %MON seaice_vice_del2             =   3.7088842883151E-04
(PID.TID 0000.0001) %MON seaice_area_max              =   1.0011466054068E+00
(PID.TID 0000.0001) %MON seaice_area_min              =   0.0000000000000E+00
(PID.TID 0000.0001) %MON seaice_area_mean             =   5.7673562400244E-02
(PID.TID 0000.0001) %MON seaice_area_sd               =   2.2075107248543E-01
(PID.TID 0000.0001) %MON seaice_area_del2             =   2.8287147722046E-04
(PID.TID 0000.0001) %MON seaice_heff_max              =   9.9472047389200E+00
(PID.TID 0000.0001) %MON seaice_heff_min              =   0.0000000000000E+00
(PID.TID 0000.0001) %MON seaice_heff_mean             =   1.4925911415581E-01
(PID.TID 0000.0001) %MON seaice_heff_sd               =   7.1918126579553E-01
(PID.TID 0000.0001) %MON seaice_heff_del2             =   1.3161172792941E-03
(PID.TID 0000.0001) %MON seaice_hsnow_max             =   3.2855831836303E+00
(PID.TID 0000.0001) %MON seaice_hsnow_min             =   0.0000000000000E+00
(PID.TID 0000.0001) %MON seaice_hsnow_mean            =   1.2580805928521E-02
(PID.TID 0000.0001) %MON seaice_hsnow_sd              =   6.7327794834782E-02
(PID.TID 0000.0001) %MON seaice_hsnow_del2            =   3.4996311998773E-04
(PID.TID 0000.0001) // =======================================================
(PID.TID 0000.0001) // End MONITOR SEAICE statistics
(PID.TID 0000.0001) // =======================================================
(PID.TID 0000.0001) // =======================================================
(PID.TID 0000.0001) // Begin MONITOR dynamic field statistics
(PID.TID 0000.0001) // =======================================================
(PID.TID 0000.0001) %MON time_tsnumber                =                174909
(PID.TID 0000.0001) %MON time_secondsf                =   7.8709050000000E+07
(PID.TID 0000.0001) %MON dynstat_eta_max              =   2.5911682130795E+00
(PID.TID 0000.0001) %MON dynstat_eta_min              =  -9.9958838676722E+00
(PID.TID 0000.0001) %MON dynstat_eta_mean             =   9.0564025575728E-02
(PID.TID 0000.0001) %MON dynstat_eta_sd               =   1.0065266170873E+00
(PID.TID 0000.0001) %MON dynstat_eta_del2             =   2.0125671288148E-03
(PID.TID 0000.0001) %MON dynstat_uvel_max             =   1.3894648506021E+00
(PID.TID 0000.0001) %MON dynstat_uvel_min             =  -2.2973904575621E+00
(PID.TID 0000.0001) %MON dynstat_uvel_mean            =   6.6950373117644E-03
(PID.TID 0000.0001) %MON dynstat_uvel_sd              =   4.8597431112088E-02
(PID.TID 0000.0001) %MON dynstat_uvel_del2            =   4.5218332530352E-05
(PID.TID 0000.0001) %MON dynstat_vvel_max             =   2.0178628736933E+00
(PID.TID 0000.0001) %MON dynstat_vvel_min             =  -1.7558220514133E+00
(PID.TID 0000.0001) %MON dynstat_vvel_mean            =   2.5471542890146E-03
(PID.TID 0000.0001) %MON dynstat_vvel_sd              =   4.9785548820462E-02
(PID.TID 0000.0001) %MON dynstat_vvel_del2            =   4.4021897955886E-05
(PID.TID 0000.0001) %MON dynstat_wvel_max             =   1.1133498654038E-02
(PID.TID 0000.0001) %MON dynstat_wvel_min             =  -1.0228155696756E-02
(PID.TID 0000.0001) %MON dynstat_wvel_mean            =  -3.2103111086649E-08
(PID.TID 0000.0001) %MON dynstat_wvel_sd              =   1.9320084491901E-04
(PID.TID 0000.0001) %MON dynstat_wvel_del2            =   3.9822846249712E-07
(PID.TID 0000.0001) %MON dynstat_theta_max            =   3.2415846199335E+01
(PID.TID 0000.0001) %MON dynstat_theta_min            =  -2.0388744643657E+00
(PID.TID 0000.0001) %MON dynstat_theta_mean           =   3.5917612892120E+00
(PID.TID 0000.0001) %MON dynstat_theta_sd             =   4.4413148274642E+00
(PID.TID 0000.0001) %MON dynstat_theta_del2           =   1.2972713500872E-04
(PID.TID 0000.0001) %MON dynstat_salt_max             =   4.0655989284577E+01
(PID.TID 0000.0001) %MON dynstat_salt_min             =   1.5917372563016E+01
(PID.TID 0000.0001) %MON dynstat_salt_mean            =   3.4724788418105E+01
(PID.TID 0000.0001) %MON dynstat_salt_sd              =   3.7976739190858E-01
(PID.TID 0000.0001) %MON dynstat_salt_del2            =   6.2309997010026E-05
(PID.TID 0000.0001) %MON dynstat_sst_max              =   3.2415846199335E+01
(PID.TID 0000.0001) %MON dynstat_sst_min              =  -2.0388744643657E+00
(PID.TID 0000.0001) %MON dynstat_sst_mean             =   1.8172106240366E+01
(PID.TID 0000.0001) %MON dynstat_sst_sd               =   1.0207882772906E+01
(PID.TID 0000.0001) %MON dynstat_sst_del2             =   1.0931913137604E-03
(PID.TID 0000.0001) %MON dynstat_sss_max              =   3.9463446200995E+01
(PID.TID 0000.0001) %MON dynstat_sss_min              =   1.5917372563016E+01
(PID.TID 0000.0001) %MON dynstat_sss_mean             =   3.4640879191217E+01
(PID.TID 0000.0001) %MON dynstat_sss_sd               =   1.3042062522173E+00
(PID.TID 0000.0001) %MON dynstat_sss_del2             =   1.4648414015621E-03
(PID.TID 0000.0001) %MON forcing_qnet_max             =   1.6148621826172E+03
(PID.TID 0000.0001) %MON forcing_qnet_min             =  -2.5881735839844E+03
(PID.TID 0000.0001) %MON forcing_qnet_mean            =  -8.5561161474824E-01
(PID.TID 0000.0001) %MON forcing_qnet_sd              =   2.0437678816812E+02
(PID.TID 0000.0001) %MON forcing_qnet_del2            =   3.8641676132289E-01
(PID.TID 0000.0001) %MON forcing_qsw_max              =   0.0000000000000E+00
(PID.TID 0000.0001) %MON forcing_qsw_min              =  -1.1152272024218E+02
(PID.TID 0000.0001) %MON forcing_qsw_mean             =  -1.9310865885249E+01
(PID.TID 0000.0001) %MON forcing_qsw_sd               =   2.9646684224775E+01
(PID.TID 0000.0001) %MON forcing_qsw_del2             =   2.2501250844403E-02
(PID.TID 0000.0001) %MON forcing_empmr_max            =   2.0668253302574E-02
(PID.TID 0000.0001) %MON forcing_empmr_min            =  -3.8174998015165E-02
(PID.TID 0000.0001) %MON forcing_empmr_mean           =  -2.2635620759566E-06
(PID.TID 0000.0001) %MON forcing_empmr_sd             =   3.1802775702088E-04
(PID.TID 0000.0001) %MON forcing_empmr_del2           =   3.9299991795346E-06
(PID.TID 0000.0001) %MON forcing_fu_max               =   8.6623841524124E-01
(PID.TID 0000.0001) %MON forcing_fu_min               =  -1.3072528841426E+00
(PID.TID 0000.0001) %MON forcing_fu_mean              =   1.0724582468701E-02
(PID.TID 0000.0001) %MON forcing_fu_sd                =   1.2607503381749E-01
(PID.TID 0000.0001) %MON forcing_fu_del2              =   1.6653991009062E-04
(PID.TID 0000.0001) %MON forcing_fv_max               =   1.2010558843613E+00
(PID.TID 0000.0001) %MON forcing_fv_min               =  -1.1798219084740E+00
(PID.TID 0000.0001) %MON forcing_fv_mean              =   7.2912090134315E-04
(PID.TID 0000.0001) %MON forcing_fv_sd                =   1.2224523658329E-01
(PID.TID 0000.0001) %MON forcing_fv_del2              =   1.6209907217333E-04
(PID.TID 0000.0001) %MON trAdv_CFL_u_max              =   2.2085508174362E-02
(PID.TID 0000.0001) %MON trAdv_CFL_v_max              =   2.0541089203145E-02
(PID.TID 0000.0001) %MON trAdv_CFL_w_max              =   1.0415177257188E-01
(PID.TID 0000.0001) %MON advcfl_uvel_max              =   2.2380932611429E-02
(PID.TID 0000.0001) %MON advcfl_vvel_max              =   2.0474897983796E-02
(PID.TID 0000.0001) %MON advcfl_wvel_max              =   9.8388265308836E-02
(PID.TID 0000.0001) %MON advcfl_W_hf_max              =   1.0415177257188E-01
(PID.TID 0000.0001) %MON pe_b_mean                    =   2.7206608958658E-03
(PID.TID 0000.0001) %MON ke_max                       =   2.1853751297489E+00
(PID.TID 0000.0001) %MON ke_mean                      =   2.3586926627730E-03
(PID.TID 0000.0001) %MON ke_vol                       =   1.3350064351420E+18
(PID.TID 0000.0001) %MON vort_r_min                   =  -7.2164627614602E-05
(PID.TID 0000.0001) %MON vort_r_max                   =   7.9702385377787E-05
(PID.TID 0000.0001) %MON vort_a_mean                  =  -1.9725077245980E-05
(PID.TID 0000.0001) %MON vort_a_sd                    =   7.4542855126089E-05
(PID.TID 0000.0001) %MON vort_p_mean                  =  -2.1669082242175E-05
(PID.TID 0000.0001) %MON vort_p_sd                    =   9.3620126219708E-05
(PID.TID 0000.0001) %MON surfExpan_theta_mean         =   1.4057319791109E-05
(PID.TID 0000.0001) %MON surfExpan_salt_mean          =  -2.1950746838151E-05
(PID.TID 0000.0001) // =======================================================
(PID.TID 0000.0001) // End MONITOR dynamic field statistics
(PID.TID 0000.0001) // =======================================================
(PID.TID 0000.0001) // =======================================================
(PID.TID 0000.0001) // Begin MONITOR SEAICE statistics
(PID.TID 0000.0001) // =======================================================
(PID.TID 0000.0001) %MON seaice_tsnumber              =                174909
(PID.TID 0000.0001) %MON seaice_time_sec              =   7.8709050000000E+07
(PID.TID 0000.0001) %MON seaice_uice_max              =   1.1830199219668E+00
(PID.TID 0000.0001) %MON seaice_uice_min              =  -1.5092434306340E+00
(PID.TID 0000.0001) %MON seaice_uice_mean             =   9.8501297559645E-03
(PID.TID 0000.0001) %MON seaice_uice_sd               =   1.5011729097143E-01
(PID.TID 0000.0001) %MON seaice_uice_del2             =   3.8181880093299E-04
(PID.TID 0000.0001) %MON seaice_vice_max              =   9.9051374529439E-01
(PID.TID 0000.0001) %MON seaice_vice_min              =  -1.4843282357030E+00
(PID.TID 0000.0001) %MON seaice_vice_mean             =  -1.5531615877466E-02
(PID.TID 0000.0001) %MON seaice_vice_sd               =   1.6153948575405E-01
(PID.TID 0000.0001) %MON seaice_vice_del2             =   3.7163313359581E-04
(PID.TID 0000.0001) %MON seaice_area_max              =   1.0011486515530E+00
(PID.TID 0000.0001) %MON seaice_area_min              =   0.0000000000000E+00
(PID.TID 0000.0001) %MON seaice_area_mean             =   5.7676475236600E-02
(PID.TID 0000.0001) %MON seaice_area_sd               =   2.2075015209166E-01
(PID.TID 0000.0001) %MON seaice_area_del2             =   2.8280343654337E-04
(PID.TID 0000.0001) %MON seaice_heff_max              =   9.9471980809651E+00
(PID.TID 0000.0001) %MON seaice_heff_min              =   0.0000000000000E+00
(PID.TID 0000.0001) %MON seaice_heff_mean             =   1.4925568905594E-01
(PID.TID 0000.0001) %MON seaice_heff_sd               =   7.1916934546219E-01
(PID.TID 0000.0001) %MON seaice_heff_del2             =   1.3155456714222E-03
(PID.TID 0000.0001) %MON seaice_hsnow_max             =   3.2855804937202E+00
(PID.TID 0000.0001) %MON seaice_hsnow_min             =   0.0000000000000E+00
(PID.TID 0000.0001) %MON seaice_hsnow_mean            =   1.2580037492080E-02
(PID.TID 0000.0001) %MON seaice_hsnow_sd              =   6.7316836496330E-02
(PID.TID 0000.0001) %MON seaice_hsnow_del2            =   3.4967278318444E-04
(PID.TID 0000.0001) // =======================================================
(PID.TID 0000.0001) // End MONITOR SEAICE statistics
(PID.TID 0000.0001) // =======================================================
(PID.TID 0000.0001) // =======================================================
(PID.TID 0000.0001) // Begin MONITOR dynamic field statistics
(PID.TID 0000.0001) // =======================================================
(PID.TID 0000.0001) %MON time_tsnumber                =                174910
(PID.TID 0000.0001) %MON time_secondsf                =   7.8709500000000E+07
(PID.TID 0000.0001) %MON dynstat_eta_max              =   2.6005552066681E+00
(PID.TID 0000.0001) %MON dynstat_eta_min              =  -1.0012375945872E+01
(PID.TID 0000.0001) %MON dynstat_eta_mean             =   9.0219385886669E-02
(PID.TID 0000.0001) %MON dynstat_eta_sd               =   1.0088023430799E+00
(PID.TID 0000.0001) %MON dynstat_eta_del2             =   2.0125556224774E-03
(PID.TID 0000.0001) %MON dynstat_uvel_max             =   1.3876764917475E+00
(PID.TID 0000.0001) %MON dynstat_uvel_min             =  -2.3010571601350E+00
(PID.TID 0000.0001) %MON dynstat_uvel_mean            =   6.6690083444785E-03
(PID.TID 0000.0001) %MON dynstat_uvel_sd              =   4.8833265719131E-02
(PID.TID 0000.0001) %MON dynstat_uvel_del2            =   4.5342975390108E-05
(PID.TID 0000.0001) %MON dynstat_vvel_max             =   2.0156742391261E+00
(PID.TID 0000.0001) %MON dynstat_vvel_min             =  -1.7538623388247E+00
(PID.TID 0000.0001) %MON dynstat_vvel_mean            =   2.4975989211535E-03
(PID.TID 0000.0001) %MON dynstat_vvel_sd              =   5.0062825217468E-02
(PID.TID 0000.0001) %MON dynstat_vvel_del2            =   4.4147918105071E-05
(PID.TID 0000.0001) %MON dynstat_wvel_max             =   1.1226805208962E-02
(PID.TID 0000.0001) %MON dynstat_wvel_min             =  -1.0259053304693E-02
(PID.TID 0000.0001) %MON dynstat_wvel_mean            =  -6.2425879170576E-08
(PID.TID 0000.0001) %MON dynstat_wvel_sd              =   1.9393939601533E-04
(PID.TID 0000.0001) %MON dynstat_wvel_del2            =   3.9935191582170E-07
(PID.TID 0000.0001) %MON dynstat_theta_max            =   3.2413110519191E+01
(PID.TID 0000.0001) %MON dynstat_theta_min            =  -2.0387328464679E+00
(PID.TID 0000.0001) %MON dynstat_theta_mean           =   3.5917597310112E+00
(PID.TID 0000.0001) %MON dynstat_theta_sd             =   4.4413125406222E+00
(PID.TID 0000.0001) %MON dynstat_theta_del2           =   1.2978507373293E-04
(PID.TID 0000.0001) %MON dynstat_salt_max             =   4.0655989282337E+01
(PID.TID 0000.0001) %MON dynstat_salt_min             =   1.5916892206510E+01
(PID.TID 0000.0001) %MON dynstat_salt_mean            =   3.4724788037585E+01
(PID.TID 0000.0001) %MON dynstat_salt_sd              =   3.7976849386360E-01
(PID.TID 0000.0001) %MON dynstat_salt_del2            =   6.2284168060753E-05
(PID.TID 0000.0001) %MON dynstat_sst_max              =   3.2413110519191E+01
(PID.TID 0000.0001) %MON dynstat_sst_min              =  -2.0387328464679E+00
(PID.TID 0000.0001) %MON dynstat_sst_mean             =   1.8172262088700E+01
(PID.TID 0000.0001) %MON dynstat_sst_sd               =   1.0208132571519E+01
(PID.TID 0000.0001) %MON dynstat_sst_del2             =   1.0929586934817E-03
(PID.TID 0000.0001) %MON dynstat_sss_max              =   3.9463474389424E+01
(PID.TID 0000.0001) %MON dynstat_sss_min              =   1.5916892206510E+01
(PID.TID 0000.0001) %MON dynstat_sss_mean             =   3.4640859882331E+01
(PID.TID 0000.0001) %MON dynstat_sss_sd               =   1.3042468187427E+00
(PID.TID 0000.0001) %MON dynstat_sss_del2             =   1.4649269586354E-03
(PID.TID 0000.0001) %MON forcing_qnet_max             =   1.8043879394531E+03
(PID.TID 0000.0001) %MON forcing_qnet_min             =  -2.0960048828125E+03
(PID.TID 0000.0001) %MON forcing_qnet_mean            =  -1.5814306592754E+00
(PID.TID 0000.0001) %MON forcing_qnet_sd              =   2.0427916480849E+02
(PID.TID 0000.0001) %MON forcing_qnet_del2            =   3.8287582262498E-01
(PID.TID 0000.0001) %MON forcing_qsw_max              =   0.0000000000000E+00
(PID.TID 0000.0001) %MON forcing_qsw_min              =  -1.1152987006280E+02
(PID.TID 0000.0001) %MON forcing_qsw_mean             =  -1.9411073132978E+01
(PID.TID 0000.0001) %MON forcing_qsw_sd               =   2.9640213669511E+01
(PID.TID 0000.0001) %MON forcing_qsw_del2             =   2.2506871733825E-02
(PID.TID 0000.0001) %MON forcing_empmr_max            =   2.1164434030652E-02
(PID.TID 0000.0001) %MON forcing_empmr_min            =  -4.0076453238726E-02
(PID.TID 0000.0001) %MON forcing_empmr_mean           =  -2.1407571885523E-06
(PID.TID 0000.0001) %MON forcing_empmr_sd             =   3.2354503466116E-04
(PID.TID 0000.0001) %MON forcing_empmr_del2           =   4.0554243259494E-06
(PID.TID 0000.0001) %MON forcing_fu_max               =   8.6454892158508E-01
(PID.TID 0000.0001) %MON forcing_fu_min               =  -1.3044921701375E+00
(PID.TID 0000.0001) %MON forcing_fu_mean              =   1.0730041495628E-02
(PID.TID 0000.0001) %MON forcing_fu_sd                =   1.2601949295490E-01
(PID.TID 0000.0001) %MON forcing_fu_del2              =   1.6623648494786E-04
(PID.TID 0000.0001) %MON forcing_fv_max               =   1.1983756422997E+00
(PID.TID 0000.0001) %MON forcing_fv_min               =  -1.1851216554642E+00
(PID.TID 0000.0001) %MON forcing_fv_mean              =   7.3818692747429E-04
(PID.TID 0000.0001) %MON forcing_fv_sd                =   1.2230878518565E-01
(PID.TID 0000.0001) %MON forcing_fv_del2              =   1.6215635655297E-04
(PID.TID 0000.0001) %MON trAdv_CFL_u_max              =   2.2046439270618E-02
(PID.TID 0000.0001) %MON trAdv_CFL_v_max              =   2.0518809721984E-02
(PID.TID 0000.0001) %MON trAdv_CFL_w_max              =   1.0394891137158E-01
(PID.TID 0000.0001) %MON advcfl_uvel_max              =   2.2341341106674E-02
(PID.TID 0000.0001) %MON advcfl_vvel_max              =   2.0452690295616E-02
(PID.TID 0000.0001) %MON advcfl_wvel_max              =   9.8177433189233E-02
(PID.TID 0000.0001) %MON advcfl_W_hf_max              =   1.0394891137158E-01
(PID.TID 0000.0001) %MON pe_b_mean                    =   2.7160375030221E-03
(PID.TID 0000.0001) %MON ke_max                       =   2.1864175958111E+00
(PID.TID 0000.0001) %MON ke_mean                      =   2.3828338634435E-03
(PID.TID 0000.0001) %MON ke_vol                       =   1.3350064351420E+18
(PID.TID 0000.0001) %MON vort_r_min                   =  -7.1962814681634E-05
(PID.TID 0000.0001) %MON vort_r_max                   =   7.9554231939595E-05
(PID.TID 0000.0001) %MON vort_a_mean                  =  -1.9725077244189E-05
(PID.TID 0000.0001) %MON vort_a_sd                    =   7.4542895461393E-05
(PID.TID 0000.0001) %MON vort_p_mean                  =  -2.1669082240208E-05
(PID.TID 0000.0001) %MON vort_p_sd                    =   9.3620169393299E-05
(PID.TID 0000.0001) %MON surfExpan_theta_mean         =   1.3183700629595E-05
(PID.TID 0000.0001) %MON surfExpan_salt_mean          =  -2.3813390535098E-05
(PID.TID 0000.0001) // =======================================================
(PID.TID 0000.0001) // End MONITOR dynamic field statistics
(PID.TID 0000.0001) // =======================================================
(PID.TID 0000.0001) // =======================================================
(PID.TID 0000.0001) // Begin MONITOR SEAICE statistics
(PID.TID 0000.0001) // =======================================================
(PID.TID 0000.0001) %MON seaice_tsnumber              =                174910
(PID.TID 0000.0001) %MON seaice_time_sec              =   7.8709500000000E+07
(PID.TID 0000.0001) %MON seaice_uice_max              =   1.1810180052301E+00
(PID.TID 0000.0001) %MON seaice_uice_min              =  -1.5020403600859E+00
(PID.TID 0000.0001) %MON seaice_uice_mean             =   9.7781280783224E-03
(PID.TID 0000.0001) %MON seaice_uice_sd               =   1.5013015659320E-01
(PID.TID 0000.0001) %MON seaice_uice_del2             =   3.8227148043746E-04
(PID.TID 0000.0001) %MON seaice_vice_max              =   9.9229538870122E-01
(PID.TID 0000.0001) %MON seaice_vice_min              =  -1.4864303352401E+00
(PID.TID 0000.0001) %MON seaice_vice_mean             =  -1.5718493729647E-02
(PID.TID 0000.0001) %MON seaice_vice_sd               =   1.6163288105446E-01
(PID.TID 0000.0001) %MON seaice_vice_del2             =   3.7231515081397E-04
(PID.TID 0000.0001) %MON seaice_area_max              =   1.0011494445183E+00
(PID.TID 0000.0001) %MON seaice_area_min              =   0.0000000000000E+00
(PID.TID 0000.0001) %MON seaice_area_mean             =   5.7679421063868E-02
(PID.TID 0000.0001) %MON seaice_area_sd               =   2.2074933945953E-01
(PID.TID 0000.0001) %MON seaice_area_del2             =   2.8273701106294E-04
(PID.TID 0000.0001) %MON seaice_heff_max              =   9.9471914217129E+00
(PID.TID 0000.0001) %MON seaice_heff_min              =   0.0000000000000E+00
(PID.TID 0000.0001) %MON seaice_heff_mean             =   1.4925226922535E-01
(PID.TID 0000.0001) %MON seaice_heff_sd               =   7.1915735730434E-01
(PID.TID 0000.0001) %MON seaice_heff_del2             =   1.3149736925473E-03
(PID.TID 0000.0001) %MON seaice_hsnow_max             =   3.2855785320433E+00
(PID.TID 0000.0001) %MON seaice_hsnow_min             =   0.0000000000000E+00
(PID.TID 0000.0001) %MON seaice_hsnow_mean            =   1.2579262019005E-02
(PID.TID 0000.0001) %MON seaice_hsnow_sd              =   6.7305857446704E-02
(PID.TID 0000.0001) %MON seaice_hsnow_del2            =   3.4938290657783E-04
(PID.TID 0000.0001) // =======================================================
(PID.TID 0000.0001) // End MONITOR SEAICE statistics
(PID.TID 0000.0001) // =======================================================
(PID.TID 0000.0001) // =======================================================
(PID.TID 0000.0001) // Begin MONITOR dynamic field statistics
(PID.TID 0000.0001) // =======================================================
(PID.TID 0000.0001) %MON time_tsnumber                =                174911
(PID.TID 0000.0001) %MON time_secondsf                =   7.8709950000000E+07
(PID.TID 0000.0001) %MON dynstat_eta_max              =   2.6058277166018E+00
(PID.TID 0000.0001) %MON dynstat_eta_min              =  -1.0030855131462E+01
(PID.TID 0000.0001) %MON dynstat_eta_mean             =   8.9850001782770E-02
(PID.TID 0000.0001) %MON dynstat_eta_sd               =   1.0110900084095E+00
(PID.TID 0000.0001) %MON dynstat_eta_del2             =   2.0125397181850E-03
(PID.TID 0000.0001) %MON dynstat_uvel_max             =   1.3858396109877E+00
(PID.TID 0000.0001) %MON dynstat_uvel_min             =  -2.3045491219749E+00
(PID.TID 0000.0001) %MON dynstat_uvel_mean            =   6.6452047389176E-03
(PID.TID 0000.0001) %MON dynstat_uvel_sd              =   4.9069514685558E-02
(PID.TID 0000.0001) %MON dynstat_uvel_del2            =   4.5468699404665E-05
(PID.TID 0000.0001) %MON dynstat_vvel_max             =   2.0129864276459E+00
(PID.TID 0000.0001) %MON dynstat_vvel_min             =  -1.7525760144038E+00
(PID.TID 0000.0001) %MON dynstat_vvel_mean            =   2.4481639504135E-03
(PID.TID 0000.0001) %MON dynstat_vvel_sd              =   5.0341931144483E-02
(PID.TID 0000.0001) %MON dynstat_vvel_del2            =   4.4274572017254E-05
(PID.TID 0000.0001) %MON dynstat_wvel_max             =   1.1319242218461E-02
(PID.TID 0000.0001) %MON dynstat_wvel_min             =  -1.0289846934014E-02
(PID.TID 0000.0001) %MON dynstat_wvel_mean            =  -9.3412144922477E-08
(PID.TID 0000.0001) %MON dynstat_wvel_sd              =   1.9467487657085E-04
(PID.TID 0000.0001) %MON dynstat_wvel_del2            =   4.0046721743159E-07
(PID.TID 0000.0001) %MON dynstat_theta_max            =   3.2410362796479E+01
(PID.TID 0000.0001) %MON dynstat_theta_min            =  -2.0385903875749E+00
(PID.TID 0000.0001) %MON dynstat_theta_mean           =   3.5917583075156E+00
(PID.TID 0000.0001) %MON dynstat_theta_sd             =   4.4413106465228E+00
(PID.TID 0000.0001) %MON dynstat_theta_del2           =   1.2984343559061E-04
(PID.TID 0000.0001) %MON dynstat_salt_max             =   4.0655989281372E+01
(PID.TID 0000.0001) %MON dynstat_salt_min             =   1.5916428064598E+01
(PID.TID 0000.0001) %MON dynstat_salt_mean            =   3.4724787658094E+01
(PID.TID 0000.0001) %MON dynstat_salt_sd              =   3.7976958522609E-01
(PID.TID 0000.0001) %MON dynstat_salt_del2            =   6.2258581438454E-05
(PID.TID 0000.0001) %MON dynstat_sst_max              =   3.2410362796479E+01
(PID.TID 0000.0001) %MON dynstat_sst_min              =  -2.0385903875749E+00
(PID.TID 0000.0001) %MON dynstat_sst_mean             =   1.8172421559284E+01
(PID.TID 0000.0001) %MON dynstat_sst_sd               =   1.0208387225354E+01
(PID.TID 0000.0001) %MON dynstat_sst_del2             =   1.0927558410464E-03
(PID.TID 0000.0001) %MON dynstat_sss_max              =   3.9463502402759E+01
(PID.TID 0000.0001) %MON dynstat_sss_min              =   1.5916428064598E+01
(PID.TID 0000.0001) %MON dynstat_sss_mean             =   3.4640841848741E+01
(PID.TID 0000.0001) %MON dynstat_sss_sd               =   1.3042847314166E+00
(PID.TID 0000.0001) %MON dynstat_sss_del2             =   1.4650330081773E-03
(PID.TID 0000.0001) %MON forcing_qnet_max             =   7.1132048806482E+02
(PID.TID 0000.0001) %MON forcing_qnet_min             =  -7.2290317382812E+03
(PID.TID 0000.0001) %MON forcing_qnet_mean            =  -2.3665904634165E+00
(PID.TID 0000.0001) %MON forcing_qnet_sd              =   2.0693713346575E+02
(PID.TID 0000.0001) %MON forcing_qnet_del2            =   4.7403362043934E-01
(PID.TID 0000.0001) %MON forcing_qsw_max              =   0.0000000000000E+00
(PID.TID 0000.0001) %MON forcing_qsw_min              =  -1.1145417097222E+02
(PID.TID 0000.0001) %MON forcing_qsw_mean             =  -1.9498004664700E+01
(PID.TID 0000.0001) %MON forcing_qsw_sd               =   2.9628410874921E+01
(PID.TID 0000.0001) %MON forcing_qsw_del2             =   2.2502746146771E-02
(PID.TID 0000.0001) %MON forcing_empmr_max            =   2.1552953869104E-02
(PID.TID 0000.0001) %MON forcing_empmr_min            =  -4.0597949177027E-02
(PID.TID 0000.0001) %MON forcing_empmr_mean           =  -2.2210362724475E-06
(PID.TID 0000.0001) %MON forcing_empmr_sd             =   3.2503258102207E-04
(PID.TID 0000.0001) %MON forcing_empmr_del2           =   4.0983052970735E-06
(PID.TID 0000.0001) %MON forcing_fu_max               =   8.6593025922775E-01
(PID.TID 0000.0001) %MON forcing_fu_min               =  -1.3014817222448E+00
(PID.TID 0000.0001) %MON forcing_fu_mean              =   1.0739098277301E-02
(PID.TID 0000.0001) %MON forcing_fu_sd                =   1.2597867239218E-01
(PID.TID 0000.0001) %MON forcing_fu_del2              =   1.6606539992587E-04
(PID.TID 0000.0001) %MON forcing_fv_max               =   1.1895141005516E+00
(PID.TID 0000.0001) %MON forcing_fv_min               =  -1.1911649703979E+00
(PID.TID 0000.0001) %MON forcing_fv_mean              =   7.4552209534379E-04
(PID.TID 0000.0001) %MON forcing_fv_sd                =   1.2236366630449E-01
(PID.TID 0000.0001) %MON forcing_fv_del2              =   1.6230620242148E-04
(PID.TID 0000.0001) %MON trAdv_CFL_u_max              =   2.2007533864818E-02
(PID.TID 0000.0001) %MON trAdv_CFL_v_max              =   2.0491448806584E-02
(PID.TID 0000.0001) %MON trAdv_CFL_w_max              =   1.0372954555447E-01
(PID.TID 0000.0001) %MON advcfl_uvel_max              =   2.2301915286876E-02
(PID.TID 0000.0001) %MON advcfl_vvel_max              =   2.0425417547515E-02
(PID.TID 0000.0001) %MON advcfl_wvel_max              =   9.7950797692384E-02
(PID.TID 0000.0001) %MON advcfl_W_hf_max              =   1.0372954555447E-01
(PID.TID 0000.0001) %MON pe_b_mean                    =   2.7107732679115E-03
(PID.TID 0000.0001) %MON ke_max                       =   2.1871869437936E+00
(PID.TID 0000.0001) %MON ke_mean                      =   2.4072288471037E-03
(PID.TID 0000.0001) %MON ke_vol                       =   1.3350064351420E+18
(PID.TID 0000.0001) %MON vort_r_min                   =  -7.1763366941434E-05
(PID.TID 0000.0001) %MON vort_r_max                   =   7.9407852870940E-05
(PID.TID 0000.0001) %MON vort_a_mean                  =  -1.9725077241732E-05
(PID.TID 0000.0001) %MON vort_a_sd                    =   7.4542936695917E-05
(PID.TID 0000.0001) %MON vort_p_mean                  =  -2.1669082237509E-05
(PID.TID 0000.0001) %MON vort_p_sd                    =   9.3620213063902E-05
(PID.TID 0000.0001) %MON surfExpan_theta_mean         =   1.2226583524405E-05
(PID.TID 0000.0001) %MON surfExpan_salt_mean          =  -2.5702295837784E-05
(PID.TID 0000.0001) // =======================================================
(PID.TID 0000.0001) // End MONITOR dynamic field statistics
(PID.TID 0000.0001) // =======================================================
(PID.TID 0000.0001) // =======================================================
(PID.TID 0000.0001) // Begin MONITOR SEAICE statistics
(PID.TID 0000.0001) // =======================================================
(PID.TID 0000.0001) %MON seaice_tsnumber              =                174911
(PID.TID 0000.0001) %MON seaice_time_sec              =   7.8709950000000E+07
(PID.TID 0000.0001) %MON seaice_uice_max              =   1.1789875672065E+00
(PID.TID 0000.0001) %MON seaice_uice_min              =  -1.4941951801396E+00
(PID.TID 0000.0001) %MON seaice_uice_mean             =   9.7097922966556E-03
(PID.TID 0000.0001) %MON seaice_uice_sd               =   1.5014502178532E-01
(PID.TID 0000.0001) %MON seaice_uice_del2             =   3.8276226612804E-04
(PID.TID 0000.0001) %MON seaice_vice_max              =   9.9425502854975E-01
(PID.TID 0000.0001) %MON seaice_vice_min              =  -1.4885197734275E+00
(PID.TID 0000.0001) %MON seaice_vice_mean             =  -1.5912476123902E-02
(PID.TID 0000.0001) %MON seaice_vice_sd               =   1.6173172720218E-01
(PID.TID 0000.0001) %MON seaice_vice_del2             =   3.7304332307971E-04
(PID.TID 0000.0001) %MON seaice_area_max              =   1.0011500960578E+00
(PID.TID 0000.0001) %MON seaice_area_min              =   0.0000000000000E+00
(PID.TID 0000.0001) %MON seaice_area_mean             =   5.7682396538295E-02
(PID.TID 0000.0001) %MON seaice_area_sd               =   2.2074857088038E-01
(PID.TID 0000.0001) %MON seaice_area_del2             =   2.8267271388941E-04
(PID.TID 0000.0001) %MON seaice_heff_max              =   9.9471828562703E+00
(PID.TID 0000.0001) %MON seaice_heff_min              =   0.0000000000000E+00
(PID.TID 0000.0001) %MON seaice_heff_mean             =   1.4924885621178E-01
(PID.TID 0000.0001) %MON seaice_heff_sd               =   7.1914531010748E-01
(PID.TID 0000.0001) %MON seaice_heff_del2             =   1.3144019989185E-03
(PID.TID 0000.0001) %MON seaice_hsnow_max             =   3.2855753565325E+00
(PID.TID 0000.0001) %MON seaice_hsnow_min             =   0.0000000000000E+00
(PID.TID 0000.0001) %MON seaice_hsnow_mean            =   1.2578488947900E-02
(PID.TID 0000.0001) %MON seaice_hsnow_sd              =   6.7294872803461E-02
(PID.TID 0000.0001) %MON seaice_hsnow_del2            =   3.4909351540867E-04
(PID.TID 0000.0001) // =======================================================
(PID.TID 0000.0001) // End MONITOR SEAICE statistics
(PID.TID 0000.0001) // =======================================================
(PID.TID 0000.0001) // =======================================================
(PID.TID 0000.0001) // Begin MONITOR dynamic field statistics
(PID.TID 0000.0001) // =======================================================
(PID.TID 0000.0001) %MON time_tsnumber                =                174912
(PID.TID 0000.0001) %MON time_secondsf                =   7.8710400000000E+07
(PID.TID 0000.0001) %MON dynstat_eta_max              =   2.6069215475222E+00
(PID.TID 0000.0001) %MON dynstat_eta_min              =  -1.0050426373417E+01
(PID.TID 0000.0001) %MON dynstat_eta_mean             =   8.9455522344721E-02
(PID.TID 0000.0001) %MON dynstat_eta_sd               =   1.0133881546582E+00
(PID.TID 0000.0001) %MON dynstat_eta_del2             =   2.0125186269594E-03
(PID.TID 0000.0001) %MON dynstat_uvel_max             =   1.3839451451977E+00
(PID.TID 0000.0001) %MON dynstat_uvel_min             =  -2.3078689171307E+00
(PID.TID 0000.0001) %MON dynstat_uvel_mean            =   6.6236957476155E-03
(PID.TID 0000.0001) %MON dynstat_uvel_sd              =   4.9306163593614E-02
(PID.TID 0000.0001) %MON dynstat_uvel_del2            =   4.5594688835000E-05
(PID.TID 0000.0001) %MON dynstat_vvel_max             =   2.0098207975770E+00
(PID.TID 0000.0001) %MON dynstat_vvel_min             =  -1.7509871875251E+00
(PID.TID 0000.0001) %MON dynstat_vvel_mean            =   2.3989646740530E-03
(PID.TID 0000.0001) %MON dynstat_vvel_sd              =   5.0622804989067E-02
(PID.TID 0000.0001) %MON dynstat_vvel_del2            =   4.4401656135355E-05
(PID.TID 0000.0001) %MON dynstat_wvel_max             =   1.1410850739698E-02
(PID.TID 0000.0001) %MON dynstat_wvel_min             =  -1.0320608491722E-02
(PID.TID 0000.0001) %MON dynstat_wvel_mean            =  -1.2509810884876E-07
(PID.TID 0000.0001) %MON dynstat_wvel_sd              =   1.9540757142558E-04
(PID.TID 0000.0001) %MON dynstat_wvel_del2            =   4.0157455733984E-07
(PID.TID 0000.0001) %MON dynstat_theta_max            =   3.2407604159834E+01
(PID.TID 0000.0001) %MON dynstat_theta_min            =  -2.0384467630006E+00
(PID.TID 0000.0001) %MON dynstat_theta_mean           =   3.5917570171945E+00
(PID.TID 0000.0001) %MON dynstat_theta_sd             =   4.4413090958798E+00
(PID.TID 0000.0001) %MON dynstat_theta_del2           =   1.2990209476737E-04
(PID.TID 0000.0001) %MON dynstat_salt_max             =   4.0655989281165E+01
(PID.TID 0000.0001) %MON dynstat_salt_min             =   1.5915978073995E+01
(PID.TID 0000.0001) %MON dynstat_salt_mean            =   3.4724787277131E+01
(PID.TID 0000.0001) %MON dynstat_salt_sd              =   3.7977069903407E-01
(PID.TID 0000.0001) %MON dynstat_salt_del2            =   6.2232926228076E-05
(PID.TID 0000.0001) %MON dynstat_sst_max              =   3.2407604159834E+01
(PID.TID 0000.0001) %MON dynstat_sst_min              =  -2.0384467630006E+00
(PID.TID 0000.0001) %MON dynstat_sst_mean             =   1.8172580170998E+01
(PID.TID 0000.0001) %MON dynstat_sst_sd               =   1.0208641844305E+01
(PID.TID 0000.0001) %MON dynstat_sst_del2             =   1.0925525578557E-03
(PID.TID 0000.0001) %MON dynstat_sss_max              =   3.9463531128121E+01
(PID.TID 0000.0001) %MON dynstat_sss_min              =   1.5915978073995E+01
(PID.TID 0000.0001) %MON dynstat_sss_mean             =   3.4640823288131E+01
(PID.TID 0000.0001) %MON dynstat_sss_sd               =   1.3043231877329E+00
(PID.TID 0000.0001) %MON dynstat_sss_del2             =   1.4651180505089E-03
(PID.TID 0000.0001) %MON forcing_qnet_max             =   1.2917102050781E+03
(PID.TID 0000.0001) %MON forcing_qnet_min             =  -1.6858140869141E+03
(PID.TID 0000.0001) %MON forcing_qnet_mean            =  -2.7875373748842E+00
(PID.TID 0000.0001) %MON forcing_qnet_sd              =   2.0441444073716E+02
(PID.TID 0000.0001) %MON forcing_qnet_del2            =   3.9913022893244E-01
(PID.TID 0000.0001) %MON forcing_qsw_max              =   0.0000000000000E+00
(PID.TID 0000.0001) %MON forcing_qsw_min              =  -1.1138086731734E+02
(PID.TID 0000.0001) %MON forcing_qsw_mean             =  -1.9571437459808E+01
(PID.TID 0000.0001) %MON forcing_qsw_sd               =   2.9611593475933E+01
(PID.TID 0000.0001) %MON forcing_qsw_del2             =   2.2488893902201E-02
(PID.TID 0000.0001) %MON forcing_empmr_max            =   2.1664591506124E-02
(PID.TID 0000.0001) %MON forcing_empmr_min            =  -3.8776189088821E-02
(PID.TID 0000.0001) %MON forcing_empmr_mean           =  -2.1888040816366E-06
(PID.TID 0000.0001) %MON forcing_empmr_sd             =   3.2693988615627E-04
(PID.TID 0000.0001) %MON forcing_empmr_del2           =   4.1214560132882E-06
(PID.TID 0000.0001) %MON forcing_fu_max               =   8.6580336093902E-01
(PID.TID 0000.0001) %MON forcing_fu_min               =  -1.2981396382475E+00
(PID.TID 0000.0001) %MON forcing_fu_mean              =   1.0746118151150E-02
(PID.TID 0000.0001) %MON forcing_fu_sd                =   1.2592964501541E-01
(PID.TID 0000.0001) %MON forcing_fu_del2              =   1.6594889626796E-04
(PID.TID 0000.0001) %MON forcing_fv_max               =   1.1840127110481E+00
(PID.TID 0000.0001) %MON forcing_fv_min               =  -1.1937589049339E+00
(PID.TID 0000.0001) %MON forcing_fv_mean              =   7.5479707273945E-04
(PID.TID 0000.0001) %MON forcing_fv_sd                =   1.2243901999883E-01
(PID.TID 0000.0001) %MON forcing_fv_del2              =   1.6242714926894E-04
(PID.TID 0000.0001) %MON trAdv_CFL_u_max              =   2.1968643616653E-02
(PID.TID 0000.0001) %MON trAdv_CFL_v_max              =   2.0459223876696E-02
(PID.TID 0000.0001) %MON trAdv_CFL_w_max              =   1.0349847178438E-01
(PID.TID 0000.0001) %MON advcfl_uvel_max              =   2.2262504827467E-02
(PID.TID 0000.0001) %MON advcfl_vvel_max              =   2.0393296458635E-02
(PID.TID 0000.0001) %MON advcfl_wvel_max              =   9.7713306140358E-02
(PID.TID 0000.0001) %MON advcfl_W_hf_max              =   1.0349847178438E-01
(PID.TID 0000.0001) %MON pe_b_mean                    =   2.7048549023491E-03
(PID.TID 0000.0001) %MON ke_max                       =   2.1876945847547E+00
(PID.TID 0000.0001) %MON ke_mean                      =   2.4318762194033E-03
(PID.TID 0000.0001) %MON ke_vol                       =   1.3350064351420E+18
(PID.TID 0000.0001) %MON vort_r_min                   =  -7.1565728270356E-05
(PID.TID 0000.0001) %MON vort_r_max                   =   7.9262625879931E-05
(PID.TID 0000.0001) %MON vort_a_mean                  =  -1.9725077238533E-05
(PID.TID 0000.0001) %MON vort_a_sd                    =   7.4542978841018E-05
(PID.TID 0000.0001) %MON vort_p_mean                  =  -2.1669082233994E-05
(PID.TID 0000.0001) %MON vort_p_sd                    =   9.3620256568402E-05
(PID.TID 0000.0001) %MON surfExpan_theta_mean         =   1.1190418256926E-05
(PID.TID 0000.0001) %MON surfExpan_salt_mean          =  -2.7623780059407E-05
(PID.TID 0000.0001) // =======================================================
(PID.TID 0000.0001) // End MONITOR dynamic field statistics
(PID.TID 0000.0001) // =======================================================
(PID.TID 0000.0001) // =======================================================
(PID.TID 0000.0001) // Begin MONITOR SEAICE statistics
(PID.TID 0000.0001) // =======================================================
(PID.TID 0000.0001) %MON seaice_tsnumber              =                174912
(PID.TID 0000.0001) %MON seaice_time_sec              =   7.8710400000000E+07
(PID.TID 0000.0001) %MON seaice_uice_max              =   1.1769578936477E+00
(PID.TID 0000.0001) %MON seaice_uice_min              =  -1.4857515796678E+00
(PID.TID 0000.0001) %MON seaice_uice_mean             =   9.6449230607435E-03
(PID.TID 0000.0001) %MON seaice_uice_sd               =   1.5015701724433E-01
(PID.TID 0000.0001) %MON seaice_uice_del2             =   3.8329097318966E-04
(PID.TID 0000.0001) %MON seaice_vice_max              =   9.9638799056742E-01
(PID.TID 0000.0001) %MON seaice_vice_min              =  -1.4905951651826E+00
(PID.TID 0000.0001) %MON seaice_vice_mean             =  -1.6108438951700E-02
(PID.TID 0000.0001) %MON seaice_vice_sd               =   1.6183476970672E-01
(PID.TID 0000.0001) %MON seaice_vice_del2             =   3.7376934536025E-04
(PID.TID 0000.0001) %MON seaice_area_max              =   1.0011505905743E+00
(PID.TID 0000.0001) %MON seaice_area_min              =   0.0000000000000E+00
(PID.TID 0000.0001) %MON seaice_area_mean             =   5.7685430718487E-02
(PID.TID 0000.0001) %MON seaice_area_sd               =   2.2074796198118E-01
(PID.TID 0000.0001) %MON seaice_area_del2             =   2.8261058033493E-04
(PID.TID 0000.0001) %MON seaice_heff_max              =   9.9471752459458E+00
(PID.TID 0000.0001) %MON seaice_heff_min              =   0.0000000000000E+00
(PID.TID 0000.0001) %MON seaice_heff_mean             =   1.4924545879626E-01
(PID.TID 0000.0001) %MON seaice_heff_sd               =   7.1913323074969E-01
(PID.TID 0000.0001) %MON seaice_heff_del2             =   1.3138314177200E-03
(PID.TID 0000.0001) %MON seaice_hsnow_max             =   3.2855731575974E+00
(PID.TID 0000.0001) %MON seaice_hsnow_min             =   0.0000000000000E+00
(PID.TID 0000.0001) %MON seaice_hsnow_mean            =   1.2577701321496E-02
(PID.TID 0000.0001) %MON seaice_hsnow_sd              =   6.7283847899186E-02
(PID.TID 0000.0001) %MON seaice_hsnow_del2            =   3.4880466110316E-04
(PID.TID 0000.0001) // =======================================================
(PID.TID 0000.0001) // End MONITOR SEAICE statistics
(PID.TID 0000.0001) // =======================================================
(PID.TID 0000.0001) // =======================================================
(PID.TID 0000.0001) // Begin MONITOR dynamic field statistics
(PID.TID 0000.0001) // =======================================================
(PID.TID 0000.0001) %MON time_tsnumber                =                174913
(PID.TID 0000.0001) %MON time_secondsf                =   7.8710850000000E+07
(PID.TID 0000.0001) %MON dynstat_eta_max              =   2.6037806859199E+00
(PID.TID 0000.0001) %MON dynstat_eta_min              =  -1.0070955655339E+01
(PID.TID 0000.0001) %MON dynstat_eta_mean             =   8.9035527820806E-02
(PID.TID 0000.0001) %MON dynstat_eta_sd               =   1.0156952490911E+00
(PID.TID 0000.0001) %MON dynstat_eta_del2             =   2.0124936831364E-03
(PID.TID 0000.0001) %MON dynstat_uvel_max             =   1.3819967940291E+00
(PID.TID 0000.0001) %MON dynstat_uvel_min             =  -2.3110191167662E+00
(PID.TID 0000.0001) %MON dynstat_uvel_mean            =   6.6045330925279E-03
(PID.TID 0000.0001) %MON dynstat_uvel_sd              =   4.9543264484913E-02
(PID.TID 0000.0001) %MON dynstat_uvel_del2            =   4.5721193453032E-05
(PID.TID 0000.0001) %MON dynstat_vvel_max             =   2.0062019198417E+00
(PID.TID 0000.0001) %MON dynstat_vvel_min             =  -1.7493620756627E+00
(PID.TID 0000.0001) %MON dynstat_vvel_mean            =   2.3501164470579E-03
(PID.TID 0000.0001) %MON dynstat_vvel_sd              =   5.0905414598616E-02
(PID.TID 0000.0001) %MON dynstat_vvel_del2            =   4.4529028882503E-05
(PID.TID 0000.0001) %MON dynstat_wvel_max             =   1.1501627312131E-02
(PID.TID 0000.0001) %MON dynstat_wvel_min             =  -1.0351410755330E-02
(PID.TID 0000.0001) %MON dynstat_wvel_mean            =  -1.5804526490538E-07
(PID.TID 0000.0001) %MON dynstat_wvel_sd              =   1.9613703086206E-04
(PID.TID 0000.0001) %MON dynstat_wvel_del2            =   4.0267383352714E-07
(PID.TID 0000.0001) %MON dynstat_theta_max            =   3.2404852032818E+01
(PID.TID 0000.0001) %MON dynstat_theta_min            =  -2.0383016266781E+00
(PID.TID 0000.0001) %MON dynstat_theta_mean           =   3.5917558632990E+00
(PID.TID 0000.0001) %MON dynstat_theta_sd             =   4.4413078787877E+00
(PID.TID 0000.0001) %MON dynstat_theta_del2           =   1.2996075880345E-04
(PID.TID 0000.0001) %MON dynstat_salt_max             =   4.0655989280958E+01
(PID.TID 0000.0001) %MON dynstat_salt_min             =   1.5915540650154E+01
(PID.TID 0000.0001) %MON dynstat_salt_mean            =   3.4724786894365E+01
(PID.TID 0000.0001) %MON dynstat_salt_sd              =   3.7977182985905E-01
(PID.TID 0000.0001) %MON dynstat_salt_del2            =   6.2207436019644E-05
(PID.TID 0000.0001) %MON dynstat_sst_max              =   3.2404852032818E+01
(PID.TID 0000.0001) %MON dynstat_sst_min              =  -2.0383016266781E+00
(PID.TID 0000.0001) %MON dynstat_sst_mean             =   1.8172736526546E+01
(PID.TID 0000.0001) %MON dynstat_sst_sd               =   1.0208897544097E+01
(PID.TID 0000.0001) %MON dynstat_sst_del2             =   1.0923095706288E-03
(PID.TID 0000.0001) %MON dynstat_sss_max              =   3.9463560280596E+01
(PID.TID 0000.0001) %MON dynstat_sss_min              =   1.5915540650154E+01
(PID.TID 0000.0001) %MON dynstat_sss_mean             =   3.4640804117956E+01
(PID.TID 0000.0001) %MON dynstat_sss_sd               =   1.3043620615982E+00
(PID.TID 0000.0001) %MON dynstat_sss_del2             =   1.4652055057275E-03
(PID.TID 0000.0001) %MON forcing_qnet_max             =   2.9563493652344E+03
(PID.TID 0000.0001) %MON forcing_qnet_min             =  -1.6204309082031E+03
(PID.TID 0000.0001) %MON forcing_qnet_mean            =  -3.0338642898109E+00
(PID.TID 0000.0001) %MON forcing_qnet_sd              =   2.0469138706239E+02
(PID.TID 0000.0001) %MON forcing_qnet_del2            =   4.3100517733871E-01
(PID.TID 0000.0001) %MON forcing_qsw_max              =   0.0000000000000E+00
(PID.TID 0000.0001) %MON forcing_qsw_min              =  -1.1122955360714E+02
(PID.TID 0000.0001) %MON forcing_qsw_mean             =  -1.9631205531609E+01
(PID.TID 0000.0001) %MON forcing_qsw_sd               =   2.9590044573926E+01
(PID.TID 0000.0001) %MON forcing_qsw_del2             =   2.2465525149098E-02
(PID.TID 0000.0001) %MON forcing_empmr_max            =   2.1087666973472E-02
(PID.TID 0000.0001) %MON forcing_empmr_min            =  -4.0109813213348E-02
(PID.TID 0000.0001) %MON forcing_empmr_mean           =  -2.8168882416121E-06
(PID.TID 0000.0001) %MON forcing_empmr_sd             =   3.3380924067013E-04
(PID.TID 0000.0001) %MON forcing_empmr_del2           =   4.1597713203213E-06
(PID.TID 0000.0001) %MON forcing_fu_max               =   8.6597377061844E-01
(PID.TID 0000.0001) %MON forcing_fu_min               =  -1.2959594306267E+00
(PID.TID 0000.0001) %MON forcing_fu_mean              =   1.0748301792841E-02
(PID.TID 0000.0001) %MON forcing_fu_sd                =   1.2587093611936E-01
(PID.TID 0000.0001) %MON forcing_fu_del2              =   1.6586196314619E-04
(PID.TID 0000.0001) %MON forcing_fv_max               =   1.1807700395584E+00
(PID.TID 0000.0001) %MON forcing_fv_min               =  -1.1961126327515E+00
(PID.TID 0000.0001) %MON forcing_fv_mean              =   7.6188083029062E-04
(PID.TID 0000.0001) %MON forcing_fv_sd                =   1.2251024060590E-01
(PID.TID 0000.0001) %MON forcing_fv_del2              =   1.6265086190711E-04
(PID.TID 0000.0001) %MON trAdv_CFL_u_max              =   2.1929674107878E-02
(PID.TID 0000.0001) %MON trAdv_CFL_v_max              =   2.0422385055116E-02
(PID.TID 0000.0001) %MON trAdv_CFL_w_max              =   1.0325717402110E-01
(PID.TID 0000.0001) %MON advcfl_uvel_max              =   2.2223014047228E-02
(PID.TID 0000.0001) %MON advcfl_vvel_max              =   2.0356576345781E-02
(PID.TID 0000.0001) %MON advcfl_wvel_max              =   9.7466345400701E-02
(PID.TID 0000.0001) %MON advcfl_W_hf_max              =   1.0325717402110E-01
(PID.TID 0000.0001) %MON pe_b_mean                    =   2.6982676656648E-03
(PID.TID 0000.0001) %MON ke_max                       =   2.1879496157122E+00
(PID.TID 0000.0001) %MON ke_mean                      =   2.4567790129758E-03
(PID.TID 0000.0001) %MON ke_vol                       =   1.3350064351420E+18
(PID.TID 0000.0001) %MON vort_r_min                   =  -7.1369554207104E-05
(PID.TID 0000.0001) %MON vort_r_max                   =   7.9118050609711E-05
(PID.TID 0000.0001) %MON vort_a_mean                  =  -1.9725077234565E-05
(PID.TID 0000.0001) %MON vort_a_sd                    =   7.4543021904207E-05
(PID.TID 0000.0001) %MON vort_p_mean                  =  -2.1669082229635E-05
(PID.TID 0000.0001) %MON vort_p_sd                    =   9.3620300569745E-05
(PID.TID 0000.0001) %MON surfExpan_theta_mean         =   1.0066788550525E-05
(PID.TID 0000.0001) %MON surfExpan_salt_mean          =  -2.9609327599440E-05
(PID.TID 0000.0001) // =======================================================
(PID.TID 0000.0001) // End MONITOR dynamic field statistics
(PID.TID 0000.0001) // =======================================================
(PID.TID 0000.0001) // =======================================================
(PID.TID 0000.0001) // Begin MONITOR SEAICE statistics
(PID.TID 0000.0001) // =======================================================
(PID.TID 0000.0001) %MON seaice_tsnumber              =                174913
(PID.TID 0000.0001) %MON seaice_time_sec              =   7.8710850000000E+07
(PID.TID 0000.0001) %MON seaice_uice_max              =   1.1768589136387E+00
(PID.TID 0000.0001) %MON seaice_uice_min              =  -1.4767550007246E+00
(PID.TID 0000.0001) %MON seaice_uice_mean             =   9.5828237296020E-03
(PID.TID 0000.0001) %MON seaice_uice_sd               =   1.5016427861041E-01
(PID.TID 0000.0001) %MON seaice_uice_del2             =   3.8379836414255E-04
(PID.TID 0000.0001) %MON seaice_vice_max              =   9.9868198021229E-01
(PID.TID 0000.0001) %MON seaice_vice_min              =  -1.4926524308436E+00
(PID.TID 0000.0001) %MON seaice_vice_mean             =  -1.6305756124328E-02
(PID.TID 0000.0001) %MON seaice_vice_sd               =   1.6193953942235E-01
(PID.TID 0000.0001) %MON seaice_vice_del2             =   3.7449094470036E-04
(PID.TID 0000.0001) %MON seaice_area_max              =   1.0011510347463E+00
(PID.TID 0000.0001) %MON seaice_area_min              =   0.0000000000000E+00
(PID.TID 0000.0001) %MON seaice_area_mean             =   5.7688504390776E-02
(PID.TID 0000.0001) %MON seaice_area_sd               =   2.2074745629756E-01
(PID.TID 0000.0001) %MON seaice_area_del2             =   2.8255178219006E-04
(PID.TID 0000.0001) %MON seaice_heff_max              =   9.9471676363336E+00
(PID.TID 0000.0001) %MON seaice_heff_min              =   0.0000000000000E+00
(PID.TID 0000.0001) %MON seaice_heff_mean             =   1.4924207125914E-01
(PID.TID 0000.0001) %MON seaice_heff_sd               =   7.1912110928050E-01
(PID.TID 0000.0001) %MON seaice_heff_del2             =   1.3132608754865E-03
(PID.TID 0000.0001) %MON seaice_hsnow_max             =   3.2855704652481E+00
(PID.TID 0000.0001) %MON seaice_hsnow_min             =   0.0000000000000E+00
(PID.TID 0000.0001) %MON seaice_hsnow_mean            =   1.2576909982339E-02
(PID.TID 0000.0001) %MON seaice_hsnow_sd              =   6.7272796997698E-02
(PID.TID 0000.0001) %MON seaice_hsnow_del2            =   3.4851633836307E-04
(PID.TID 0000.0001) // =======================================================
(PID.TID 0000.0001) // End MONITOR SEAICE statistics
(PID.TID 0000.0001) // =======================================================
(PID.TID 0000.0001) // =======================================================
(PID.TID 0000.0001) // Begin MONITOR dynamic field statistics
(PID.TID 0000.0001) // =======================================================
(PID.TID 0000.0001) %MON time_tsnumber                =                174914
(PID.TID 0000.0001) %MON time_secondsf                =   7.8711300000000E+07
(PID.TID 0000.0001) %MON dynstat_eta_max              =   2.5963610866967E+00
(PID.TID 0000.0001) %MON dynstat_eta_min              =  -1.0092330180776E+01
(PID.TID 0000.0001) %MON dynstat_eta_mean             =   8.8589163467415E-02
(PID.TID 0000.0001) %MON dynstat_eta_sd               =   1.0180093122152E+00
(PID.TID 0000.0001) %MON dynstat_eta_del2             =   2.0124709486006E-03
(PID.TID 0000.0001) %MON dynstat_uvel_max             =   1.3799858448486E+00
(PID.TID 0000.0001) %MON dynstat_uvel_min             =  -2.3140026416550E+00
(PID.TID 0000.0001) %MON dynstat_uvel_mean            =   6.5877548833709E-03
(PID.TID 0000.0001) %MON dynstat_uvel_sd              =   4.9780829628882E-02
(PID.TID 0000.0001) %MON dynstat_uvel_del2            =   4.5847998490688E-05
(PID.TID 0000.0001) %MON dynstat_vvel_max             =   2.0021577886746E+00
(PID.TID 0000.0001) %MON dynstat_vvel_min             =  -1.7476924913032E+00
(PID.TID 0000.0001) %MON dynstat_vvel_mean            =   2.3017318204727E-03
(PID.TID 0000.0001) %MON dynstat_vvel_sd              =   5.1189697816498E-02
(PID.TID 0000.0001) %MON dynstat_vvel_del2            =   4.4656831464121E-05
(PID.TID 0000.0001) %MON dynstat_wvel_max             =   1.1591504543406E-02
(PID.TID 0000.0001) %MON dynstat_wvel_min             =  -1.0382382534098E-02
(PID.TID 0000.0001) %MON dynstat_wvel_mean            =  -1.9209755328833E-07
(PID.TID 0000.0001) %MON dynstat_wvel_sd              =   1.9686342647168E-04
(PID.TID 0000.0001) %MON dynstat_wvel_del2            =   4.0376502680298E-07
(PID.TID 0000.0001) %MON dynstat_theta_max            =   3.2402119101919E+01
(PID.TID 0000.0001) %MON dynstat_theta_min            =  -2.0381546421274E+00
(PID.TID 0000.0001) %MON dynstat_theta_mean           =   3.5917548656505E+00
(PID.TID 0000.0001) %MON dynstat_theta_sd             =   4.4413070708981E+00
(PID.TID 0000.0001) %MON dynstat_theta_del2           =   1.3001973158536E-04
(PID.TID 0000.0001) %MON dynstat_salt_max             =   4.0655989280751E+01
(PID.TID 0000.0001) %MON dynstat_salt_min             =   1.5915113877060E+01
(PID.TID 0000.0001) %MON dynstat_salt_mean            =   3.4724786516824E+01
(PID.TID 0000.0001) %MON dynstat_salt_sd              =   3.7977296923050E-01
(PID.TID 0000.0001) %MON dynstat_salt_del2            =   6.2181938441550E-05
(PID.TID 0000.0001) %MON dynstat_sst_max              =   3.2402119101919E+01
(PID.TID 0000.0001) %MON dynstat_sst_min              =  -2.0381546421274E+00
(PID.TID 0000.0001) %MON dynstat_sst_mean             =   1.8172892520203E+01
(PID.TID 0000.0001) %MON dynstat_sst_sd               =   1.0209155412727E+01
(PID.TID 0000.0001) %MON dynstat_sst_del2             =   1.0920690166744E-03
(PID.TID 0000.0001) %MON dynstat_sss_max              =   3.9463589222838E+01
(PID.TID 0000.0001) %MON dynstat_sss_min              =   1.5915113877060E+01
(PID.TID 0000.0001) %MON dynstat_sss_mean             =   3.4640785000076E+01
(PID.TID 0000.0001) %MON dynstat_sss_sd               =   1.3044017842793E+00
(PID.TID 0000.0001) %MON dynstat_sss_del2             =   1.4652856232106E-03
(PID.TID 0000.0001) %MON forcing_qnet_max             =   1.7520311279297E+03
(PID.TID 0000.0001) %MON forcing_qnet_min             =  -1.6010885009766E+03
(PID.TID 0000.0001) %MON forcing_qnet_mean            =  -3.5608020097762E+00
(PID.TID 0000.0001) %MON forcing_qnet_sd              =   2.0393972202549E+02
(PID.TID 0000.0001) %MON forcing_qnet_del2            =   3.9434405531489E-01
(PID.TID 0000.0001) %MON forcing_qsw_max              =   0.0000000000000E+00
(PID.TID 0000.0001) %MON forcing_qsw_min              =  -1.1111468310835E+02
(PID.TID 0000.0001) %MON forcing_qsw_mean             =  -1.9676971068999E+01
(PID.TID 0000.0001) %MON forcing_qsw_sd               =   2.9564147977622E+01
(PID.TID 0000.0001) %MON forcing_qsw_del2             =   2.2432850187748E-02
(PID.TID 0000.0001) %MON forcing_empmr_max            =   2.0048286765814E-02
(PID.TID 0000.0001) %MON forcing_empmr_min            =  -3.9252705872059E-02
(PID.TID 0000.0001) %MON forcing_empmr_mean           =  -2.6851876794092E-06
(PID.TID 0000.0001) %MON forcing_empmr_sd             =   3.3338198940971E-04
(PID.TID 0000.0001) %MON forcing_empmr_del2           =   4.1183434546060E-06
(PID.TID 0000.0001) %MON forcing_fu_max               =   8.6484724283218E-01
(PID.TID 0000.0001) %MON forcing_fu_min               =  -1.2908385298278E+00
(PID.TID 0000.0001) %MON forcing_fu_mean              =   1.0743981011708E-02
(PID.TID 0000.0001) %MON forcing_fu_sd                =   1.2580789515465E-01
(PID.TID 0000.0001) %MON forcing_fu_del2              =   1.6584115992147E-04
(PID.TID 0000.0001) %MON forcing_fv_max               =   1.1768726706505E+00
(PID.TID 0000.0001) %MON forcing_fv_min               =  -1.2007793188095E+00
(PID.TID 0000.0001) %MON forcing_fv_mean              =   7.6651871155317E-04
(PID.TID 0000.0001) %MON forcing_fv_sd                =   1.2254198955061E-01
(PID.TID 0000.0001) %MON forcing_fv_del2              =   1.6261417023319E-04
(PID.TID 0000.0001) %MON trAdv_CFL_u_max              =   2.1890542589965E-02
(PID.TID 0000.0001) %MON trAdv_CFL_v_max              =   2.0381217312682E-02
(PID.TID 0000.0001) %MON trAdv_CFL_w_max              =   1.0300488263504E-01
(PID.TID 0000.0001) %MON advcfl_uvel_max              =   2.2183359090752E-02
(PID.TID 0000.0001) %MON advcfl_vvel_max              =   2.0315541261505E-02
(PID.TID 0000.0001) %MON advcfl_wvel_max              =   9.7208908816960E-02
(PID.TID 0000.0001) %MON advcfl_W_hf_max              =   1.0300488263504E-01
(PID.TID 0000.0001) %MON pe_b_mean                    =   2.6909840271701E-03
(PID.TID 0000.0001) %MON ke_max                       =   2.1879542916597E+00
(PID.TID 0000.0001) %MON ke_mean                      =   2.4819367896241E-03
(PID.TID 0000.0001) %MON ke_vol                       =   1.3350064351420E+18
(PID.TID 0000.0001) %MON vort_r_min                   =  -7.1174375994123E-05
(PID.TID 0000.0001) %MON vort_r_max                   =   7.8973665468387E-05
(PID.TID 0000.0001) %MON vort_a_mean                  =  -1.9725077229794E-05
(PID.TID 0000.0001) %MON vort_a_sd                    =   7.4543065895100E-05
(PID.TID 0000.0001) %MON vort_p_mean                  =  -2.1669082224394E-05
(PID.TID 0000.0001) %MON vort_p_sd                    =   9.3620344432733E-05
(PID.TID 0000.0001) %MON surfExpan_theta_mean         =   8.8610458890992E-06
(PID.TID 0000.0001) %MON surfExpan_salt_mean          =  -3.1645325094053E-05
(PID.TID 0000.0001) // =======================================================
(PID.TID 0000.0001) // End MONITOR dynamic field statistics
(PID.TID 0000.0001) // =======================================================
(PID.TID 0000.0001) // =======================================================
(PID.TID 0000.0001) // Begin MONITOR SEAICE statistics
(PID.TID 0000.0001) // =======================================================
(PID.TID 0000.0001) %MON seaice_tsnumber              =                174914
(PID.TID 0000.0001) %MON seaice_time_sec              =   7.8711300000000E+07
(PID.TID 0000.0001) %MON seaice_uice_max              =   1.1771236857993E+00
(PID.TID 0000.0001) %MON seaice_uice_min              =  -1.4672504552175E+00
(PID.TID 0000.0001) %MON seaice_uice_mean             =   9.5236290787257E-03
(PID.TID 0000.0001) %MON seaice_uice_sd               =   1.5017080376077E-01
(PID.TID 0000.0001) %MON seaice_uice_del2             =   3.8433040431592E-04
(PID.TID 0000.0001) %MON seaice_vice_max              =   1.0011304369978E+00
(PID.TID 0000.0001) %MON seaice_vice_min              =  -1.4946921420147E+00
(PID.TID 0000.0001) %MON seaice_vice_mean             =  -1.6504052870795E-02
(PID.TID 0000.0001) %MON seaice_vice_sd               =   1.6204755089641E-01
(PID.TID 0000.0001) %MON seaice_vice_del2             =   3.7521024387603E-04
(PID.TID 0000.0001) %MON seaice_area_max              =   1.0011512647219E+00
(PID.TID 0000.0001) %MON seaice_area_min              =   0.0000000000000E+00
(PID.TID 0000.0001) %MON seaice_area_mean             =   5.7691632146947E-02
(PID.TID 0000.0001) %MON seaice_area_sd               =   2.2074708693393E-01
(PID.TID 0000.0001) %MON seaice_area_del2             =   2.8249487088330E-04
(PID.TID 0000.0001) %MON seaice_heff_max              =   9.9471628879378E+00
(PID.TID 0000.0001) %MON seaice_heff_min              =   0.0000000000000E+00
(PID.TID 0000.0001) %MON seaice_heff_mean             =   1.4923870154237E-01
(PID.TID 0000.0001) %MON seaice_heff_sd               =   7.1910897313119E-01
(PID.TID 0000.0001) %MON seaice_heff_del2             =   1.3126906529439E-03
(PID.TID 0000.0001) %MON seaice_hsnow_max             =   3.2855685088757E+00
(PID.TID 0000.0001) %MON seaice_hsnow_min             =   0.0000000000000E+00
(PID.TID 0000.0001) %MON seaice_hsnow_mean            =   1.2576108552799E-02
(PID.TID 0000.0001) %MON seaice_hsnow_sd              =   6.7261744011132E-02
(PID.TID 0000.0001) %MON seaice_hsnow_del2            =   3.4822856251342E-04
(PID.TID 0000.0001) // =======================================================
(PID.TID 0000.0001) // End MONITOR SEAICE statistics
(PID.TID 0000.0001) // =======================================================
(PID.TID 0000.0001) // =======================================================
(PID.TID 0000.0001) // Begin MONITOR dynamic field statistics
(PID.TID 0000.0001) // =======================================================
(PID.TID 0000.0001) %MON time_tsnumber                =                174915
(PID.TID 0000.0001) %MON time_secondsf                =   7.8711750000000E+07
(PID.TID 0000.0001) %MON dynstat_eta_max              =   2.5846308222816E+00
(PID.TID 0000.0001) %MON dynstat_eta_min              =  -1.0114414726016E+01
(PID.TID 0000.0001) %MON dynstat_eta_mean             =   8.8116459026090E-02
(PID.TID 0000.0001) %MON dynstat_eta_sd               =   1.0203287452258E+00
(PID.TID 0000.0001) %MON dynstat_eta_del2             =   2.0124504940802E-03
(PID.TID 0000.0001) %MON dynstat_uvel_max             =   1.3779148020590E+00
(PID.TID 0000.0001) %MON dynstat_uvel_min             =  -2.3168228179874E+00
(PID.TID 0000.0001) %MON dynstat_uvel_mean            =   6.5733913319772E-03
(PID.TID 0000.0001) %MON dynstat_uvel_sd              =   5.0018919263173E-02
(PID.TID 0000.0001) %MON dynstat_uvel_del2            =   4.5975205689120E-05
(PID.TID 0000.0001) %MON dynstat_vvel_max             =   1.9977196967483E+00
(PID.TID 0000.0001) %MON dynstat_vvel_min             =  -1.7459810635455E+00
(PID.TID 0000.0001) %MON dynstat_vvel_mean            =   2.2539266462073E-03
(PID.TID 0000.0001) %MON dynstat_vvel_sd              =   5.1475628741176E-02
(PID.TID 0000.0001) %MON dynstat_vvel_del2            =   4.4784729835370E-05
(PID.TID 0000.0001) %MON dynstat_wvel_max             =   1.1680529666221E-02
(PID.TID 0000.0001) %MON dynstat_wvel_min             =  -1.0413571843473E-02
(PID.TID 0000.0001) %MON dynstat_wvel_mean            =  -2.2660447326941E-07
(PID.TID 0000.0001) %MON dynstat_wvel_sd              =   1.9758720411086E-04
(PID.TID 0000.0001) %MON dynstat_wvel_del2            =   4.0484809220574E-07
(PID.TID 0000.0001) %MON dynstat_theta_max            =   3.2399410908613E+01
(PID.TID 0000.0001) %MON dynstat_theta_min            =  -2.0380054573634E+00
(PID.TID 0000.0001) %MON dynstat_theta_mean           =   3.5917540269545E+00
(PID.TID 0000.0001) %MON dynstat_theta_sd             =   4.4413066632968E+00
(PID.TID 0000.0001) %MON dynstat_theta_del2           =   1.3007911693750E-04
(PID.TID 0000.0001) %MON dynstat_salt_max             =   4.0655989280545E+01
(PID.TID 0000.0001) %MON dynstat_salt_min             =   1.5914695995868E+01
(PID.TID 0000.0001) %MON dynstat_salt_mean            =   3.4724786143475E+01
(PID.TID 0000.0001) %MON dynstat_salt_sd              =   3.7977412798982E-01
(PID.TID 0000.0001) %MON dynstat_salt_del2            =   6.2157302081518E-05
(PID.TID 0000.0001) %MON dynstat_sst_max              =   3.2399410908613E+01
(PID.TID 0000.0001) %MON dynstat_sst_min              =  -2.0380054573634E+00
(PID.TID 0000.0001) %MON dynstat_sst_mean             =   1.8173048285597E+01
(PID.TID 0000.0001) %MON dynstat_sst_sd               =   1.0209416582234E+01
(PID.TID 0000.0001) %MON dynstat_sst_del2             =   1.0918529497404E-03
(PID.TID 0000.0001) %MON dynstat_sss_max              =   3.9463618838718E+01
(PID.TID 0000.0001) %MON dynstat_sss_min              =   1.5914695995868E+01
(PID.TID 0000.0001) %MON dynstat_sss_mean             =   3.4640767047700E+01
(PID.TID 0000.0001) %MON dynstat_sss_sd               =   1.3044415451098E+00
(PID.TID 0000.0001) %MON dynstat_sss_del2             =   1.4654081235163E-03
(PID.TID 0000.0001) %MON forcing_qnet_max             =   1.0121063842773E+03
(PID.TID 0000.0001) %MON forcing_qnet_min             =  -1.4578166503906E+03
(PID.TID 0000.0001) %MON forcing_qnet_mean            =  -3.9357312870687E+00
(PID.TID 0000.0001) %MON forcing_qnet_sd              =   2.0335349268680E+02
(PID.TID 0000.0001) %MON forcing_qnet_del2            =   3.7340113334229E-01
(PID.TID 0000.0001) %MON forcing_qsw_max              =   0.0000000000000E+00
(PID.TID 0000.0001) %MON forcing_qsw_min              =  -1.1098875242862E+02
(PID.TID 0000.0001) %MON forcing_qsw_mean             =  -1.9708268877794E+01
(PID.TID 0000.0001) %MON forcing_qsw_sd               =   2.9534372160809E+01
(PID.TID 0000.0001) %MON forcing_qsw_del2             =   2.2390834220877E-02
(PID.TID 0000.0001) %MON forcing_empmr_max            =   2.0507270470262E-02
(PID.TID 0000.0001) %MON forcing_empmr_min            =  -4.0216900408268E-02
(PID.TID 0000.0001) %MON forcing_empmr_mean           =  -2.7343463184192E-06
(PID.TID 0000.0001) %MON forcing_empmr_sd             =   3.3820989805129E-04
(PID.TID 0000.0001) %MON forcing_empmr_del2           =   4.1068219001921E-06
(PID.TID 0000.0001) %MON forcing_fu_max               =   8.7143421173096E-01
(PID.TID 0000.0001) %MON forcing_fu_min               =  -1.2869963617070E+00
(PID.TID 0000.0001) %MON forcing_fu_mean              =   1.0757671456996E-02
(PID.TID 0000.0001) %MON forcing_fu_sd                =   1.2576260380794E-01
(PID.TID 0000.0001) %MON forcing_fu_del2              =   1.6556905563864E-04
(PID.TID 0000.0001) %MON forcing_fv_max               =   1.1729753017426E+00
(PID.TID 0000.0001) %MON forcing_fv_min               =  -1.2020087838173E+00
(PID.TID 0000.0001) %MON forcing_fv_mean              =   7.8097764255752E-04
(PID.TID 0000.0001) %MON forcing_fv_sd                =   1.2261247433066E-01
(PID.TID 0000.0001) %MON forcing_fv_del2              =   1.6286246937422E-04
(PID.TID 0000.0001) %MON trAdv_CFL_u_max              =   2.1851192233638E-02
(PID.TID 0000.0001) %MON trAdv_CFL_v_max              =   2.0336039197092E-02
(PID.TID 0000.0001) %MON trAdv_CFL_w_max              =   1.0274393709224E-01
(PID.TID 0000.0001) %MON advcfl_uvel_max              =   2.2143482368594E-02
(PID.TID 0000.0001) %MON advcfl_vvel_max              =   2.0270508727025E-02
(PID.TID 0000.0001) %MON advcfl_wvel_max              =   9.6943292767854E-02
(PID.TID 0000.0001) %MON advcfl_W_hf_max              =   1.0274393709224E-01
(PID.TID 0000.0001) %MON pe_b_mean                    =   2.6830008467304E-03
(PID.TID 0000.0001) %MON ke_max                       =   2.1877160744911E+00
(PID.TID 0000.0001) %MON ke_mean                      =   2.5073531271972E-03
(PID.TID 0000.0001) %MON ke_vol                       =   1.3350064351420E+18
(PID.TID 0000.0001) %MON vort_r_min                   =  -7.0979767910547E-05
(PID.TID 0000.0001) %MON vort_r_max                   =   7.8829082553100E-05
(PID.TID 0000.0001) %MON vort_a_mean                  =  -1.9725077224277E-05
(PID.TID 0000.0001) %MON vort_a_sd                    =   7.4543110814703E-05
(PID.TID 0000.0001) %MON vort_p_mean                  =  -2.1669082218333E-05
(PID.TID 0000.0001) %MON vort_p_sd                    =   9.3620388714493E-05
(PID.TID 0000.0001) %MON surfExpan_theta_mean         =   7.5923695285034E-06
(PID.TID 0000.0001) %MON surfExpan_salt_mean          =  -3.3695168134271E-05
(PID.TID 0000.0001) // =======================================================
(PID.TID 0000.0001) // End MONITOR dynamic field statistics
(PID.TID 0000.0001) // =======================================================
(PID.TID 0000.0001) // =======================================================
(PID.TID 0000.0001) // Begin MONITOR SEAICE statistics
(PID.TID 0000.0001) // =======================================================
(PID.TID 0000.0001) %MON seaice_tsnumber              =                174915
(PID.TID 0000.0001) %MON seaice_time_sec              =   7.8711750000000E+07
(PID.TID 0000.0001) %MON seaice_uice_max              =   1.1773908546057E+00
(PID.TID 0000.0001) %MON seaice_uice_min              =  -1.4572847024077E+00
(PID.TID 0000.0001) %MON seaice_uice_mean             =   9.4685534567952E-03
(PID.TID 0000.0001) %MON seaice_uice_sd               =   1.5017090040374E-01
(PID.TID 0000.0001) %MON seaice_uice_del2             =   3.8522146818690E-04
(PID.TID 0000.0001) %MON seaice_vice_max              =   1.0037176727783E+00
(PID.TID 0000.0001) %MON seaice_vice_min              =  -1.4967135844209E+00
(PID.TID 0000.0001) %MON seaice_vice_mean             =  -1.6704269413710E-02
(PID.TID 0000.0001) %MON seaice_vice_sd               =   1.6215671300887E-01
(PID.TID 0000.0001) %MON seaice_vice_del2             =   3.7594581897185E-04
(PID.TID 0000.0001) %MON seaice_area_max              =   1.0011514017193E+00
(PID.TID 0000.0001) %MON seaice_area_min              =   0.0000000000000E+00
(PID.TID 0000.0001) %MON seaice_area_mean             =   5.7694837438100E-02
(PID.TID 0000.0001) %MON seaice_area_sd               =   2.2074696442616E-01
(PID.TID 0000.0001) %MON seaice_area_del2             =   2.8244096402566E-04
(PID.TID 0000.0001) %MON seaice_heff_max              =   9.9471552783249E+00
(PID.TID 0000.0001) %MON seaice_heff_min              =   0.0000000000000E+00
(PID.TID 0000.0001) %MON seaice_heff_mean             =   1.4923534239263E-01
(PID.TID 0000.0001) %MON seaice_heff_sd               =   7.1909677963354E-01
(PID.TID 0000.0001) %MON seaice_heff_del2             =   1.3121195187739E-03
(PID.TID 0000.0001) %MON seaice_hsnow_max             =   3.2855660534595E+00
(PID.TID 0000.0001) %MON seaice_hsnow_min             =   0.0000000000000E+00
(PID.TID 0000.0001) %MON seaice_hsnow_mean            =   1.2575306250371E-02
(PID.TID 0000.0001) %MON seaice_hsnow_sd              =   6.7250696731712E-02
(PID.TID 0000.0001) %MON seaice_hsnow_del2            =   3.4794106078638E-04
(PID.TID 0000.0001) // =======================================================
(PID.TID 0000.0001) // End MONITOR SEAICE statistics
(PID.TID 0000.0001) // =======================================================
(PID.TID 0000.0001) // =======================================================
(PID.TID 0000.0001) // Begin MONITOR dynamic field statistics
(PID.TID 0000.0001) // =======================================================
(PID.TID 0000.0001) %MON time_tsnumber                =                174916
(PID.TID 0000.0001) %MON time_secondsf                =   7.8712200000000E+07
(PID.TID 0000.0001) %MON dynstat_eta_max              =   2.5866593735139E+00
(PID.TID 0000.0001) %MON dynstat_eta_min              =  -1.0137078296540E+01
(PID.TID 0000.0001) %MON dynstat_eta_mean             =   8.7617602409734E-02
(PID.TID 0000.0001) %MON dynstat_eta_sd               =   1.0226520986527E+00
(PID.TID 0000.0001) %MON dynstat_eta_del2             =   2.0124303859334E-03
(PID.TID 0000.0001) %MON dynstat_uvel_max             =   1.3757780907655E+00
(PID.TID 0000.0001) %MON dynstat_uvel_min             =  -2.3194823526430E+00
(PID.TID 0000.0001) %MON dynstat_uvel_mean            =   6.5614585702993E-03
(PID.TID 0000.0001) %MON dynstat_uvel_sd              =   5.0257544793025E-02
(PID.TID 0000.0001) %MON dynstat_uvel_del2            =   4.6102608568864E-05
(PID.TID 0000.0001) %MON dynstat_vvel_max             =   1.9929222749398E+00
(PID.TID 0000.0001) %MON dynstat_vvel_min             =  -1.7442318311339E+00
(PID.TID 0000.0001) %MON dynstat_vvel_mean            =   2.2068152213816E-03
(PID.TID 0000.0001) %MON dynstat_vvel_sd              =   5.1763159682213E-02
(PID.TID 0000.0001) %MON dynstat_vvel_del2            =   4.4913028713418E-05
(PID.TID 0000.0001) %MON dynstat_wvel_max             =   1.1768756244139E-02
(PID.TID 0000.0001) %MON dynstat_wvel_min             =  -1.0444961245437E-02
(PID.TID 0000.0001) %MON dynstat_wvel_mean            =  -2.6106938258364E-07
(PID.TID 0000.0001) %MON dynstat_wvel_sd              =   1.9830821535486E-04
(PID.TID 0000.0001) %MON dynstat_wvel_del2            =   4.0592314901125E-07
(PID.TID 0000.0001) %MON dynstat_theta_max            =   3.2396747873339E+01
(PID.TID 0000.0001) %MON dynstat_theta_min            =  -2.0378537661708E+00
(PID.TID 0000.0001) %MON dynstat_theta_mean           =   3.5917533475708E+00
(PID.TID 0000.0001) %MON dynstat_theta_sd             =   4.4413066321342E+00
(PID.TID 0000.0001) %MON dynstat_theta_del2           =   1.3013891577043E-04
(PID.TID 0000.0001) %MON dynstat_salt_max             =   4.0655989280338E+01
(PID.TID 0000.0001) %MON dynstat_salt_min             =   1.5914285581135E+01
(PID.TID 0000.0001) %MON dynstat_salt_mean            =   3.4724785775274E+01
(PID.TID 0000.0001) %MON dynstat_salt_sd              =   3.7977529641831E-01
(PID.TID 0000.0001) %MON dynstat_salt_del2            =   6.2132854237952E-05
(PID.TID 0000.0001) %MON dynstat_sst_max              =   3.2396747873339E+01
(PID.TID 0000.0001) %MON dynstat_sst_min              =  -2.0378537661708E+00
(PID.TID 0000.0001) %MON dynstat_sst_mean             =   1.8173201008642E+01
(PID.TID 0000.0001) %MON dynstat_sst_sd               =   1.0209678804787E+01
(PID.TID 0000.0001) %MON dynstat_sst_del2             =   1.0916707663707E-03
(PID.TID 0000.0001) %MON dynstat_sss_max              =   3.9463648222109E+01
(PID.TID 0000.0001) %MON dynstat_sss_min              =   1.5914285581135E+01
(PID.TID 0000.0001) %MON dynstat_sss_mean             =   3.4640748370053E+01
(PID.TID 0000.0001) %MON dynstat_sss_sd               =   1.3044822428009E+00
(PID.TID 0000.0001) %MON dynstat_sss_del2             =   1.4655351931860E-03
(PID.TID 0000.0001) %MON forcing_qnet_max             =   1.1458281250000E+03
(PID.TID 0000.0001) %MON forcing_qnet_min             =  -1.7685006103516E+03
(PID.TID 0000.0001) %MON forcing_qnet_mean            =  -4.1296285200644E+00
(PID.TID 0000.0001) %MON forcing_qnet_sd              =   2.0330589878802E+02
(PID.TID 0000.0001) %MON forcing_qnet_del2            =   3.8049109990562E-01
(PID.TID 0000.0001) %MON forcing_qsw_max              =   0.0000000000000E+00
(PID.TID 0000.0001) %MON forcing_qsw_min              =  -1.1085635336591E+02
(PID.TID 0000.0001) %MON forcing_qsw_mean             =  -1.9724620333109E+01
(PID.TID 0000.0001) %MON forcing_qsw_sd               =   2.9501168308372E+01
(PID.TID 0000.0001) %MON forcing_qsw_del2             =   2.2339549034400E-02
(PID.TID 0000.0001) %MON forcing_empmr_max            =   2.2446388378739E-02
(PID.TID 0000.0001) %MON forcing_empmr_min            =  -3.9963711053133E-02
(PID.TID 0000.0001) %MON forcing_empmr_mean           =  -2.6754047359509E-06
(PID.TID 0000.0001) %MON forcing_empmr_sd             =   3.4016932012884E-04
(PID.TID 0000.0001) %MON forcing_empmr_del2           =   4.1096499961154E-06
(PID.TID 0000.0001) %MON forcing_fu_max               =   8.7123823165893E-01
(PID.TID 0000.0001) %MON forcing_fu_min               =  -1.2847986795709E+00
(PID.TID 0000.0001) %MON forcing_fu_mean              =   1.0769540260830E-02
(PID.TID 0000.0001) %MON forcing_fu_sd                =   1.2574799097125E-01
(PID.TID 0000.0001) %MON forcing_fu_del2              =   1.6540091550475E-04
(PID.TID 0000.0001) %MON forcing_fv_max               =   1.1669601202011E+00
(PID.TID 0000.0001) %MON forcing_fv_min               =  -1.2034469246864E+00
(PID.TID 0000.0001) %MON forcing_fv_mean              =   7.8700336440012E-04
(PID.TID 0000.0001) %MON forcing_fv_sd                =   1.2267430229790E-01
(PID.TID 0000.0001) %MON forcing_fv_del2              =   1.6291100998431E-04
(PID.TID 0000.0001) %MON trAdv_CFL_u_max              =   2.1811476652308E-02
(PID.TID 0000.0001) %MON trAdv_CFL_v_max              =   2.0287203237723E-02
(PID.TID 0000.0001) %MON trAdv_CFL_w_max              =   1.0247924134891E-01
(PID.TID 0000.0001) %MON advcfl_uvel_max              =   2.2103235536040E-02
(PID.TID 0000.0001) %MON advcfl_vvel_max              =   2.0221830135732E-02
(PID.TID 0000.0001) %MON advcfl_wvel_max              =   9.6674507616909E-02
(PID.TID 0000.0001) %MON advcfl_W_hf_max              =   1.0247924134891E-01
(PID.TID 0000.0001) %MON pe_b_mean                    =   2.6743204057730E-03
(PID.TID 0000.0001) %MON ke_max                       =   2.1872408429837E+00
(PID.TID 0000.0001) %MON ke_mean                      =   2.5330280868038E-03
(PID.TID 0000.0001) %MON ke_vol                       =   1.3350064351420E+18
(PID.TID 0000.0001) %MON vort_r_min                   =  -7.0785230771710E-05
(PID.TID 0000.0001) %MON vort_r_max                   =   7.8683645560512E-05
(PID.TID 0000.0001) %MON vort_a_mean                  =  -1.9725077218105E-05
(PID.TID 0000.0001) %MON vort_a_sd                    =   7.4543156673770E-05
(PID.TID 0000.0001) %MON vort_p_mean                  =  -2.1669082211553E-05
(PID.TID 0000.0001) %MON vort_p_sd                    =   9.3620432814935E-05
(PID.TID 0000.0001) %MON surfExpan_theta_mean         =   6.2743444162553E-06
(PID.TID 0000.0001) %MON surfExpan_salt_mean          =  -3.5737405434783E-05
(PID.TID 0000.0001) // =======================================================
(PID.TID 0000.0001) // End MONITOR dynamic field statistics
(PID.TID 0000.0001) // =======================================================
(PID.TID 0000.0001) // =======================================================
(PID.TID 0000.0001) // Begin MONITOR SEAICE statistics
(PID.TID 0000.0001) // =======================================================
(PID.TID 0000.0001) %MON seaice_tsnumber              =                174916
(PID.TID 0000.0001) %MON seaice_time_sec              =   7.8712200000000E+07
(PID.TID 0000.0001) %MON seaice_uice_max              =   1.1776607057684E+00
(PID.TID 0000.0001) %MON seaice_uice_min              =  -1.4469070227260E+00
(PID.TID 0000.0001) %MON seaice_uice_mean             =   9.4162365700591E-03
(PID.TID 0000.0001) %MON seaice_uice_sd               =   1.5017015333508E-01
(PID.TID 0000.0001) %MON seaice_uice_del2             =   3.8543716537679E-04
(PID.TID 0000.0001) %MON seaice_vice_max              =   1.0064353685278E+00
(PID.TID 0000.0001) %MON seaice_vice_min              =  -1.4987131949289E+00
(PID.TID 0000.0001) %MON seaice_vice_mean             =  -1.6904420751615E-02
(PID.TID 0000.0001) %MON seaice_vice_sd               =   1.6226810750160E-01
(PID.TID 0000.0001) %MON seaice_vice_del2             =   3.7665811523367E-04
(PID.TID 0000.0001) %MON seaice_area_max              =   1.0011512813462E+00
(PID.TID 0000.0001) %MON seaice_area_min              =   0.0000000000000E+00
(PID.TID 0000.0001) %MON seaice_area_mean             =   5.7698075989113E-02
(PID.TID 0000.0001) %MON seaice_area_sd               =   2.2074690204958E-01
(PID.TID 0000.0001) %MON seaice_area_del2             =   2.8239385832315E-04
(PID.TID 0000.0001) %MON seaice_heff_max              =   9.9471505295435E+00
(PID.TID 0000.0001) %MON seaice_heff_min              =   0.0000000000000E+00
(PID.TID 0000.0001) %MON seaice_heff_mean             =   1.4923198657837E-01
(PID.TID 0000.0001) %MON seaice_heff_sd               =   7.1908450038180E-01
(PID.TID 0000.0001) %MON seaice_heff_del2             =   1.3115451163064E-03
(PID.TID 0000.0001) %MON seaice_hsnow_max             =   3.2855645751855E+00
(PID.TID 0000.0001) %MON seaice_hsnow_min             =   0.0000000000000E+00
(PID.TID 0000.0001) %MON seaice_hsnow_mean            =   1.2574499496569E-02
(PID.TID 0000.0001) %MON seaice_hsnow_sd              =   6.7239636091954E-02
(PID.TID 0000.0001) %MON seaice_hsnow_del2            =   3.4765420482169E-04
(PID.TID 0000.0001) // =======================================================
(PID.TID 0000.0001) // End MONITOR SEAICE statistics
(PID.TID 0000.0001) // =======================================================
(PID.TID 0000.0001) // =======================================================
(PID.TID 0000.0001) // Begin MONITOR dynamic field statistics
(PID.TID 0000.0001) // =======================================================
(PID.TID 0000.0001) %MON time_tsnumber                =                174917
(PID.TID 0000.0001) %MON time_secondsf                =   7.8712650000000E+07
(PID.TID 0000.0001) %MON dynstat_eta_max              =   2.6103955882402E+00
(PID.TID 0000.0001) %MON dynstat_eta_min              =  -1.0160178395146E+01
(PID.TID 0000.0001) %MON dynstat_eta_mean             =   8.7092960892909E-02
(PID.TID 0000.0001) %MON dynstat_eta_sd               =   1.0249774191372E+00
(PID.TID 0000.0001) %MON dynstat_eta_del2             =   2.0124138332285E-03
(PID.TID 0000.0001) %MON dynstat_uvel_max             =   1.3735739520693E+00
(PID.TID 0000.0001) %MON dynstat_uvel_min             =  -2.3219835066170E+00
(PID.TID 0000.0001) %MON dynstat_uvel_mean            =   6.5519607647089E-03
(PID.TID 0000.0001) %MON dynstat_uvel_sd              =   5.0496732558514E-02
(PID.TID 0000.0001) %MON dynstat_uvel_del2            =   4.6230290598896E-05
(PID.TID 0000.0001) %MON dynstat_vvel_max             =   1.9878033652655E+00
(PID.TID 0000.0001) %MON dynstat_vvel_min             =  -1.7424481115053E+00
(PID.TID 0000.0001) %MON dynstat_vvel_mean            =   2.1605052837556E-03
(PID.TID 0000.0001) %MON dynstat_vvel_sd              =   5.2052290446250E-02
(PID.TID 0000.0001) %MON dynstat_vvel_del2            =   4.5041299129933E-05
(PID.TID 0000.0001) %MON dynstat_wvel_max             =   1.1856173277446E-02
(PID.TID 0000.0001) %MON dynstat_wvel_min             =  -1.0476714726465E-02
(PID.TID 0000.0001) %MON dynstat_wvel_mean            =  -2.9534422064993E-07
(PID.TID 0000.0001) %MON dynstat_wvel_sd              =   1.9902632900542E-04
(PID.TID 0000.0001) %MON dynstat_wvel_del2            =   4.0699029095954E-07
(PID.TID 0000.0001) %MON dynstat_theta_max            =   3.2394131024216E+01
(PID.TID 0000.0001) %MON dynstat_theta_min            =  -2.0376992258922E+00
(PID.TID 0000.0001) %MON dynstat_theta_mean           =   3.5917528936615E+00
(PID.TID 0000.0001) %MON dynstat_theta_sd             =   4.4413072800005E+00
(PID.TID 0000.0001) %MON dynstat_theta_del2           =   1.3019896378113E-04
(PID.TID 0000.0001) %MON dynstat_salt_max             =   4.0655989280131E+01
(PID.TID 0000.0001) %MON dynstat_salt_min             =   1.5913881321447E+01
(PID.TID 0000.0001) %MON dynstat_salt_mean            =   3.4724785414549E+01
(PID.TID 0000.0001) %MON dynstat_salt_sd              =   3.7977647051274E-01
(PID.TID 0000.0001) %MON dynstat_salt_del2            =   6.2109514268495E-05
(PID.TID 0000.0001) %MON dynstat_sst_max              =   3.2394131024216E+01
(PID.TID 0000.0001) %MON dynstat_sst_min              =  -2.0376992258922E+00
(PID.TID 0000.0001) %MON dynstat_sst_mean             =   1.8173354348945E+01
(PID.TID 0000.0001) %MON dynstat_sst_sd               =   1.0209951806956E+01
(PID.TID 0000.0001) %MON dynstat_sst_del2             =   1.0914928884193E-03
(PID.TID 0000.0001) %MON dynstat_sss_max              =   3.9463677771319E+01
(PID.TID 0000.0001) %MON dynstat_sss_min              =   1.5913881321447E+01
(PID.TID 0000.0001) %MON dynstat_sss_mean             =   3.4640731099794E+01
(PID.TID 0000.0001) %MON dynstat_sss_sd               =   1.3045219704984E+00
(PID.TID 0000.0001) %MON dynstat_sss_del2             =   1.4657181207666E-03
(PID.TID 0000.0001) %MON forcing_qnet_max             =   9.9680975341797E+02
(PID.TID 0000.0001) %MON forcing_qnet_min             =  -2.3886191406250E+03
(PID.TID 0000.0001) %MON forcing_qnet_mean            =  -6.3836206079033E+00
(PID.TID 0000.0001) %MON forcing_qnet_sd              =   2.0329294060224E+02
(PID.TID 0000.0001) %MON forcing_qnet_del2            =   3.8792821564971E-01
(PID.TID 0000.0001) %MON forcing_qsw_max              =   0.0000000000000E+00
(PID.TID 0000.0001) %MON forcing_qsw_min              =  -1.1104760592410E+02
(PID.TID 0000.0001) %MON forcing_qsw_mean             =  -1.9958343044788E+01
(PID.TID 0000.0001) %MON forcing_qsw_sd               =   2.9655998832362E+01
(PID.TID 0000.0001) %MON forcing_qsw_del2             =   2.2108991882688E-02
(PID.TID 0000.0001) %MON forcing_empmr_max            =   2.2342892363667E-02
(PID.TID 0000.0001) %MON forcing_empmr_min            =  -4.2105633765459E-02
(PID.TID 0000.0001) %MON forcing_empmr_mean           =  -2.7096262647884E-06
(PID.TID 0000.0001) %MON forcing_empmr_sd             =   3.5220134670552E-04
(PID.TID 0000.0001) %MON forcing_empmr_del2           =   4.2467472811450E-06
(PID.TID 0000.0001) %MON forcing_fu_max               =   8.7370741367340E-01
(PID.TID 0000.0001) %MON forcing_fu_min               =  -1.2846274652435E+00
(PID.TID 0000.0001) %MON forcing_fu_mean              =   1.0775306333103E-02
(PID.TID 0000.0001) %MON forcing_fu_sd                =   1.2574992815213E-01
(PID.TID 0000.0001) %MON forcing_fu_del2              =   1.6527496050023E-04
(PID.TID 0000.0001) %MON forcing_fv_max               =   1.1638924479485E+00
(PID.TID 0000.0001) %MON forcing_fv_min               =  -1.2130352854729E+00
(PID.TID 0000.0001) %MON forcing_fv_mean              =   7.9661962019188E-04
(PID.TID 0000.0001) %MON forcing_fv_sd                =   1.2275663537103E-01
(PID.TID 0000.0001) %MON forcing_fv_del2              =   1.6299281064139E-04
(PID.TID 0000.0001) %MON trAdv_CFL_u_max              =   2.1771389868756E-02
(PID.TID 0000.0001) %MON trAdv_CFL_v_max              =   2.0235094652143E-02
(PID.TID 0000.0001) %MON trAdv_CFL_w_max              =   1.0221462670557E-01
(PID.TID 0000.0001) %MON advcfl_uvel_max              =   2.2062612535917E-02
(PID.TID 0000.0001) %MON advcfl_vvel_max              =   2.0169889463877E-02
(PID.TID 0000.0001) %MON advcfl_wvel_max              =   9.6406359744664E-02
(PID.TID 0000.0001) %MON advcfl_W_hf_max              =   1.0221462670557E-01
(PID.TID 0000.0001) %MON pe_b_mean                    =   2.6649480619997E-03
(PID.TID 0000.0001) %MON ke_max                       =   2.1865342561179E+00
(PID.TID 0000.0001) %MON ke_mean                      =   2.5589647148708E-03
(PID.TID 0000.0001) %MON ke_vol                       =   1.3350064351420E+18
(PID.TID 0000.0001) %MON vort_r_min                   =  -7.0590620717802E-05
(PID.TID 0000.0001) %MON vort_r_max                   =   7.8537094088543E-05
(PID.TID 0000.0001) %MON vort_a_mean                  =  -1.9725077211481E-05
(PID.TID 0000.0001) %MON vort_a_sd                    =   7.4543203467887E-05
(PID.TID 0000.0001) %MON vort_p_mean                  =  -2.1669082204277E-05
(PID.TID 0000.0001) %MON vort_p_sd                    =   9.3620477406767E-05
(PID.TID 0000.0001) %MON surfExpan_theta_mean         =   4.9106575624064E-06
(PID.TID 0000.0001) %MON surfExpan_salt_mean          =  -3.7764624800622E-05
(PID.TID 0000.0001) // =======================================================
(PID.TID 0000.0001) // End MONITOR dynamic field statistics
(PID.TID 0000.0001) // =======================================================
(PID.TID 0000.0001) // =======================================================
(PID.TID 0000.0001) // Begin MONITOR SEAICE statistics
(PID.TID 0000.0001) // =======================================================
(PID.TID 0000.0001) %MON seaice_tsnumber              =                174917
(PID.TID 0000.0001) %MON seaice_time_sec              =   7.8712650000000E+07
(PID.TID 0000.0001) %MON seaice_uice_max              =   1.1779331366387E+00
(PID.TID 0000.0001) %MON seaice_uice_min              =  -1.4361669155995E+00
(PID.TID 0000.0001) %MON seaice_uice_mean             =   9.3647812805685E-03
(PID.TID 0000.0001) %MON seaice_uice_sd               =   1.5016746416630E-01
(PID.TID 0000.0001) %MON seaice_uice_del2             =   3.8598439262155E-04
(PID.TID 0000.0001) %MON seaice_vice_max              =   1.0092712460749E+00
(PID.TID 0000.0001) %MON seaice_vice_min              =  -1.5006872833710E+00
(PID.TID 0000.0001) %MON seaice_vice_mean             =  -1.7102922473628E-02
(PID.TID 0000.0001) %MON seaice_vice_sd               =   1.6237832548024E-01
(PID.TID 0000.0001) %MON seaice_vice_del2             =   3.7741602594533E-04
(PID.TID 0000.0001) %MON seaice_area_max              =   1.0011505431878E+00
(PID.TID 0000.0001) %MON seaice_area_min              =   0.0000000000000E+00
(PID.TID 0000.0001) %MON seaice_area_mean             =   5.7701335028880E-02
(PID.TID 0000.0001) %MON seaice_area_sd               =   2.2074685145547E-01
(PID.TID 0000.0001) %MON seaice_area_del2             =   2.8235362705767E-04
(PID.TID 0000.0001) %MON seaice_heff_max              =   9.9471600861343E+00
(PID.TID 0000.0001) %MON seaice_heff_min              =   0.0000000000000E+00
(PID.TID 0000.0001) %MON seaice_heff_mean             =   1.4922863671687E-01
(PID.TID 0000.0001) %MON seaice_heff_sd               =   7.1907213928344E-01
(PID.TID 0000.0001) %MON seaice_heff_del2             =   1.3109668589910E-03
(PID.TID 0000.0001) %MON seaice_hsnow_max             =   3.2855680354394E+00
(PID.TID 0000.0001) %MON seaice_hsnow_min             =   0.0000000000000E+00
(PID.TID 0000.0001) %MON seaice_hsnow_mean            =   1.2573704428196E-02
(PID.TID 0000.0001) %MON seaice_hsnow_sd              =   6.7228628192831E-02
(PID.TID 0000.0001) %MON seaice_hsnow_del2            =   3.4736777234949E-04
(PID.TID 0000.0001) // =======================================================
(PID.TID 0000.0001) // End MONITOR SEAICE statistics
(PID.TID 0000.0001) // =======================================================
(PID.TID 0000.0001) // =======================================================
(PID.TID 0000.0001) // Begin MONITOR dynamic field statistics
(PID.TID 0000.0001) // =======================================================
(PID.TID 0000.0001) %MON time_tsnumber                =                174918
(PID.TID 0000.0001) %MON time_secondsf                =   7.8713100000000E+07
(PID.TID 0000.0001) %MON dynstat_eta_max              =   2.6335364688202E+00
(PID.TID 0000.0001) %MON dynstat_eta_min              =  -1.0183552348405E+01
(PID.TID 0000.0001) %MON dynstat_eta_mean             =   8.6542510794972E-02
(PID.TID 0000.0001) %MON dynstat_eta_sd               =   1.0273028663797E+00
(PID.TID 0000.0001) %MON dynstat_eta_del2             =   2.0123982525264E-03
(PID.TID 0000.0001) %MON dynstat_uvel_max             =   1.3713080559061E+00
(PID.TID 0000.0001) %MON dynstat_uvel_min             =  -2.3243277500578E+00
(PID.TID 0000.0001) %MON dynstat_uvel_mean            =   6.5448827397817E-03
(PID.TID 0000.0001) %MON dynstat_uvel_sd              =   5.0736562882477E-02
(PID.TID 0000.0001) %MON dynstat_uvel_del2            =   4.6358158596277E-05
(PID.TID 0000.0001) %MON dynstat_vvel_max             =   1.9824042432391E+00
(PID.TID 0000.0001) %MON dynstat_vvel_min             =  -1.7406318866770E+00
(PID.TID 0000.0001) %MON dynstat_vvel_mean            =   2.1150868678586E-03
(PID.TID 0000.0001) %MON dynstat_vvel_sd              =   5.2342947698808E-02
(PID.TID 0000.0001) %MON dynstat_vvel_del2            =   4.5169728567547E-05
(PID.TID 0000.0001) %MON dynstat_wvel_max             =   1.1942762907573E-02
(PID.TID 0000.0001) %MON dynstat_wvel_min             =  -1.0508896848468E-02
(PID.TID 0000.0001) %MON dynstat_wvel_mean            =  -3.3001479089346E-07
(PID.TID 0000.0001) %MON dynstat_wvel_sd              =   1.9974218595065E-04
(PID.TID 0000.0001) %MON dynstat_wvel_del2            =   4.0804953654857E-07
(PID.TID 0000.0001) %MON dynstat_theta_max            =   3.2391580722521E+01
(PID.TID 0000.0001) %MON dynstat_theta_min            =  -2.0375389442391E+00
(PID.TID 0000.0001) %MON dynstat_theta_mean           =   3.5917526363224E+00
(PID.TID 0000.0001) %MON dynstat_theta_sd             =   4.4413084293578E+00
(PID.TID 0000.0001) %MON dynstat_theta_del2           =   1.3025951459343E-04
(PID.TID 0000.0001) %MON dynstat_salt_max             =   4.0655989279924E+01
(PID.TID 0000.0001) %MON dynstat_salt_min             =   1.5913481857435E+01
(PID.TID 0000.0001) %MON dynstat_salt_mean            =   3.4724785063943E+01
(PID.TID 0000.0001) %MON dynstat_salt_sd              =   3.7977763192229E-01
(PID.TID 0000.0001) %MON dynstat_salt_del2            =   6.2086522980870E-05
(PID.TID 0000.0001) %MON dynstat_sst_max              =   3.2391580722521E+01
(PID.TID 0000.0001) %MON dynstat_sst_min              =  -2.0375389442391E+00
(PID.TID 0000.0001) %MON dynstat_sst_mean             =   1.8173515927319E+01
(PID.TID 0000.0001) %MON dynstat_sst_sd               =   1.0210230713147E+01
(PID.TID 0000.0001) %MON dynstat_sst_del2             =   1.0913573493109E-03
(PID.TID 0000.0001) %MON dynstat_sss_max              =   3.9463707653349E+01
(PID.TID 0000.0001) %MON dynstat_sss_min              =   1.5913481857435E+01
(PID.TID 0000.0001) %MON dynstat_sss_mean             =   3.4640714018928E+01
(PID.TID 0000.0001) %MON dynstat_sss_sd               =   1.3045604652457E+00
(PID.TID 0000.0001) %MON dynstat_sss_del2             =   1.4659282480442E-03
(PID.TID 0000.0001) %MON forcing_qnet_max             =   2.1746215820312E+03
(PID.TID 0000.0001) %MON forcing_qnet_min             =  -5.9638120117188E+03
(PID.TID 0000.0001) %MON forcing_qnet_mean            =  -7.4478119904577E+00
(PID.TID 0000.0001) %MON forcing_qnet_sd              =   2.0623103321323E+02
(PID.TID 0000.0001) %MON forcing_qnet_del2            =   5.0664919238225E-01
(PID.TID 0000.0001) %MON forcing_qsw_max              =   0.0000000000000E+00
(PID.TID 0000.0001) %MON forcing_qsw_min              =  -1.1133488543671E+02
(PID.TID 0000.0001) %MON forcing_qsw_mean             =  -2.0056210444693E+01
(PID.TID 0000.0001) %MON forcing_qsw_sd               =   2.9725050531491E+01
(PID.TID 0000.0001) %MON forcing_qsw_del2             =   2.2091944325270E-02
(PID.TID 0000.0001) %MON forcing_empmr_max            =   2.4470215663314E-02
(PID.TID 0000.0001) %MON forcing_empmr_min            =  -4.0662124752998E-02
(PID.TID 0000.0001) %MON forcing_empmr_mean           =  -2.6884801081654E-06
(PID.TID 0000.0001) %MON forcing_empmr_sd             =   3.5485932748902E-04
(PID.TID 0000.0001) %MON forcing_empmr_del2           =   4.2647762743611E-06
(PID.TID 0000.0001) %MON forcing_fu_max               =   8.7323647737503E-01
(PID.TID 0000.0001) %MON forcing_fu_min               =  -1.2827335924741E+00
(PID.TID 0000.0001) %MON forcing_fu_mean              =   1.0779262622212E-02
(PID.TID 0000.0001) %MON forcing_fu_sd                =   1.2569897601622E-01
(PID.TID 0000.0001) %MON forcing_fu_del2              =   1.6512183314665E-04
(PID.TID 0000.0001) %MON forcing_fv_max               =   1.1620069742203E+00
(PID.TID 0000.0001) %MON forcing_fv_min               =  -1.2175592780113E+00
(PID.TID 0000.0001) %MON forcing_fv_mean              =   8.1539036240652E-04
(PID.TID 0000.0001) %MON forcing_fv_sd                =   1.2283095125874E-01
(PID.TID 0000.0001) %MON forcing_fv_del2              =   1.6300625833825E-04
(PID.TID 0000.0001) %MON trAdv_CFL_u_max              =   2.1730762279212E-02
(PID.TID 0000.0001) %MON trAdv_CFL_v_max              =   2.0180133609641E-02
(PID.TID 0000.0001) %MON trAdv_CFL_w_max              =   1.0195265556664E-01
(PID.TID 0000.0001) %MON advcfl_uvel_max              =   2.2021441495769E-02
(PID.TID 0000.0001) %MON advcfl_vvel_max              =   2.0115105526805E-02
(PID.TID 0000.0001) %MON advcfl_wvel_max              =   9.6141336816044E-02
(PID.TID 0000.0001) %MON advcfl_W_hf_max              =   1.0195265556664E-01
(PID.TID 0000.0001) %MON pe_b_mean                    =   2.6548796319538E-03
(PID.TID 0000.0001) %MON ke_max                       =   2.1855997970090E+00
(PID.TID 0000.0001) %MON ke_mean                      =   2.5851648797510E-03
(PID.TID 0000.0001) %MON ke_vol                       =   1.3350064351420E+18
(PID.TID 0000.0001) %MON vort_r_min                   =  -7.0618889759730E-05
(PID.TID 0000.0001) %MON vort_r_max                   =   7.8388799159795E-05
(PID.TID 0000.0001) %MON vort_a_mean                  =  -1.9725077204684E-05
(PID.TID 0000.0001) %MON vort_a_sd                    =   7.4543251200411E-05
(PID.TID 0000.0001) %MON vort_p_mean                  =  -2.1669082196810E-05
(PID.TID 0000.0001) %MON vort_p_sd                    =   9.3620521828472E-05
(PID.TID 0000.0001) %MON surfExpan_theta_mean         =   3.4953268292089E-06
(PID.TID 0000.0001) %MON surfExpan_salt_mean          =  -3.9801282819044E-05
(PID.TID 0000.0001) // =======================================================
(PID.TID 0000.0001) // End MONITOR dynamic field statistics
(PID.TID 0000.0001) // =======================================================
(PID.TID 0000.0001) // =======================================================
(PID.TID 0000.0001) // Begin MONITOR SEAICE statistics
(PID.TID 0000.0001) // =======================================================
(PID.TID 0000.0001) %MON seaice_tsnumber              =                174918
(PID.TID 0000.0001) %MON seaice_time_sec              =   7.8713100000000E+07
(PID.TID 0000.0001) %MON seaice_uice_max              =   1.1782079961355E+00
(PID.TID 0000.0001) %MON seaice_uice_min              =  -1.4251138050206E+00
(PID.TID 0000.0001) %MON seaice_uice_mean             =   9.3107293298478E-03
(PID.TID 0000.0001) %MON seaice_uice_sd               =   1.5015497534872E-01
(PID.TID 0000.0001) %MON seaice_uice_del2             =   3.8642161061905E-04
(PID.TID 0000.0001) %MON seaice_vice_max              =   1.0122086173326E+00
(PID.TID 0000.0001) %MON seaice_vice_min              =  -1.5026368176506E+00
(PID.TID 0000.0001) %MON seaice_vice_mean             =  -1.7313658802744E-02
(PID.TID 0000.0001) %MON seaice_vice_sd               =   1.6249817928362E-01
(PID.TID 0000.0001) %MON seaice_vice_del2             =   3.7807489876434E-04
(PID.TID 0000.0001) %MON seaice_area_max              =   1.0011445849564E+00
(PID.TID 0000.0001) %MON seaice_area_min              =   0.0000000000000E+00
(PID.TID 0000.0001) %MON seaice_area_mean             =   5.7704635912565E-02
(PID.TID 0000.0001) %MON seaice_area_sd               =   2.2074688026035E-01
(PID.TID 0000.0001) %MON seaice_area_del2             =   2.8231887449072E-04
(PID.TID 0000.0001) %MON seaice_heff_max              =   9.9471591527350E+00
(PID.TID 0000.0001) %MON seaice_heff_min              =   0.0000000000000E+00
(PID.TID 0000.0001) %MON seaice_heff_mean             =   1.4922529342287E-01
(PID.TID 0000.0001) %MON seaice_heff_sd               =   7.1905970361101E-01
(PID.TID 0000.0001) %MON seaice_heff_del2             =   1.3103848744208E-03
(PID.TID 0000.0001) %MON seaice_hsnow_max             =   3.2855675495536E+00
(PID.TID 0000.0001) %MON seaice_hsnow_min             =   0.0000000000000E+00
(PID.TID 0000.0001) %MON seaice_hsnow_mean            =   1.2572906478401E-02
(PID.TID 0000.0001) %MON seaice_hsnow_sd              =   6.7217597977504E-02
(PID.TID 0000.0001) %MON seaice_hsnow_del2            =   3.4708177560910E-04
(PID.TID 0000.0001) // =======================================================
(PID.TID 0000.0001) // End MONITOR SEAICE statistics
(PID.TID 0000.0001) // =======================================================
(PID.TID 0000.0001) // =======================================================
(PID.TID 0000.0001) // Begin MONITOR dynamic field statistics
(PID.TID 0000.0001) // =======================================================
(PID.TID 0000.0001) %MON time_tsnumber                =                174919
(PID.TID 0000.0001) %MON time_secondsf                =   7.8713550000000E+07
(PID.TID 0000.0001) %MON dynstat_eta_max              =   2.6560160484695E+00
(PID.TID 0000.0001) %MON dynstat_eta_min              =  -1.0207085359647E+01
(PID.TID 0000.0001) %MON dynstat_eta_mean             =   8.5965968527196E-02
(PID.TID 0000.0001) %MON dynstat_eta_sd               =   1.0296264474390E+00
(PID.TID 0000.0001) %MON dynstat_eta_del2             =   2.0123841170958E-03
(PID.TID 0000.0001) %MON dynstat_uvel_max             =   1.3689867505005E+00
(PID.TID 0000.0001) %MON dynstat_uvel_min             =  -2.3265166455480E+00
(PID.TID 0000.0001) %MON dynstat_uvel_mean            =   6.5401885107396E-03
(PID.TID 0000.0001) %MON dynstat_uvel_sd              =   5.0977051892998E-02
(PID.TID 0000.0001) %MON dynstat_uvel_del2            =   4.6486318894686E-05
(PID.TID 0000.0001) %MON dynstat_vvel_max             =   1.9767688447115E+00
(PID.TID 0000.0001) %MON dynstat_vvel_min             =  -1.7387832874382E+00
(PID.TID 0000.0001) %MON dynstat_vvel_mean            =   2.0706506086211E-03
(PID.TID 0000.0001) %MON dynstat_vvel_sd              =   5.2635074096875E-02
(PID.TID 0000.0001) %MON dynstat_vvel_del2            =   4.5298310779150E-05
(PID.TID 0000.0001) %MON dynstat_wvel_max             =   1.2028507233538E-02
(PID.TID 0000.0001) %MON dynstat_wvel_min             =  -1.0541484816167E-02
(PID.TID 0000.0001) %MON dynstat_wvel_mean            =  -3.6535921753548E-07
(PID.TID 0000.0001) %MON dynstat_wvel_sd              =   2.0045560473376E-04
(PID.TID 0000.0001) %MON dynstat_wvel_del2            =   4.0910087834181E-07
(PID.TID 0000.0001) %MON dynstat_theta_max            =   3.2389101304345E+01
(PID.TID 0000.0001) %MON dynstat_theta_min            =  -2.0373802280643E+00
(PID.TID 0000.0001) %MON dynstat_theta_mean           =   3.5917525668829E+00
(PID.TID 0000.0001) %MON dynstat_theta_sd             =   4.4413100197451E+00
(PID.TID 0000.0001) %MON dynstat_theta_del2           =   1.3032051389070E-04
(PID.TID 0000.0001) %MON dynstat_salt_max             =   4.0655989279717E+01
(PID.TID 0000.0001) %MON dynstat_salt_min             =   1.5913086280868E+01
(PID.TID 0000.0001) %MON dynstat_salt_mean            =   3.4724784721091E+01
(PID.TID 0000.0001) %MON dynstat_salt_sd              =   3.7977880609877E-01
(PID.TID 0000.0001) %MON dynstat_salt_del2            =   6.2064476296537E-05
(PID.TID 0000.0001) %MON dynstat_sst_max              =   3.2389101304345E+01
(PID.TID 0000.0001) %MON dynstat_sst_min              =  -2.0373802280643E+00
(PID.TID 0000.0001) %MON dynstat_sst_mean             =   1.8173675479239E+01
(PID.TID 0000.0001) %MON dynstat_sst_sd               =   1.0210509653797E+01
(PID.TID 0000.0001) %MON dynstat_sst_del2             =   1.0912571742017E-03
(PID.TID 0000.0001) %MON dynstat_sss_max              =   3.9463737678593E+01
(PID.TID 0000.0001) %MON dynstat_sss_min              =   1.5913086280868E+01
(PID.TID 0000.0001) %MON dynstat_sss_mean             =   3.4640697571443E+01
(PID.TID 0000.0001) %MON dynstat_sss_sd               =   1.3045991558350E+00
(PID.TID 0000.0001) %MON dynstat_sss_del2             =   1.4661785141944E-03
(PID.TID 0000.0001) %MON forcing_qnet_max             =   1.0883094482422E+03
(PID.TID 0000.0001) %MON forcing_qnet_min             =  -3.0774736328125E+03
(PID.TID 0000.0001) %MON forcing_qnet_mean            =  -7.9367554851269E+00
(PID.TID 0000.0001) %MON forcing_qnet_sd              =   2.0462726527769E+02
(PID.TID 0000.0001) %MON forcing_qnet_del2            =   4.4958981913626E-01
(PID.TID 0000.0001) %MON forcing_qsw_max              =   0.0000000000000E+00
(PID.TID 0000.0001) %MON forcing_qsw_min              =  -1.1151717249048E+02
(PID.TID 0000.0001) %MON forcing_qsw_mean             =  -2.0141829760898E+01
(PID.TID 0000.0001) %MON forcing_qsw_sd               =   2.9789694738660E+01
(PID.TID 0000.0001) %MON forcing_qsw_del2             =   2.2066397193716E-02
(PID.TID 0000.0001) %MON forcing_empmr_max            =   2.5906033813953E-02
(PID.TID 0000.0001) %MON forcing_empmr_min            =  -4.0842927992344E-02
(PID.TID 0000.0001) %MON forcing_empmr_mean           =  -2.3965303872550E-06
(PID.TID 0000.0001) %MON forcing_empmr_sd             =   3.6185651033066E-04
(PID.TID 0000.0001) %MON forcing_empmr_del2           =   4.3025601202718E-06
(PID.TID 0000.0001) %MON forcing_fu_max               =   8.7836557626724E-01
(PID.TID 0000.0001) %MON forcing_fu_min               =  -1.2813634925994E+00
(PID.TID 0000.0001) %MON forcing_fu_mean              =   1.0776200813766E-02
(PID.TID 0000.0001) %MON forcing_fu_sd                =   1.2565805689678E-01
(PID.TID 0000.0001) %MON forcing_fu_del2              =   1.6499422899564E-04
(PID.TID 0000.0001) %MON forcing_fv_max               =   1.1565100550652E+00
(PID.TID 0000.0001) %MON forcing_fv_min               =  -1.2221009135246E+00
(PID.TID 0000.0001) %MON forcing_fv_mean              =   8.2539769851530E-04
(PID.TID 0000.0001) %MON forcing_fv_sd                =   1.2286922163479E-01
(PID.TID 0000.0001) %MON forcing_fv_del2              =   1.6307255649486E-04
(PID.TID 0000.0001) %MON trAdv_CFL_u_max              =   2.1689518467435E-02
(PID.TID 0000.0001) %MON trAdv_CFL_v_max              =   2.0122767360745E-02
(PID.TID 0000.0001) %MON trAdv_CFL_w_max              =   1.0169690487475E-01
(PID.TID 0000.0001) %MON advcfl_uvel_max              =   2.1979645990557E-02
(PID.TID 0000.0001) %MON advcfl_vvel_max              =   2.0057924133830E-02
(PID.TID 0000.0001) %MON advcfl_wvel_max              =   9.5883090665010E-02
(PID.TID 0000.0001) %MON advcfl_W_hf_max              =   1.0169690487475E-01
(PID.TID 0000.0001) %MON pe_b_mean                    =   2.6441028611728E-03
(PID.TID 0000.0001) %MON ke_max                       =   2.1844414006206E+00
(PID.TID 0000.0001) %MON ke_mean                      =   2.6116279801024E-03
(PID.TID 0000.0001) %MON ke_vol                       =   1.3350064351420E+18
(PID.TID 0000.0001) %MON vort_r_min                   =  -7.0700050391388E-05
(PID.TID 0000.0001) %MON vort_r_max                   =   7.8238371690863E-05
(PID.TID 0000.0001) %MON vort_a_mean                  =  -1.9725077197991E-05
(PID.TID 0000.0001) %MON vort_a_sd                    =   7.4543299864415E-05
(PID.TID 0000.0001) %MON vort_p_mean                  =  -2.1669082189457E-05
(PID.TID 0000.0001) %MON vort_p_sd                    =   9.3620566519255E-05
(PID.TID 0000.0001) %MON surfExpan_theta_mean         =   2.0165537726907E-06
(PID.TID 0000.0001) %MON surfExpan_salt_mean          =  -4.1859776474921E-05
(PID.TID 0000.0001) // =======================================================
(PID.TID 0000.0001) // End MONITOR dynamic field statistics
(PID.TID 0000.0001) // =======================================================
(PID.TID 0000.0001) // =======================================================
(PID.TID 0000.0001) // Begin MONITOR SEAICE statistics
(PID.TID 0000.0001) // =======================================================
(PID.TID 0000.0001) %MON seaice_tsnumber              =                174919
(PID.TID 0000.0001) %MON seaice_time_sec              =   7.8713550000000E+07
(PID.TID 0000.0001) %MON seaice_uice_max              =   1.1784853062387E+00
(PID.TID 0000.0001) %MON seaice_uice_min              =  -1.4137978385073E+00
(PID.TID 0000.0001) %MON seaice_uice_mean             =   9.2607529789156E-03
(PID.TID 0000.0001) %MON seaice_uice_sd               =   1.5014307413906E-01
(PID.TID 0000.0001) %MON seaice_uice_del2             =   3.8690591625184E-04
(PID.TID 0000.0001) %MON seaice_vice_max              =   1.0152385330153E+00
(PID.TID 0000.0001) %MON seaice_vice_min              =  -1.5045642063007E+00
(PID.TID 0000.0001) %MON seaice_vice_mean             =  -1.7523552014595E-02
(PID.TID 0000.0001) %MON seaice_vice_sd               =   1.6262610190216E-01
(PID.TID 0000.0001) %MON seaice_vice_del2             =   3.7872757674626E-04
(PID.TID 0000.0001) %MON seaice_area_max              =   1.0011391693484E+00
(PID.TID 0000.0001) %MON seaice_area_min              =   0.0000000000000E+00
(PID.TID 0000.0001) %MON seaice_area_mean             =   5.7707994444959E-02
(PID.TID 0000.0001) %MON seaice_area_sd               =   2.2074705743047E-01
(PID.TID 0000.0001) %MON seaice_area_del2             =   2.8228941022161E-04
(PID.TID 0000.0001) %MON seaice_heff_max              =   9.9471687097245E+00
(PID.TID 0000.0001) %MON seaice_heff_min              =   0.0000000000000E+00
(PID.TID 0000.0001) %MON seaice_heff_mean             =   1.4922196129187E-01
(PID.TID 0000.0001) %MON seaice_heff_sd               =   7.1904721084516E-01
(PID.TID 0000.0001) %MON seaice_heff_del2             =   1.3097998846168E-03
(PID.TID 0000.0001) %MON seaice_hsnow_max             =   3.2855705215024E+00
(PID.TID 0000.0001) %MON seaice_hsnow_min             =   0.0000000000000E+00
(PID.TID 0000.0001) %MON seaice_hsnow_mean            =   1.2572107521347E-02
(PID.TID 0000.0001) %MON seaice_hsnow_sd              =   6.7206563259193E-02
(PID.TID 0000.0001) %MON seaice_hsnow_del2            =   3.4679628461100E-04
(PID.TID 0000.0001) // =======================================================
(PID.TID 0000.0001) // End MONITOR SEAICE statistics
(PID.TID 0000.0001) // =======================================================
(PID.TID 0000.0001) // =======================================================
(PID.TID 0000.0001) // Begin MONITOR dynamic field statistics
(PID.TID 0000.0001) // =======================================================
(PID.TID 0000.0001) %MON time_tsnumber                =                174920
(PID.TID 0000.0001) %MON time_secondsf                =   7.8714000000000E+07
(PID.TID 0000.0001) %MON dynstat_eta_max              =   2.6777635951758E+00
(PID.TID 0000.0001) %MON dynstat_eta_min              =  -1.0230649823642E+01
(PID.TID 0000.0001) %MON dynstat_eta_mean             =   8.5363665362135E-02
(PID.TID 0000.0001) %MON dynstat_eta_sd               =   1.0319465828664E+00
(PID.TID 0000.0001) %MON dynstat_eta_del2             =   2.0123692912863E-03
(PID.TID 0000.0001) %MON dynstat_uvel_max             =   1.3665859046087E+00
(PID.TID 0000.0001) %MON dynstat_uvel_min             =  -2.3285522661158E+00
(PID.TID 0000.0001) %MON dynstat_uvel_mean            =   6.5378333618422E-03
(PID.TID 0000.0001) %MON dynstat_uvel_sd              =   5.1218239537292E-02
(PID.TID 0000.0001) %MON dynstat_uvel_del2            =   4.6614688543308E-05
(PID.TID 0000.0001) %MON dynstat_vvel_max             =   1.9709436604102E+00
(PID.TID 0000.0001) %MON dynstat_vvel_min             =  -1.7368843802487E+00
(PID.TID 0000.0001) %MON dynstat_vvel_mean            =   2.0272892060633E-03
(PID.TID 0000.0001) %MON dynstat_vvel_sd              =   5.2928640686975E-02
(PID.TID 0000.0001) %MON dynstat_vvel_del2            =   4.5426992023462E-05
(PID.TID 0000.0001) %MON dynstat_wvel_max             =   1.2113383246613E-02
(PID.TID 0000.0001) %MON dynstat_wvel_min             =  -1.0574505229035E-02
(PID.TID 0000.0001) %MON dynstat_wvel_mean            =  -4.0079252126996E-07
(PID.TID 0000.0001) %MON dynstat_wvel_sd              =   2.0116635693361E-04
(PID.TID 0000.0001) %MON dynstat_wvel_del2            =   4.1014439220342E-07
(PID.TID 0000.0001) %MON dynstat_theta_max            =   3.2386706590714E+01
(PID.TID 0000.0001) %MON dynstat_theta_min            =  -2.0372229990009E+00
(PID.TID 0000.0001) %MON dynstat_theta_mean           =   3.5917526898928E+00
(PID.TID 0000.0001) %MON dynstat_theta_sd             =   4.4413120517693E+00
(PID.TID 0000.0001) %MON dynstat_theta_del2           =   1.3038171695888E-04
(PID.TID 0000.0001) %MON dynstat_salt_max             =   4.0655989279510E+01
(PID.TID 0000.0001) %MON dynstat_salt_min             =   1.5912693568572E+01
(PID.TID 0000.0001) %MON dynstat_salt_mean            =   3.4724784386276E+01
(PID.TID 0000.0001) %MON dynstat_salt_sd              =   3.7977999228333E-01
(PID.TID 0000.0001) %MON dynstat_salt_del2            =   6.2042220217146E-05
(PID.TID 0000.0001) %MON dynstat_sst_max              =   3.2386706590714E+01
(PID.TID 0000.0001) %MON dynstat_sst_min              =  -2.0372229990009E+00
(PID.TID 0000.0001) %MON dynstat_sst_mean             =   1.8173834816835E+01
(PID.TID 0000.0001) %MON dynstat_sst_sd               =   1.0210791070435E+01
(PID.TID 0000.0001) %MON dynstat_sst_del2             =   1.0911394643566E-03
(PID.TID 0000.0001) %MON dynstat_sss_max              =   3.9463767811697E+01
(PID.TID 0000.0001) %MON dynstat_sss_min              =   1.5912693568572E+01
(PID.TID 0000.0001) %MON dynstat_sss_mean             =   3.4640679791717E+01
(PID.TID 0000.0001) %MON dynstat_sss_sd               =   1.3046395849950E+00
(PID.TID 0000.0001) %MON dynstat_sss_del2             =   1.4664188264147E-03
(PID.TID 0000.0001) %MON forcing_qnet_max             =   8.5498596191406E+02
(PID.TID 0000.0001) %MON forcing_qnet_min             =  -2.4583725138842E+03
(PID.TID 0000.0001) %MON forcing_qnet_mean            =  -8.4297863622480E+00
(PID.TID 0000.0001) %MON forcing_qnet_sd              =   2.0404860289853E+02
(PID.TID 0000.0001) %MON forcing_qnet_del2            =   4.0382995400978E-01
(PID.TID 0000.0001) %MON forcing_qsw_max              =   0.0000000000000E+00
(PID.TID 0000.0001) %MON forcing_qsw_min              =  -1.1175876842549E+02
(PID.TID 0000.0001) %MON forcing_qsw_mean             =  -2.0215222933988E+01
(PID.TID 0000.0001) %MON forcing_qsw_sd               =   2.9849724302260E+01
(PID.TID 0000.0001) %MON forcing_qsw_del2             =   2.2032510026158E-02
(PID.TID 0000.0001) %MON forcing_empmr_max            =   2.3590223863721E-02
(PID.TID 0000.0001) %MON forcing_empmr_min            =  -4.0736652910709E-02
(PID.TID 0000.0001) %MON forcing_empmr_mean           =  -2.4415531007928E-06
(PID.TID 0000.0001) %MON forcing_empmr_sd             =   3.6484615867676E-04
(PID.TID 0000.0001) %MON forcing_empmr_del2           =   4.2875540014057E-06
(PID.TID 0000.0001) %MON forcing_fu_max               =   8.8042125105858E-01
(PID.TID 0000.0001) %MON forcing_fu_min               =  -1.2782170890036E+00
(PID.TID 0000.0001) %MON forcing_fu_mean              =   1.0778404579963E-02
(PID.TID 0000.0001) %MON forcing_fu_sd                =   1.2559564434896E-01
(PID.TID 0000.0001) %MON forcing_fu_del2              =   1.6495273179822E-04
(PID.TID 0000.0001) %MON forcing_fv_max               =   1.1505544781685E+00
(PID.TID 0000.0001) %MON forcing_fv_min               =  -1.2246593236923E+00
(PID.TID 0000.0001) %MON forcing_fv_mean              =   8.4261785973939E-04
(PID.TID 0000.0001) %MON forcing_fv_sd                =   1.2294376753982E-01
(PID.TID 0000.0001) %MON forcing_fv_del2              =   1.6319944001035E-04
(PID.TID 0000.0001) %MON trAdv_CFL_u_max              =   2.1647641080684E-02
(PID.TID 0000.0001) %MON trAdv_CFL_v_max              =   2.0063469163669E-02
(PID.TID 0000.0001) %MON trAdv_CFL_w_max              =   1.0144839275487E-01
(PID.TID 0000.0001) %MON advcfl_uvel_max              =   2.1937208435422E-02
(PID.TID 0000.0001) %MON advcfl_vvel_max              =   1.9998817018149E-02
(PID.TID 0000.0001) %MON advcfl_wvel_max              =   9.5632583196534E-02
(PID.TID 0000.0001) %MON advcfl_W_hf_max              =   1.0144839275487E-01
(PID.TID 0000.0001) %MON pe_b_mean                    =   2.6326233565206E-03
(PID.TID 0000.0001) %MON ke_max                       =   2.1830603948975E+00
(PID.TID 0000.0001) %MON ke_mean                      =   2.6383559516082E-03
(PID.TID 0000.0001) %MON ke_vol                       =   1.3350064351420E+18
(PID.TID 0000.0001) %MON vort_r_min                   =  -7.0778207057443E-05
(PID.TID 0000.0001) %MON vort_r_max                   =   7.8085605426512E-05
(PID.TID 0000.0001) %MON vort_a_mean                  =  -1.9725077191712E-05
(PID.TID 0000.0001) %MON vort_a_sd                    =   7.4543349458212E-05
(PID.TID 0000.0001) %MON vort_p_mean                  =  -2.1669082182559E-05
(PID.TID 0000.0001) %MON vort_p_sd                    =   9.3620611065873E-05
(PID.TID 0000.0001) %MON surfExpan_theta_mean         =   4.9006577569748E-07
(PID.TID 0000.0001) %MON surfExpan_salt_mean          =  -4.3913232744895E-05
(PID.TID 0000.0001) // =======================================================
(PID.TID 0000.0001) // End MONITOR dynamic field statistics
(PID.TID 0000.0001) // =======================================================
(PID.TID 0000.0001) // =======================================================
(PID.TID 0000.0001) // Begin MONITOR SEAICE statistics
(PID.TID 0000.0001) // =======================================================
(PID.TID 0000.0001) %MON seaice_tsnumber              =                174920
(PID.TID 0000.0001) %MON seaice_time_sec              =   7.8714000000000E+07
(PID.TID 0000.0001) %MON seaice_uice_max              =   1.1787628007737E+00
(PID.TID 0000.0001) %MON seaice_uice_min              =  -1.4022697835906E+00
(PID.TID 0000.0001) %MON seaice_uice_mean             =   9.2140333979353E-03
(PID.TID 0000.0001) %MON seaice_uice_sd               =   1.5012980820443E-01
(PID.TID 0000.0001) %MON seaice_uice_del2             =   3.8738593800990E-04
(PID.TID 0000.0001) %MON seaice_vice_max              =   1.0183382445130E+00
(PID.TID 0000.0001) %MON seaice_vice_min              =  -1.5064684716193E+00
(PID.TID 0000.0001) %MON seaice_vice_mean             =  -1.7732874164192E-02
(PID.TID 0000.0001) %MON seaice_vice_sd               =   1.6275440372470E-01
(PID.TID 0000.0001) %MON seaice_vice_del2             =   3.7935452797434E-04
(PID.TID 0000.0001) %MON seaice_area_max              =   1.0011339513502E+00
(PID.TID 0000.0001) %MON seaice_area_min              =   0.0000000000000E+00
(PID.TID 0000.0001) %MON seaice_area_mean             =   5.7711435560312E-02
(PID.TID 0000.0001) %MON seaice_area_sd               =   2.2074746977434E-01
(PID.TID 0000.0001) %MON seaice_area_del2             =   2.8226382331482E-04
(PID.TID 0000.0001) %MON seaice_heff_max              =   9.9471649157093E+00
(PID.TID 0000.0001) %MON seaice_heff_min              =   0.0000000000000E+00
(PID.TID 0000.0001) %MON seaice_heff_mean             =   1.4921864264455E-01
(PID.TID 0000.0001) %MON seaice_heff_sd               =   7.1903468223298E-01
(PID.TID 0000.0001) %MON seaice_heff_del2             =   1.3092125850191E-03
(PID.TID 0000.0001) %MON seaice_hsnow_max             =   3.2855695332089E+00
(PID.TID 0000.0001) %MON seaice_hsnow_min             =   0.0000000000000E+00
(PID.TID 0000.0001) %MON seaice_hsnow_mean            =   1.2571312164614E-02
(PID.TID 0000.0001) %MON seaice_hsnow_sd              =   6.7195522168057E-02
(PID.TID 0000.0001) %MON seaice_hsnow_del2            =   3.4651138236550E-04
(PID.TID 0000.0001) // =======================================================
(PID.TID 0000.0001) // End MONITOR SEAICE statistics
(PID.TID 0000.0001) // =======================================================
(PID.TID 0000.0001) // =======================================================
(PID.TID 0000.0001) // Begin MONITOR dynamic field statistics
(PID.TID 0000.0001) // =======================================================
(PID.TID 0000.0001) %MON time_tsnumber                =                174921
(PID.TID 0000.0001) %MON time_secondsf                =   7.8714450000000E+07
(PID.TID 0000.0001) %MON dynstat_eta_max              =   2.6987178329902E+00
(PID.TID 0000.0001) %MON dynstat_eta_min              =  -1.0254136707957E+01
(PID.TID 0000.0001) %MON dynstat_eta_mean             =   8.4736359325292E-02
(PID.TID 0000.0001) %MON dynstat_eta_sd               =   1.0342611991968E+00
(PID.TID 0000.0001) %MON dynstat_eta_del2             =   2.0123569342562E-03
(PID.TID 0000.0001) %MON dynstat_uvel_max             =   1.3641261005058E+00
(PID.TID 0000.0001) %MON dynstat_uvel_min             =  -2.3304344704575E+00
(PID.TID 0000.0001) %MON dynstat_uvel_mean            =   6.5377694971459E-03
(PID.TID 0000.0001) %MON dynstat_uvel_sd              =   5.1460150793248E-02
(PID.TID 0000.0001) %MON dynstat_uvel_del2            =   4.6743346050948E-05
(PID.TID 0000.0001) %MON dynstat_vvel_max             =   1.9649771577056E+00
(PID.TID 0000.0001) %MON dynstat_vvel_min             =  -1.7349374488270E+00
(PID.TID 0000.0001) %MON dynstat_vvel_mean            =   1.9850784204661E-03
(PID.TID 0000.0001) %MON dynstat_vvel_sd              =   5.3223616966948E-02
(PID.TID 0000.0001) %MON dynstat_vvel_del2            =   4.5555821218250E-05
(PID.TID 0000.0001) %MON dynstat_wvel_max             =   1.2197379240051E-02
(PID.TID 0000.0001) %MON dynstat_wvel_min             =  -1.0608057427350E-02
(PID.TID 0000.0001) %MON dynstat_wvel_mean            =  -4.3549381975524E-07
(PID.TID 0000.0001) %MON dynstat_wvel_sd              =   2.0187455527892E-04
(PID.TID 0000.0001) %MON dynstat_wvel_del2            =   4.1118072965035E-07
(PID.TID 0000.0001) %MON dynstat_theta_max            =   3.2384409800340E+01
(PID.TID 0000.0001) %MON dynstat_theta_min            =  -2.0370566447778E+00
(PID.TID 0000.0001) %MON dynstat_theta_mean           =   3.5917530096661E+00
(PID.TID 0000.0001) %MON dynstat_theta_sd             =   4.4413145410573E+00
(PID.TID 0000.0001) %MON dynstat_theta_del2           =   1.3044344161439E-04
(PID.TID 0000.0001) %MON dynstat_salt_max             =   4.0655989279303E+01
(PID.TID 0000.0001) %MON dynstat_salt_min             =   1.5912302596351E+01
(PID.TID 0000.0001) %MON dynstat_salt_mean            =   3.4724784063537E+01
(PID.TID 0000.0001) %MON dynstat_salt_sd              =   3.7978117749653E-01
(PID.TID 0000.0001) %MON dynstat_salt_del2            =   6.2020762918888E-05
(PID.TID 0000.0001) %MON dynstat_sst_max              =   3.2384409800340E+01
(PID.TID 0000.0001) %MON dynstat_sst_min              =  -2.0370566447778E+00
(PID.TID 0000.0001) %MON dynstat_sst_mean             =   1.8173993259440E+01
(PID.TID 0000.0001) %MON dynstat_sst_sd               =   1.0211072275658E+01
(PID.TID 0000.0001) %MON dynstat_sst_del2             =   1.0910436818848E-03
(PID.TID 0000.0001) %MON dynstat_sss_max              =   3.9463799754090E+01
(PID.TID 0000.0001) %MON dynstat_sss_min              =   1.5912302596351E+01
(PID.TID 0000.0001) %MON dynstat_sss_mean             =   3.4640663283200E+01
(PID.TID 0000.0001) %MON dynstat_sss_sd               =   1.3046794809116E+00
(PID.TID 0000.0001) %MON dynstat_sss_del2             =   1.4666898606058E-03
(PID.TID 0000.0001) %MON forcing_qnet_max             =   9.0103918457031E+02
(PID.TID 0000.0001) %MON forcing_qnet_min             =  -2.0365264892578E+03
(PID.TID 0000.0001) %MON forcing_qnet_mean            =  -8.9352766288399E+00
(PID.TID 0000.0001) %MON forcing_qnet_sd              =   2.0451848844037E+02
(PID.TID 0000.0001) %MON forcing_qnet_del2            =   4.1191566130193E-01
(PID.TID 0000.0001) %MON forcing_qsw_max              =   0.0000000000000E+00
(PID.TID 0000.0001) %MON forcing_qsw_min              =  -1.1191921696543E+02
(PID.TID 0000.0001) %MON forcing_qsw_mean             =  -2.0276424199215E+01
(PID.TID 0000.0001) %MON forcing_qsw_sd               =   2.9904886907079E+01
(PID.TID 0000.0001) %MON forcing_qsw_del2             =   2.1990323130017E-02
(PID.TID 0000.0001) %MON forcing_empmr_max            =   2.5126954540610E-02
(PID.TID 0000.0001) %MON forcing_empmr_min            =  -4.3083284050226E-02
(PID.TID 0000.0001) %MON forcing_empmr_mean           =  -2.3207234499094E-06
(PID.TID 0000.0001) %MON forcing_empmr_sd             =   3.7085161459255E-04
(PID.TID 0000.0001) %MON forcing_empmr_del2           =   4.3583681025523E-06
(PID.TID 0000.0001) %MON forcing_fu_max               =   8.8089311122894E-01
(PID.TID 0000.0001) %MON forcing_fu_min               =  -1.2753722522624E+00
(PID.TID 0000.0001) %MON forcing_fu_mean              =   1.0767364909632E-02
(PID.TID 0000.0001) %MON forcing_fu_sd                =   1.2553735513029E-01
(PID.TID 0000.0001) %MON forcing_fu_del2              =   1.6488050274902E-04
(PID.TID 0000.0001) %MON forcing_fv_max               =   1.1462831497192E+00
(PID.TID 0000.0001) %MON forcing_fv_min               =  -1.2260099649429E+00
(PID.TID 0000.0001) %MON forcing_fv_mean              =   8.4923674059016E-04
(PID.TID 0000.0001) %MON forcing_fv_sd                =   1.2295338881632E-01
(PID.TID 0000.0001) %MON forcing_fv_del2              =   1.6303431968834E-04
(PID.TID 0000.0001) %MON trAdv_CFL_u_max              =   2.1605172701756E-02
(PID.TID 0000.0001) %MON trAdv_CFL_v_max              =   2.0002732398112E-02
(PID.TID 0000.0001) %MON trAdv_CFL_w_max              =   1.0120734277223E-01
(PID.TID 0000.0001) %MON advcfl_uvel_max              =   2.1894171982767E-02
(PID.TID 0000.0001) %MON advcfl_vvel_max              =   1.9938275969602E-02
(PID.TID 0000.0001) %MON advcfl_wvel_max              =   9.5389983702371E-02
(PID.TID 0000.0001) %MON advcfl_W_hf_max              =   1.0120734277223E-01
(PID.TID 0000.0001) %MON pe_b_mean                    =   2.6204565483325E-03
(PID.TID 0000.0001) %MON ke_max                       =   2.1814577549693E+00
(PID.TID 0000.0001) %MON ke_mean                      =   2.6653498716188E-03
(PID.TID 0000.0001) %MON ke_vol                       =   1.3350064351420E+18
(PID.TID 0000.0001) %MON vort_r_min                   =  -7.0853381476605E-05
(PID.TID 0000.0001) %MON vort_r_max                   =   7.7930462438305E-05
(PID.TID 0000.0001) %MON vort_a_mean                  =  -1.9725077186056E-05
(PID.TID 0000.0001) %MON vort_a_sd                    =   7.4543399973461E-05
(PID.TID 0000.0001) %MON vort_p_mean                  =  -2.1669082176346E-05
(PID.TID 0000.0001) %MON vort_p_sd                    =   9.3620655648651E-05
(PID.TID 0000.0001) %MON surfExpan_theta_mean         =  -1.0594490871425E-06
(PID.TID 0000.0001) %MON surfExpan_salt_mean          =  -4.5911061516693E-05
(PID.TID 0000.0001) // =======================================================
(PID.TID 0000.0001) // End MONITOR dynamic field statistics
(PID.TID 0000.0001) // =======================================================
(PID.TID 0000.0001) // =======================================================
(PID.TID 0000.0001) // Begin MONITOR SEAICE statistics
(PID.TID 0000.0001) // =======================================================
(PID.TID 0000.0001) %MON seaice_tsnumber              =                174921
(PID.TID 0000.0001) %MON seaice_time_sec              =   7.8714450000000E+07
(PID.TID 0000.0001) %MON seaice_uice_max              =   1.1790403656229E+00
(PID.TID 0000.0001) %MON seaice_uice_min              =  -1.3905807588119E+00
(PID.TID 0000.0001) %MON seaice_uice_mean             =   9.1700099783319E-03
(PID.TID 0000.0001) %MON seaice_uice_sd               =   1.5011589560757E-01
(PID.TID 0000.0001) %MON seaice_uice_del2             =   3.8785942207372E-04
(PID.TID 0000.0001) %MON seaice_vice_max              =   1.0214995227822E+00
(PID.TID 0000.0001) %MON seaice_vice_min              =  -1.5083485794599E+00
(PID.TID 0000.0001) %MON seaice_vice_mean             =  -1.7940383881235E-02
(PID.TID 0000.0001) %MON seaice_vice_sd               =   1.6288582165295E-01
(PID.TID 0000.0001) %MON seaice_vice_del2             =   3.7994751305395E-04
(PID.TID 0000.0001) %MON seaice_area_max              =   1.0011292590943E+00
(PID.TID 0000.0001) %MON seaice_area_min              =   0.0000000000000E+00
(PID.TID 0000.0001) %MON seaice_area_mean             =   5.7714962343452E-02
(PID.TID 0000.0001) %MON seaice_area_sd               =   2.2074811894596E-01
(PID.TID 0000.0001) %MON seaice_area_del2             =   2.8224549470704E-04
(PID.TID 0000.0001) %MON seaice_heff_max              =   9.9471706583823E+00
(PID.TID 0000.0001) %MON seaice_heff_min              =   0.0000000000000E+00
(PID.TID 0000.0001) %MON seaice_heff_mean             =   1.4921533998856E-01
(PID.TID 0000.0001) %MON seaice_heff_sd               =   7.1902212046328E-01
(PID.TID 0000.0001) %MON seaice_heff_del2             =   1.3086244083044E-03
(PID.TID 0000.0001) %MON seaice_hsnow_max             =   3.2855715106485E+00
(PID.TID 0000.0001) %MON seaice_hsnow_min             =   0.0000000000000E+00
(PID.TID 0000.0001) %MON seaice_hsnow_mean            =   1.2570508795584E-02
(PID.TID 0000.0001) %MON seaice_hsnow_sd              =   6.7184494976105E-02
(PID.TID 0000.0001) %MON seaice_hsnow_del2            =   3.4622709653834E-04
(PID.TID 0000.0001) // =======================================================
(PID.TID 0000.0001) // End MONITOR SEAICE statistics
(PID.TID 0000.0001) // =======================================================
(PID.TID 0000.0001) // =======================================================
(PID.TID 0000.0001) // Begin MONITOR dynamic field statistics
(PID.TID 0000.0001) // =======================================================
(PID.TID 0000.0001) %MON time_tsnumber                =                174922
(PID.TID 0000.0001) %MON time_secondsf                =   7.8714900000000E+07
(PID.TID 0000.0001) %MON dynstat_eta_max              =   2.7188115817221E+00
(PID.TID 0000.0001) %MON dynstat_eta_min              =  -1.0277435785958E+01
(PID.TID 0000.0001) %MON dynstat_eta_mean             =   8.4084770949084E-02
(PID.TID 0000.0001) %MON dynstat_eta_sd               =   1.0365683033230E+00
(PID.TID 0000.0001) %MON dynstat_eta_del2             =   2.0123527855638E-03
(PID.TID 0000.0001) %MON dynstat_uvel_max             =   1.3616094099114E+00
(PID.TID 0000.0001) %MON dynstat_uvel_min             =  -2.3321653676673E+00
(PID.TID 0000.0001) %MON dynstat_uvel_mean            =   6.5399275218832E-03
(PID.TID 0000.0001) %MON dynstat_uvel_sd              =   5.1702816522796E-02
(PID.TID 0000.0001) %MON dynstat_uvel_del2            =   4.6872236167876E-05
(PID.TID 0000.0001) %MON dynstat_vvel_max             =   1.9589192616394E+00
(PID.TID 0000.0001) %MON dynstat_vvel_min             =  -1.7329434763596E+00
(PID.TID 0000.0001) %MON dynstat_vvel_mean            =   1.9440751107579E-03
(PID.TID 0000.0001) %MON dynstat_vvel_sd              =   5.3519980590770E-02
(PID.TID 0000.0001) %MON dynstat_vvel_del2            =   4.5684877053859E-05
(PID.TID 0000.0001) %MON dynstat_wvel_max             =   1.2280484371765E-02
(PID.TID 0000.0001) %MON dynstat_wvel_min             =  -1.0642125192944E-02
(PID.TID 0000.0001) %MON dynstat_wvel_mean            =  -4.6990511624097E-07
(PID.TID 0000.0001) %MON dynstat_wvel_sd              =   2.0258018198250E-04
(PID.TID 0000.0001) %MON dynstat_wvel_del2            =   4.1220975869433E-07
(PID.TID 0000.0001) %MON dynstat_theta_max            =   3.2382212076332E+01
(PID.TID 0000.0001) %MON dynstat_theta_min            =  -2.0368917209288E+00
(PID.TID 0000.0001) %MON dynstat_theta_mean           =   3.5917535206404E+00
(PID.TID 0000.0001) %MON dynstat_theta_sd             =   4.4413174413592E+00
(PID.TID 0000.0001) %MON dynstat_theta_del2           =   1.3050537230851E-04
(PID.TID 0000.0001) %MON dynstat_salt_max             =   4.0655989279096E+01
(PID.TID 0000.0001) %MON dynstat_salt_min             =   1.5911912659762E+01
(PID.TID 0000.0001) %MON dynstat_salt_mean            =   3.4724783751021E+01
(PID.TID 0000.0001) %MON dynstat_salt_sd              =   3.7978236323548E-01
(PID.TID 0000.0001) %MON dynstat_salt_del2            =   6.1998989993259E-05
(PID.TID 0000.0001) %MON dynstat_sst_max              =   3.2382212076332E+01
(PID.TID 0000.0001) %MON dynstat_sst_min              =  -2.0368917209288E+00
(PID.TID 0000.0001) %MON dynstat_sst_mean             =   1.8174148556301E+01
(PID.TID 0000.0001) %MON dynstat_sst_sd               =   1.0211353431935E+01
(PID.TID 0000.0001) %MON dynstat_sst_del2             =   1.0909468094146E-03
(PID.TID 0000.0001) %MON dynstat_sss_max              =   3.9463832954470E+01
(PID.TID 0000.0001) %MON dynstat_sss_min              =   1.5911912659762E+01
(PID.TID 0000.0001) %MON dynstat_sss_mean             =   3.4640646283123E+01
(PID.TID 0000.0001) %MON dynstat_sss_sd               =   1.3047187230227E+00
(PID.TID 0000.0001) %MON dynstat_sss_del2             =   1.4669369496691E-03
(PID.TID 0000.0001) %MON forcing_qnet_max             =   9.4960327148438E+02
(PID.TID 0000.0001) %MON forcing_qnet_min             =  -2.4083574373176E+03
(PID.TID 0000.0001) %MON forcing_qnet_mean            =  -9.1832522694973E+00
(PID.TID 0000.0001) %MON forcing_qnet_sd              =   2.0506595027463E+02
(PID.TID 0000.0001) %MON forcing_qnet_del2            =   4.3589447518222E-01
(PID.TID 0000.0001) %MON forcing_qsw_max              =   0.0000000000000E+00
(PID.TID 0000.0001) %MON forcing_qsw_min              =  -1.1204922324852E+02
(PID.TID 0000.0001) %MON forcing_qsw_mean             =  -2.0325190064976E+01
(PID.TID 0000.0001) %MON forcing_qsw_sd               =   2.9955082686135E+01
(PID.TID 0000.0001) %MON forcing_qsw_del2             =   2.1939886537478E-02
(PID.TID 0000.0001) %MON forcing_empmr_max            =   2.4558648467064E-02
(PID.TID 0000.0001) %MON forcing_empmr_min            =  -4.6243827790022E-02
(PID.TID 0000.0001) %MON forcing_empmr_mean           =  -2.6787500489030E-06
(PID.TID 0000.0001) %MON forcing_empmr_sd             =   3.7271473758928E-04
(PID.TID 0000.0001) %MON forcing_empmr_del2           =   4.4012779279416E-06
(PID.TID 0000.0001) %MON forcing_fu_max               =   8.7964716553688E-01
(PID.TID 0000.0001) %MON forcing_fu_min               =  -1.2716567347335E+00
(PID.TID 0000.0001) %MON forcing_fu_mean              =   1.0755757441258E-02
(PID.TID 0000.0001) %MON forcing_fu_sd                =   1.2549121744170E-01
(PID.TID 0000.0001) %MON forcing_fu_del2              =   1.6483640099350E-04
(PID.TID 0000.0001) %MON forcing_fv_max               =   1.1477302312851E+00
(PID.TID 0000.0001) %MON forcing_fv_min               =  -1.2273522019386E+00
(PID.TID 0000.0001) %MON forcing_fv_mean              =   8.4981446580482E-04
(PID.TID 0000.0001) %MON forcing_fv_sd                =   1.2299222965834E-01
(PID.TID 0000.0001) %MON forcing_fv_del2              =   1.6325671885618E-04
(PID.TID 0000.0001) %MON trAdv_CFL_u_max              =   2.1562088659868E-02
(PID.TID 0000.0001) %MON trAdv_CFL_v_max              =   1.9941065282323E-02
(PID.TID 0000.0001) %MON trAdv_CFL_w_max              =   1.0097454184608E-01
(PID.TID 0000.0001) %MON advcfl_uvel_max              =   2.1850511631802E-02
(PID.TID 0000.0001) %MON advcfl_vvel_max              =   1.9876807568767E-02
(PID.TID 0000.0001) %MON advcfl_wvel_max              =   9.5156070669097E-02
(PID.TID 0000.0001) %MON advcfl_W_hf_max              =   1.0097454184608E-01
(PID.TID 0000.0001) %MON pe_b_mean                    =   2.6076169180951E-03
(PID.TID 0000.0001) %MON ke_max                       =   2.1796441506042E+00
(PID.TID 0000.0001) %MON ke_mean                      =   2.6926113629511E-03
(PID.TID 0000.0001) %MON ke_vol                       =   1.3350064351420E+18
(PID.TID 0000.0001) %MON vort_r_min                   =  -7.0925584343377E-05
(PID.TID 0000.0001) %MON vort_r_max                   =   7.7772714185188E-05
(PID.TID 0000.0001) %MON vort_a_mean                  =  -1.9725077181193E-05
(PID.TID 0000.0001) %MON vort_a_sd                    =   7.4543451404236E-05
(PID.TID 0000.0001) %MON vort_p_mean                  =  -2.1669082171004E-05
(PID.TID 0000.0001) %MON vort_p_sd                    =   9.3620700122430E-05
(PID.TID 0000.0001) %MON surfExpan_theta_mean         =  -2.6394067065150E-06
(PID.TID 0000.0001) %MON surfExpan_salt_mean          =  -4.7877444265545E-05
(PID.TID 0000.0001) // =======================================================
(PID.TID 0000.0001) // End MONITOR dynamic field statistics
(PID.TID 0000.0001) // =======================================================
(PID.TID 0000.0001) // =======================================================
(PID.TID 0000.0001) // Begin MONITOR SEAICE statistics
(PID.TID 0000.0001) // =======================================================
(PID.TID 0000.0001) %MON seaice_tsnumber              =                174922
(PID.TID 0000.0001) %MON seaice_time_sec              =   7.8714900000000E+07
(PID.TID 0000.0001) %MON seaice_uice_max              =   1.1793177807512E+00
(PID.TID 0000.0001) %MON seaice_uice_min              =  -1.3787804200068E+00
(PID.TID 0000.0001) %MON seaice_uice_mean             =   9.1287579709051E-03
(PID.TID 0000.0001) %MON seaice_uice_sd               =   1.5010029246486E-01
(PID.TID 0000.0001) %MON seaice_uice_del2             =   3.8832913897204E-04
(PID.TID 0000.0001) %MON seaice_vice_max              =   1.0247021539652E+00
(PID.TID 0000.0001) %MON seaice_vice_min              =  -1.5102014388361E+00
(PID.TID 0000.0001) %MON seaice_vice_mean             =  -1.8146015914438E-02
(PID.TID 0000.0001) %MON seaice_vice_sd               =   1.6301874237647E-01
(PID.TID 0000.0001) %MON seaice_vice_del2             =   3.8053219049690E-04
(PID.TID 0000.0001) %MON seaice_area_max              =   1.0011245469018E+00
(PID.TID 0000.0001) %MON seaice_area_min              =   0.0000000000000E+00
(PID.TID 0000.0001) %MON seaice_area_mean             =   5.7718558761217E-02
(PID.TID 0000.0001) %MON seaice_area_sd               =   2.2074893909171E-01
(PID.TID 0000.0001) %MON seaice_area_del2             =   2.8223588812201E-04
(PID.TID 0000.0001) %MON seaice_heff_max              =   9.9471649567685E+00
(PID.TID 0000.0001) %MON seaice_heff_min              =   0.0000000000000E+00
(PID.TID 0000.0001) %MON seaice_heff_mean             =   1.4921205018095E-01
(PID.TID 0000.0001) %MON seaice_heff_sd               =   7.1900951725708E-01
(PID.TID 0000.0001) %MON seaice_heff_del2             =   1.3080356642852E-03
(PID.TID 0000.0001) %MON seaice_hsnow_max             =   3.2855695505574E+00
(PID.TID 0000.0001) %MON seaice_hsnow_min             =   0.0000000000000E+00
(PID.TID 0000.0001) %MON seaice_hsnow_mean            =   1.2569701157708E-02
(PID.TID 0000.0001) %MON seaice_hsnow_sd              =   6.7173400144349E-02
(PID.TID 0000.0001) %MON seaice_hsnow_del2            =   3.4594365276898E-04
(PID.TID 0000.0001) // =======================================================
(PID.TID 0000.0001) // End MONITOR SEAICE statistics
(PID.TID 0000.0001) // =======================================================
(PID.TID 0000.0001) // =======================================================
(PID.TID 0000.0001) // Begin MONITOR dynamic field statistics
(PID.TID 0000.0001) // =======================================================
(PID.TID 0000.0001) %MON time_tsnumber                =                174923
(PID.TID 0000.0001) %MON time_secondsf                =   7.8715350000000E+07
(PID.TID 0000.0001) %MON dynstat_eta_max              =   2.7379891568340E+00
(PID.TID 0000.0001) %MON dynstat_eta_min              =  -1.0300486849840E+01
(PID.TID 0000.0001) %MON dynstat_eta_mean             =   8.3409009015683E-02
(PID.TID 0000.0001) %MON dynstat_eta_sd               =   1.0388660151578E+00
(PID.TID 0000.0001) %MON dynstat_eta_del2             =   2.0123550595137E-03
(PID.TID 0000.0001) %MON dynstat_uvel_max             =   1.3590330685672E+00
(PID.TID 0000.0001) %MON dynstat_uvel_min             =  -2.3337518511559E+00
(PID.TID 0000.0001) %MON dynstat_uvel_mean            =   6.5442185233145E-03
(PID.TID 0000.0001) %MON dynstat_uvel_sd              =   5.1946265642756E-02
(PID.TID 0000.0001) %MON dynstat_uvel_del2            =   4.7001413260346E-05
(PID.TID 0000.0001) %MON dynstat_vvel_max             =   1.9528208903142E+00
(PID.TID 0000.0001) %MON dynstat_vvel_min             =  -1.7309011671256E+00
(PID.TID 0000.0001) %MON dynstat_vvel_mean            =   1.9043300143060E-03
(PID.TID 0000.0001) %MON dynstat_vvel_sd              =   5.3817673982789E-02
(PID.TID 0000.0001) %MON dynstat_vvel_del2            =   4.5814135300763E-05
(PID.TID 0000.0001) %MON dynstat_wvel_max             =   1.2362697232453E-02
(PID.TID 0000.0001) %MON dynstat_wvel_min             =  -1.0676736437611E-02
(PID.TID 0000.0001) %MON dynstat_wvel_mean            =  -5.0443133963594E-07
(PID.TID 0000.0001) %MON dynstat_wvel_sd              =   2.0328345847129E-04
(PID.TID 0000.0001) %MON dynstat_wvel_del2            =   4.1323127970646E-07
(PID.TID 0000.0001) %MON dynstat_theta_max            =   3.2380126624357E+01
(PID.TID 0000.0001) %MON dynstat_theta_min            =  -2.0367175107669E+00
(PID.TID 0000.0001) %MON dynstat_theta_mean           =   3.5917542284665E+00
(PID.TID 0000.0001) %MON dynstat_theta_sd             =   4.4413207796183E+00
(PID.TID 0000.0001) %MON dynstat_theta_del2           =   1.3056778177700E-04
(PID.TID 0000.0001) %MON dynstat_salt_max             =   4.0655989278889E+01
(PID.TID 0000.0001) %MON dynstat_salt_min             =   1.5911522809130E+01
(PID.TID 0000.0001) %MON dynstat_salt_mean            =   3.4724783451008E+01
(PID.TID 0000.0001) %MON dynstat_salt_sd              =   3.7978355087685E-01
(PID.TID 0000.0001) %MON dynstat_salt_del2            =   6.1977915329084E-05
(PID.TID 0000.0001) %MON dynstat_sst_max              =   3.2380126624357E+01
(PID.TID 0000.0001) %MON dynstat_sst_min              =  -2.0367175107669E+00
(PID.TID 0000.0001) %MON dynstat_sst_mean             =   1.8174298651155E+01
(PID.TID 0000.0001) %MON dynstat_sst_sd               =   1.0211634074396E+01
(PID.TID 0000.0001) %MON dynstat_sst_del2             =   1.0908591831548E-03
(PID.TID 0000.0001) %MON dynstat_sss_max              =   3.9463866374559E+01
(PID.TID 0000.0001) %MON dynstat_sss_min              =   1.5911522809130E+01
(PID.TID 0000.0001) %MON dynstat_sss_mean             =   3.4640629178185E+01
(PID.TID 0000.0001) %MON dynstat_sss_sd               =   1.3047582354603E+00
(PID.TID 0000.0001) %MON dynstat_sss_del2             =   1.4672000571919E-03
(PID.TID 0000.0001) %MON forcing_qnet_max             =   1.6750212402344E+03
(PID.TID 0000.0001) %MON forcing_qnet_min             =  -2.2820517578125E+03
(PID.TID 0000.0001) %MON forcing_qnet_mean            =  -9.4359512669667E+00
(PID.TID 0000.0001) %MON forcing_qnet_sd              =   2.0563415973673E+02
(PID.TID 0000.0001) %MON forcing_qnet_del2            =   4.2556583679571E-01
(PID.TID 0000.0001) %MON forcing_qsw_max              =   0.0000000000000E+00
(PID.TID 0000.0001) %MON forcing_qsw_min              =  -1.1206241095547E+02
(PID.TID 0000.0001) %MON forcing_qsw_mean             =  -2.0361527208856E+01
(PID.TID 0000.0001) %MON forcing_qsw_sd               =   3.0000015902670E+01
(PID.TID 0000.0001) %MON forcing_qsw_del2             =   2.1881327051756E-02
(PID.TID 0000.0001) %MON forcing_empmr_max            =   2.2854818031192E-02
(PID.TID 0000.0001) %MON forcing_empmr_min            =  -4.9615781754255E-02
(PID.TID 0000.0001) %MON forcing_empmr_mean           =  -2.9969354409193E-06
(PID.TID 0000.0001) %MON forcing_empmr_sd             =   3.7907123402677E-04
(PID.TID 0000.0001) %MON forcing_empmr_del2           =   4.5295829178863E-06
(PID.TID 0000.0001) %MON forcing_fu_max               =   8.7621092796326E-01
(PID.TID 0000.0001) %MON forcing_fu_min               =  -1.2680225709872E+00
(PID.TID 0000.0001) %MON forcing_fu_mean              =   1.0744797820315E-02
(PID.TID 0000.0001) %MON forcing_fu_sd                =   1.2542991138333E-01
(PID.TID 0000.0001) %MON forcing_fu_del2              =   1.6470644383990E-04
(PID.TID 0000.0001) %MON forcing_fv_max               =   1.1469524502754E+00
(PID.TID 0000.0001) %MON forcing_fv_min               =  -1.2341492176056E+00
(PID.TID 0000.0001) %MON forcing_fv_mean              =   8.5309301622719E-04
(PID.TID 0000.0001) %MON forcing_fv_sd                =   1.2305177944236E-01
(PID.TID 0000.0001) %MON forcing_fv_del2              =   1.6352485079039E-04
(PID.TID 0000.0001) %MON trAdv_CFL_u_max              =   2.1518341666901E-02
(PID.TID 0000.0001) %MON trAdv_CFL_v_max              =   1.9878986143538E-02
(PID.TID 0000.0001) %MON trAdv_CFL_w_max              =   1.0075096994309E-01
(PID.TID 0000.0001) %MON advcfl_uvel_max              =   2.1806179461865E-02
(PID.TID 0000.0001) %MON advcfl_vvel_max              =   1.9814928472630E-02
(PID.TID 0000.0001) %MON advcfl_wvel_max              =   9.4931819344203E-02
(PID.TID 0000.0001) %MON advcfl_W_hf_max              =   1.0075096994309E-01
(PID.TID 0000.0001) %MON pe_b_mean                    =   2.5941036126367E-03
(PID.TID 0000.0001) %MON ke_max                       =   2.1776404249068E+00
(PID.TID 0000.0001) %MON ke_mean                      =   2.7201400074987E-03
(PID.TID 0000.0001) %MON ke_vol                       =   1.3350064351420E+18
(PID.TID 0000.0001) %MON vort_r_min                   =  -7.0994836520503E-05
(PID.TID 0000.0001) %MON vort_r_max                   =   7.7612097564028E-05
(PID.TID 0000.0001) %MON vort_a_mean                  =  -1.9725077177206E-05
(PID.TID 0000.0001) %MON vort_a_sd                    =   7.4543503732696E-05
(PID.TID 0000.0001) %MON vort_p_mean                  =  -2.1669082166623E-05
(PID.TID 0000.0001) %MON vort_p_sd                    =   9.3620744636294E-05
(PID.TID 0000.0001) %MON surfExpan_theta_mean         =  -4.2612087541675E-06
(PID.TID 0000.0001) %MON surfExpan_salt_mean          =  -4.9842985760590E-05
(PID.TID 0000.0001) // =======================================================
(PID.TID 0000.0001) // End MONITOR dynamic field statistics
(PID.TID 0000.0001) // =======================================================
(PID.TID 0000.0001) // =======================================================
(PID.TID 0000.0001) // Begin MONITOR SEAICE statistics
(PID.TID 0000.0001) // =======================================================
(PID.TID 0000.0001) %MON seaice_tsnumber              =                174923
(PID.TID 0000.0001) %MON seaice_time_sec              =   7.8715350000000E+07
(PID.TID 0000.0001) %MON seaice_uice_max              =   1.1795948937702E+00
(PID.TID 0000.0001) %MON seaice_uice_min              =  -1.3669169467376E+00
(PID.TID 0000.0001) %MON seaice_uice_mean             =   9.0906600384335E-03
(PID.TID 0000.0001) %MON seaice_uice_sd               =   1.5008773142302E-01
(PID.TID 0000.0001) %MON seaice_uice_del2             =   3.8883901563946E-04
(PID.TID 0000.0001) %MON seaice_vice_max              =   1.0279336871169E+00
(PID.TID 0000.0001) %MON seaice_vice_min              =  -1.5120234529843E+00
(PID.TID 0000.0001) %MON seaice_vice_mean             =  -1.8350599988141E-02
(PID.TID 0000.0001) %MON seaice_vice_sd               =   1.6315634154836E-01
(PID.TID 0000.0001) %MON seaice_vice_del2             =   3.8112501400924E-04
(PID.TID 0000.0001) %MON seaice_area_max              =   1.0011196033748E+00
(PID.TID 0000.0001) %MON seaice_area_min              =   0.0000000000000E+00
(PID.TID 0000.0001) %MON seaice_area_mean             =   5.7722129745212E-02
(PID.TID 0000.0001) %MON seaice_area_sd               =   2.2074946136583E-01
(PID.TID 0000.0001) %MON seaice_area_del2             =   2.8222870566533E-04
(PID.TID 0000.0001) %MON seaice_heff_max              =   9.9471592545212E+00
(PID.TID 0000.0001) %MON seaice_heff_min              =   0.0000000000000E+00
(PID.TID 0000.0001) %MON seaice_heff_mean             =   1.4920879403776E-01
(PID.TID 0000.0001) %MON seaice_heff_sd               =   7.1899691902606E-01
(PID.TID 0000.0001) %MON seaice_heff_del2             =   1.3074462566231E-03
(PID.TID 0000.0001) %MON seaice_hsnow_max             =   3.2855675901504E+00
(PID.TID 0000.0001) %MON seaice_hsnow_min             =   0.0000000000000E+00
(PID.TID 0000.0001) %MON seaice_hsnow_mean            =   1.2568899106023E-02
(PID.TID 0000.0001) %MON seaice_hsnow_sd              =   6.7162304875430E-02
(PID.TID 0000.0001) %MON seaice_hsnow_del2            =   3.4566109064365E-04
(PID.TID 0000.0001) // =======================================================
(PID.TID 0000.0001) // End MONITOR SEAICE statistics
(PID.TID 0000.0001) // =======================================================
(PID.TID 0000.0001) // =======================================================
(PID.TID 0000.0001) // Begin MONITOR dynamic field statistics
(PID.TID 0000.0001) // =======================================================
(PID.TID 0000.0001) %MON time_tsnumber                =                174924
(PID.TID 0000.0001) %MON time_secondsf                =   7.8715800000000E+07
(PID.TID 0000.0001) %MON dynstat_eta_max              =   2.7561976508682E+00
(PID.TID 0000.0001) %MON dynstat_eta_min              =  -1.0323197991768E+01
(PID.TID 0000.0001) %MON dynstat_eta_mean             =   8.2709242565342E-02
(PID.TID 0000.0001) %MON dynstat_eta_sd               =   1.0411524289702E+00
(PID.TID 0000.0001) %MON dynstat_eta_del2             =   2.0123606562468E-03
(PID.TID 0000.0001) %MON dynstat_uvel_max             =   1.3676817600575E+00
(PID.TID 0000.0001) %MON dynstat_uvel_min             =  -2.3351958954438E+00
(PID.TID 0000.0001) %MON dynstat_uvel_mean            =   6.5505434117277E-03
(PID.TID 0000.0001) %MON dynstat_uvel_sd              =   5.2190517970239E-02
(PID.TID 0000.0001) %MON dynstat_uvel_del2            =   4.7130926746746E-05
(PID.TID 0000.0001) %MON dynstat_vvel_max             =   1.9467335163423E+00
(PID.TID 0000.0001) %MON dynstat_vvel_min             =  -1.7288082913020E+00
(PID.TID 0000.0001) %MON dynstat_vvel_mean            =   1.8658964546950E-03
(PID.TID 0000.0001) %MON dynstat_vvel_sd              =   5.4116666883897E-02
(PID.TID 0000.0001) %MON dynstat_vvel_del2            =   4.5943521812678E-05
(PID.TID 0000.0001) %MON dynstat_wvel_max             =   1.2444042975173E-02
(PID.TID 0000.0001) %MON dynstat_wvel_min             =  -1.0711920556022E-02
(PID.TID 0000.0001) %MON dynstat_wvel_mean            =  -5.3868650523017E-07
(PID.TID 0000.0001) %MON dynstat_wvel_sd              =   2.0398463568338E-04
(PID.TID 0000.0001) %MON dynstat_wvel_del2            =   4.1424556842945E-07
(PID.TID 0000.0001) %MON dynstat_theta_max            =   3.2378121954680E+01
(PID.TID 0000.0001) %MON dynstat_theta_min            =  -2.0365446471252E+00
(PID.TID 0000.0001) %MON dynstat_theta_mean           =   3.5917551402878E+00
(PID.TID 0000.0001) %MON dynstat_theta_sd             =   4.4413245825750E+00
(PID.TID 0000.0001) %MON dynstat_theta_del2           =   1.3063062026693E-04
(PID.TID 0000.0001) %MON dynstat_salt_max             =   4.0655989278682E+01
(PID.TID 0000.0001) %MON dynstat_salt_min             =   1.5911133364224E+01
(PID.TID 0000.0001) %MON dynstat_salt_mean            =   3.4724783164832E+01
(PID.TID 0000.0001) %MON dynstat_salt_sd              =   3.7978474193513E-01
(PID.TID 0000.0001) %MON dynstat_salt_del2            =   6.1957252838873E-05
(PID.TID 0000.0001) %MON dynstat_sst_max              =   3.2378121954680E+01
(PID.TID 0000.0001) %MON dynstat_sst_min              =  -2.0365446471252E+00
(PID.TID 0000.0001) %MON dynstat_sst_mean             =   1.8174447332247E+01
(PID.TID 0000.0001) %MON dynstat_sst_sd               =   1.0211918229273E+01
(PID.TID 0000.0001) %MON dynstat_sst_del2             =   1.0908023004749E-03
(PID.TID 0000.0001) %MON dynstat_sss_max              =   3.9463899478657E+01
(PID.TID 0000.0001) %MON dynstat_sss_min              =   1.5911133364224E+01
(PID.TID 0000.0001) %MON dynstat_sss_mean             =   3.4640611924508E+01
(PID.TID 0000.0001) %MON dynstat_sss_sd               =   1.3047980156471E+00
(PID.TID 0000.0001) %MON dynstat_sss_del2             =   1.4674943771931E-03
(PID.TID 0000.0001) %MON forcing_qnet_max             =   1.2449963378906E+03
(PID.TID 0000.0001) %MON forcing_qnet_min             =  -2.3097377636432E+03
(PID.TID 0000.0001) %MON forcing_qnet_mean            =  -9.7314132505542E+00
(PID.TID 0000.0001) %MON forcing_qnet_sd              =   2.0531328965663E+02
(PID.TID 0000.0001) %MON forcing_qnet_del2            =   4.2139100511595E-01
(PID.TID 0000.0001) %MON forcing_qsw_max              =   0.0000000000000E+00
(PID.TID 0000.0001) %MON forcing_qsw_min              =  -1.1196673096896E+02
(PID.TID 0000.0001) %MON forcing_qsw_mean             =  -2.0385167428796E+01
(PID.TID 0000.0001) %MON forcing_qsw_sd               =   3.0039537830343E+01
(PID.TID 0000.0001) %MON forcing_qsw_del2             =   2.1814749472835E-02
(PID.TID 0000.0001) %MON forcing_empmr_max            =   2.3375922814012E-02
(PID.TID 0000.0001) %MON forcing_empmr_min            =  -5.3177729249001E-02
(PID.TID 0000.0001) %MON forcing_empmr_mean           =  -2.6622074633670E-06
(PID.TID 0000.0001) %MON forcing_empmr_sd             =   3.7728197683258E-04
(PID.TID 0000.0001) %MON forcing_empmr_del2           =   4.5407766886157E-06
(PID.TID 0000.0001) %MON forcing_fu_max               =   8.6866131424904E-01
(PID.TID 0000.0001) %MON forcing_fu_min               =  -1.2663683647552E+00
(PID.TID 0000.0001) %MON forcing_fu_mean              =   1.0734301996966E-02
(PID.TID 0000.0001) %MON forcing_fu_sd                =   1.2538759999129E-01
(PID.TID 0000.0001) %MON forcing_fu_del2              =   1.6462795511664E-04
(PID.TID 0000.0001) %MON forcing_fv_max               =   1.1474301815033E+00
(PID.TID 0000.0001) %MON forcing_fv_min               =  -1.2360966801643E+00
(PID.TID 0000.0001) %MON forcing_fv_mean              =   8.5768348237307E-04
(PID.TID 0000.0001) %MON forcing_fv_sd                =   1.2309907578035E-01
(PID.TID 0000.0001) %MON forcing_fv_del2              =   1.6372144682970E-04
(PID.TID 0000.0001) %MON trAdv_CFL_u_max              =   2.1473862284863E-02
(PID.TID 0000.0001) %MON trAdv_CFL_v_max              =   1.9817018953695E-02
(PID.TID 0000.0001) %MON trAdv_CFL_w_max              =   1.0054040177912E-01
(PID.TID 0000.0001) %MON advcfl_uvel_max              =   2.1761105106132E-02
(PID.TID 0000.0001) %MON advcfl_vvel_max              =   1.9753160964694E-02
(PID.TID 0000.0001) %MON advcfl_wvel_max              =   9.4721153672744E-02
(PID.TID 0000.0001) %MON advcfl_W_hf_max              =   1.0054040177912E-01
(PID.TID 0000.0001) %MON pe_b_mean                    =   2.5799167304053E-03
(PID.TID 0000.0001) %MON ke_max                       =   2.1754379533260E+00
(PID.TID 0000.0001) %MON ke_mean                      =   2.7479362721611E-03
(PID.TID 0000.0001) %MON ke_vol                       =   1.3350064351420E+18
(PID.TID 0000.0001) %MON vort_r_min                   =  -7.1061174219860E-05
(PID.TID 0000.0001) %MON vort_r_max                   =   7.7448346914257E-05
(PID.TID 0000.0001) %MON vort_a_mean                  =  -1.9725077174067E-05
(PID.TID 0000.0001) %MON vort_a_sd                    =   7.4543556943647E-05
(PID.TID 0000.0001) %MON vort_p_mean                  =  -2.1669082163176E-05
(PID.TID 0000.0001) %MON vort_p_sd                    =   9.3620789059561E-05
(PID.TID 0000.0001) %MON surfExpan_theta_mean         =  -5.9171091597190E-06
(PID.TID 0000.0001) %MON surfExpan_salt_mean          =  -5.1782020087176E-05
(PID.TID 0000.0001) // =======================================================
(PID.TID 0000.0001) // End MONITOR dynamic field statistics
(PID.TID 0000.0001) // =======================================================
(PID.TID 0000.0001) // =======================================================
(PID.TID 0000.0001) // Begin MONITOR SEAICE statistics
(PID.TID 0000.0001) // =======================================================
(PID.TID 0000.0001) %MON seaice_tsnumber              =                174924
(PID.TID 0000.0001) %MON seaice_time_sec              =   7.8715800000000E+07
(PID.TID 0000.0001) %MON seaice_uice_max              =   1.1811856917346E+00
(PID.TID 0000.0001) %MON seaice_uice_min              =  -1.3550397457727E+00
(PID.TID 0000.0001) %MON seaice_uice_mean             =   9.0529502893166E-03
(PID.TID 0000.0001) %MON seaice_uice_sd               =   1.5006949027703E-01
(PID.TID 0000.0001) %MON seaice_uice_del2             =   3.8930949559142E-04
(PID.TID 0000.0001) %MON seaice_vice_max              =   1.0311760181226E+00
(PID.TID 0000.0001) %MON seaice_vice_min              =  -1.5138100661060E+00
(PID.TID 0000.0001) %MON seaice_vice_mean             =  -1.8550660545114E-02
(PID.TID 0000.0001) %MON seaice_vice_sd               =   1.6329234286601E-01
(PID.TID 0000.0001) %MON seaice_vice_del2             =   3.8166459374978E-04
(PID.TID 0000.0001) %MON seaice_area_max              =   1.0011142883981E+00
(PID.TID 0000.0001) %MON seaice_area_min              =   0.0000000000000E+00
(PID.TID 0000.0001) %MON seaice_area_mean             =   5.7725723455685E-02
(PID.TID 0000.0001) %MON seaice_area_sd               =   2.2074997910799E-01
(PID.TID 0000.0001) %MON seaice_area_del2             =   2.8222576757585E-04
(PID.TID 0000.0001) %MON seaice_heff_max              =   9.9471525985182E+00
(PID.TID 0000.0001) %MON seaice_heff_min              =   0.0000000000000E+00
(PID.TID 0000.0001) %MON seaice_heff_mean             =   1.4920554683525E-01
(PID.TID 0000.0001) %MON seaice_heff_sd               =   7.1898425637738E-01
(PID.TID 0000.0001) %MON seaice_heff_del2             =   1.3068551442949E-03
(PID.TID 0000.0001) %MON seaice_hsnow_max             =   3.2855651473915E+00
(PID.TID 0000.0001) %MON seaice_hsnow_min             =   0.0000000000000E+00
(PID.TID 0000.0001) %MON seaice_hsnow_mean            =   1.2568093535627E-02
(PID.TID 0000.0001) %MON seaice_hsnow_sd              =   6.7151193024996E-02
(PID.TID 0000.0001) %MON seaice_hsnow_del2            =   3.4537935794263E-04
(PID.TID 0000.0001) // =======================================================
(PID.TID 0000.0001) // End MONITOR SEAICE statistics
(PID.TID 0000.0001) // =======================================================
(PID.TID 0000.0001) // =======================================================
(PID.TID 0000.0001) // Begin MONITOR dynamic field statistics
(PID.TID 0000.0001) // =======================================================
(PID.TID 0000.0001) %MON time_tsnumber                =                174925
(PID.TID 0000.0001) %MON time_secondsf                =   7.8716250000000E+07
(PID.TID 0000.0001) %MON dynstat_eta_max              =   2.7733830713135E+00
(PID.TID 0000.0001) %MON dynstat_eta_min              =  -1.0345477163964E+01
(PID.TID 0000.0001) %MON dynstat_eta_mean             =   8.1986502157444E-02
(PID.TID 0000.0001) %MON dynstat_eta_sd               =   1.0434264932125E+00
(PID.TID 0000.0001) %MON dynstat_eta_del2             =   2.0123652425882E-03
(PID.TID 0000.0001) %MON dynstat_uvel_max             =   1.3785471815114E+00
(PID.TID 0000.0001) %MON dynstat_uvel_min             =  -2.3364958982089E+00
(PID.TID 0000.0001) %MON dynstat_uvel_mean            =   6.5587969185349E-03
(PID.TID 0000.0001) %MON dynstat_uvel_sd              =   5.2435523701141E-02
(PID.TID 0000.0001) %MON dynstat_uvel_del2            =   4.7260349624480E-05
(PID.TID 0000.0001) %MON dynstat_vvel_max             =   1.9498446733493E+00
(PID.TID 0000.0001) %MON dynstat_vvel_min             =  -1.7266635175424E+00
(PID.TID 0000.0001) %MON dynstat_vvel_mean            =   1.8288236140055E-03
(PID.TID 0000.0001) %MON dynstat_vvel_sd              =   5.4416923704626E-02
(PID.TID 0000.0001) %MON dynstat_vvel_del2            =   4.6072884175737E-05
(PID.TID 0000.0001) %MON dynstat_wvel_max             =   1.2524521810834E-02
(PID.TID 0000.0001) %MON dynstat_wvel_min             =  -1.0747769690199E-02
(PID.TID 0000.0001) %MON dynstat_wvel_mean            =  -5.7247399962733E-07
(PID.TID 0000.0001) %MON dynstat_wvel_sd              =   2.0468381202568E-04
(PID.TID 0000.0001) %MON dynstat_wvel_del2            =   4.1525272626339E-07
(PID.TID 0000.0001) %MON dynstat_theta_max            =   3.2376205202867E+01
(PID.TID 0000.0001) %MON dynstat_theta_min            =  -2.0363624897143E+00
(PID.TID 0000.0001) %MON dynstat_theta_mean           =   3.5917563083121E+00
(PID.TID 0000.0001) %MON dynstat_theta_sd             =   4.4413290664483E+00
(PID.TID 0000.0001) %MON dynstat_theta_del2           =   1.3069383157109E-04
(PID.TID 0000.0001) %MON dynstat_salt_max             =   4.0655989278475E+01
(PID.TID 0000.0001) %MON dynstat_salt_min             =   1.5910746719645E+01
(PID.TID 0000.0001) %MON dynstat_salt_mean            =   3.4724782890012E+01
(PID.TID 0000.0001) %MON dynstat_salt_sd              =   3.7978594215034E-01
(PID.TID 0000.0001) %MON dynstat_salt_del2            =   6.1937468021002E-05
(PID.TID 0000.0001) %MON dynstat_sst_max              =   3.2376205202867E+01
(PID.TID 0000.0001) %MON dynstat_sst_min              =  -2.0363624897143E+00
(PID.TID 0000.0001) %MON dynstat_sst_mean             =   1.8174581612169E+01
(PID.TID 0000.0001) %MON dynstat_sst_sd               =   1.0212202100060E+01
(PID.TID 0000.0001) %MON dynstat_sst_del2             =   1.0907446717174E-03
(PID.TID 0000.0001) %MON dynstat_sss_max              =   3.9463932274928E+01
(PID.TID 0000.0001) %MON dynstat_sss_min              =   1.5910746719645E+01
(PID.TID 0000.0001) %MON dynstat_sss_mean             =   3.4640594046595E+01
(PID.TID 0000.0001) %MON dynstat_sss_sd               =   1.3048373023272E+00
(PID.TID 0000.0001) %MON dynstat_sss_del2             =   1.4678157233251E-03
(PID.TID 0000.0001) %MON forcing_qnet_max             =   3.1271833496094E+03
(PID.TID 0000.0001) %MON forcing_qnet_min             =  -2.1675263634767E+03
(PID.TID 0000.0001) %MON forcing_qnet_mean            =  -1.1825182283943E+01
(PID.TID 0000.0001) %MON forcing_qnet_sd              =   2.0796486888119E+02
(PID.TID 0000.0001) %MON forcing_qnet_del2            =   4.8860664530784E-01
(PID.TID 0000.0001) %MON forcing_qsw_max              =   0.0000000000000E+00
(PID.TID 0000.0001) %MON forcing_qsw_min              =  -1.1192101847638E+02
(PID.TID 0000.0001) %MON forcing_qsw_mean             =  -2.0683796220213E+01
(PID.TID 0000.0001) %MON forcing_qsw_sd               =   3.0446394542439E+01
(PID.TID 0000.0001) %MON forcing_qsw_del2             =   2.1503157446613E-02
(PID.TID 0000.0001) %MON forcing_empmr_max            =   1.8569065257907E-02
(PID.TID 0000.0001) %MON forcing_empmr_min            =  -6.1022710055113E-02
(PID.TID 0000.0001) %MON forcing_empmr_mean           =  -3.1694405494475E-06
(PID.TID 0000.0001) %MON forcing_empmr_sd             =   3.8308530494350E-04
(PID.TID 0000.0001) %MON forcing_empmr_del2           =   4.5452132650102E-06
(PID.TID 0000.0001) %MON forcing_fu_max               =   8.6715853214264E-01
(PID.TID 0000.0001) %MON forcing_fu_min               =  -1.2638717439407E+00
(PID.TID 0000.0001) %MON forcing_fu_mean              =   1.0732964492430E-02
(PID.TID 0000.0001) %MON forcing_fu_sd                =   1.2539778312741E-01
(PID.TID 0000.0001) %MON forcing_fu_del2              =   1.6459070455318E-04
(PID.TID 0000.0001) %MON forcing_fv_max               =   1.1441555023193E+00
(PID.TID 0000.0001) %MON forcing_fv_min               =  -1.2393255829811E+00
(PID.TID 0000.0001) %MON forcing_fv_mean              =   8.5805133661917E-04
(PID.TID 0000.0001) %MON forcing_fv_sd                =   1.2312184462625E-01
(PID.TID 0000.0001) %MON forcing_fv_del2              =   1.6383424055558E-04
(PID.TID 0000.0001) %MON trAdv_CFL_u_max              =   2.1428635759105E-02
(PID.TID 0000.0001) %MON trAdv_CFL_v_max              =   1.9755684349533E-02
(PID.TID 0000.0001) %MON trAdv_CFL_w_max              =   1.0034636942495E-01
(PID.TID 0000.0001) %MON advcfl_uvel_max              =   2.1715273612592E-02
(PID.TID 0000.0001) %MON advcfl_vvel_max              =   1.9692024004006E-02
(PID.TID 0000.0001) %MON advcfl_wvel_max              =   9.4527698040758E-02
(PID.TID 0000.0001) %MON advcfl_W_hf_max              =   1.0034636942495E-01
(PID.TID 0000.0001) %MON pe_b_mean                    =   2.5650823907913E-03
(PID.TID 0000.0001) %MON ke_max                       =   2.1730318480714E+00
(PID.TID 0000.0001) %MON ke_mean                      =   2.7759967750340E-03
(PID.TID 0000.0001) %MON ke_vol                       =   1.3350064351420E+18
(PID.TID 0000.0001) %MON vort_r_min                   =  -7.1124626810947E-05
(PID.TID 0000.0001) %MON vort_r_max                   =   7.7281340962267E-05
(PID.TID 0000.0001) %MON vort_a_mean                  =  -1.9725077171557E-05
(PID.TID 0000.0001) %MON vort_a_sd                    =   7.4543611016116E-05
(PID.TID 0000.0001) %MON vort_p_mean                  =  -2.1669082160418E-05
(PID.TID 0000.0001) %MON vort_p_sd                    =   9.3620833394942E-05
(PID.TID 0000.0001) %MON surfExpan_theta_mean         =  -7.5893614070676E-06
(PID.TID 0000.0001) %MON surfExpan_salt_mean          =  -5.3677185583000E-05
(PID.TID 0000.0001) // =======================================================
(PID.TID 0000.0001) // End MONITOR dynamic field statistics
(PID.TID 0000.0001) // =======================================================
(PID.TID 0000.0001) // =======================================================
(PID.TID 0000.0001) // Begin MONITOR SEAICE statistics
(PID.TID 0000.0001) // =======================================================
(PID.TID 0000.0001) %MON seaice_tsnumber              =                174925
(PID.TID 0000.0001) %MON seaice_time_sec              =   7.8716250000000E+07
(PID.TID 0000.0001) %MON seaice_uice_max              =   1.1864902711248E+00
(PID.TID 0000.0001) %MON seaice_uice_min              =  -1.3431958537155E+00
(PID.TID 0000.0001) %MON seaice_uice_mean             =   9.0150763268996E-03
(PID.TID 0000.0001) %MON seaice_uice_sd               =   1.5004837394746E-01
(PID.TID 0000.0001) %MON seaice_uice_del2             =   3.8975516107326E-04
(PID.TID 0000.0001) %MON seaice_vice_max              =   1.0344145965187E+00
(PID.TID 0000.0001) %MON seaice_vice_min              =  -1.5155614737459E+00
(PID.TID 0000.0001) %MON seaice_vice_mean             =  -1.8747993638903E-02
(PID.TID 0000.0001) %MON seaice_vice_sd               =   1.6342894931458E-01
(PID.TID 0000.0001) %MON seaice_vice_del2             =   3.8219665388093E-04
(PID.TID 0000.0001) %MON seaice_area_max              =   1.0011086951649E+00
(PID.TID 0000.0001) %MON seaice_area_min              =   0.0000000000000E+00
(PID.TID 0000.0001) %MON seaice_area_mean             =   5.7729249534610E-02
(PID.TID 0000.0001) %MON seaice_area_sd               =   2.2075018019985E-01
(PID.TID 0000.0001) %MON seaice_area_del2             =   2.8221902694433E-04
(PID.TID 0000.0001) %MON seaice_heff_max              =   9.9471459422207E+00
(PID.TID 0000.0001) %MON seaice_heff_min              =   0.0000000000000E+00
(PID.TID 0000.0001) %MON seaice_heff_mean             =   1.4920229642747E-01
(PID.TID 0000.0001) %MON seaice_heff_sd               =   7.1897153308126E-01
(PID.TID 0000.0001) %MON seaice_heff_del2             =   1.3062629427108E-03
(PID.TID 0000.0001) %MON seaice_hsnow_max             =   3.2855631794929E+00
(PID.TID 0000.0001) %MON seaice_hsnow_min             =   0.0000000000000E+00
(PID.TID 0000.0001) %MON seaice_hsnow_mean            =   1.2567313205578E-02
(PID.TID 0000.0001) %MON seaice_hsnow_sd              =   6.7140157572356E-02
(PID.TID 0000.0001) %MON seaice_hsnow_del2            =   3.4509864567497E-04
(PID.TID 0000.0001) // =======================================================
(PID.TID 0000.0001) // End MONITOR SEAICE statistics
(PID.TID 0000.0001) // =======================================================
(PID.TID 0000.0001) // =======================================================
(PID.TID 0000.0001) // Begin MONITOR dynamic field statistics
(PID.TID 0000.0001) // =======================================================
(PID.TID 0000.0001) %MON time_tsnumber                =                174926
(PID.TID 0000.0001) %MON time_secondsf                =   7.8716700000000E+07
(PID.TID 0000.0001) %MON dynstat_eta_max              =   2.7894984428338E+00
(PID.TID 0000.0001) %MON dynstat_eta_min              =  -1.0367245904261E+01
(PID.TID 0000.0001) %MON dynstat_eta_mean             =   8.1241424091527E-02
(PID.TID 0000.0001) %MON dynstat_eta_sd               =   1.0456865520926E+00
(PID.TID 0000.0001) %MON dynstat_eta_del2             =   2.0123711472934E-03
(PID.TID 0000.0001) %MON dynstat_uvel_max             =   1.3893067594888E+00
(PID.TID 0000.0001) %MON dynstat_uvel_min             =  -2.3376522062383E+00
(PID.TID 0000.0001) %MON dynstat_uvel_mean            =   6.5688616857120E-03
(PID.TID 0000.0001) %MON dynstat_uvel_sd              =   5.2681445142206E-02
(PID.TID 0000.0001) %MON dynstat_uvel_del2            =   4.7390539571615E-05
(PID.TID 0000.0001) %MON dynstat_vvel_max             =   1.9547903547949E+00
(PID.TID 0000.0001) %MON dynstat_vvel_min             =  -1.7250338787112E+00
(PID.TID 0000.0001) %MON dynstat_vvel_mean            =   1.7931404416214E-03
(PID.TID 0000.0001) %MON dynstat_vvel_sd              =   5.4718416165438E-02
(PID.TID 0000.0001) %MON dynstat_vvel_del2            =   4.6202751800151E-05
(PID.TID 0000.0001) %MON dynstat_wvel_max             =   1.2604081917326E-02
(PID.TID 0000.0001) %MON dynstat_wvel_min             =  -1.0784223953195E-02
(PID.TID 0000.0001) %MON dynstat_wvel_mean            =  -6.0531071070840E-07
(PID.TID 0000.0001) %MON dynstat_wvel_sd              =   2.0538157770672E-04
(PID.TID 0000.0001) %MON dynstat_wvel_del2            =   4.1625319725438E-07
(PID.TID 0000.0001) %MON dynstat_theta_max            =   3.2374375839207E+01
(PID.TID 0000.0001) %MON dynstat_theta_min            =  -2.0361762832740E+00
(PID.TID 0000.0001) %MON dynstat_theta_mean           =   3.5917577154147E+00
(PID.TID 0000.0001) %MON dynstat_theta_sd             =   4.4413341468479E+00
(PID.TID 0000.0001) %MON dynstat_theta_del2           =   1.3075738090271E-04
(PID.TID 0000.0001) %MON dynstat_salt_max             =   4.0655989278268E+01
(PID.TID 0000.0001) %MON dynstat_salt_min             =   1.5910362392180E+01
(PID.TID 0000.0001) %MON dynstat_salt_mean            =   3.4724782634393E+01
(PID.TID 0000.0001) %MON dynstat_salt_sd              =   3.7978713564957E-01
(PID.TID 0000.0001) %MON dynstat_salt_del2            =   6.1918137593995E-05
(PID.TID 0000.0001) %MON dynstat_sst_max              =   3.2374375839207E+01
(PID.TID 0000.0001) %MON dynstat_sst_min              =  -2.0361762832740E+00
(PID.TID 0000.0001) %MON dynstat_sst_mean             =   1.8174738193313E+01
(PID.TID 0000.0001) %MON dynstat_sst_sd               =   1.0212497830643E+01
(PID.TID 0000.0001) %MON dynstat_sst_del2             =   1.0907107663398E-03
(PID.TID 0000.0001) %MON dynstat_sss_max              =   3.9463965891174E+01
(PID.TID 0000.0001) %MON dynstat_sss_min              =   1.5910362392180E+01
(PID.TID 0000.0001) %MON dynstat_sss_mean             =   3.4640576861565E+01
(PID.TID 0000.0001) %MON dynstat_sss_sd               =   1.3048773508662E+00
(PID.TID 0000.0001) %MON dynstat_sss_del2             =   1.4681723494928E-03
(PID.TID 0000.0001) %MON forcing_qnet_max             =   1.1389287109375E+03
(PID.TID 0000.0001) %MON forcing_qnet_min             =  -1.7859203818804E+03
(PID.TID 0000.0001) %MON forcing_qnet_mean            =  -1.3225378314905E+01
(PID.TID 0000.0001) %MON forcing_qnet_sd              =   2.0749647285401E+02
(PID.TID 0000.0001) %MON forcing_qnet_del2            =   4.0660076256555E-01
(PID.TID 0000.0001) %MON forcing_qsw_max              =   0.0000000000000E+00
(PID.TID 0000.0001) %MON forcing_qsw_min              =  -1.1190037766249E+02
(PID.TID 0000.0001) %MON forcing_qsw_mean             =  -2.0797417864869E+01
(PID.TID 0000.0001) %MON forcing_qsw_sd               =   3.0575338515278E+01
(PID.TID 0000.0001) %MON forcing_qsw_del2             =   2.1484240662985E-02
(PID.TID 0000.0001) %MON forcing_empmr_max            =   1.6481662169099E-02
(PID.TID 0000.0001) %MON forcing_empmr_min            =  -6.9115176796913E-02
(PID.TID 0000.0001) %MON forcing_empmr_mean           =  -3.0269046888951E-06
(PID.TID 0000.0001) %MON forcing_empmr_sd             =   3.9265563755898E-04
(PID.TID 0000.0001) %MON forcing_empmr_del2           =   4.6354806661794E-06
(PID.TID 0000.0001) %MON forcing_fu_max               =   8.6313197016716E-01
(PID.TID 0000.0001) %MON forcing_fu_min               =  -1.2620055449832E+00
(PID.TID 0000.0001) %MON forcing_fu_mean              =   1.0724574177113E-02
(PID.TID 0000.0001) %MON forcing_fu_sd                =   1.2538009747029E-01
(PID.TID 0000.0001) %MON forcing_fu_del2              =   1.6458034484080E-04
(PID.TID 0000.0001) %MON forcing_fv_max               =   1.1403639316559E+00
(PID.TID 0000.0001) %MON forcing_fv_min               =  -1.2392715215683E+00
(PID.TID 0000.0001) %MON forcing_fv_mean              =   8.6572883487710E-04
(PID.TID 0000.0001) %MON forcing_fv_sd                =   1.2314467477127E-01
(PID.TID 0000.0001) %MON forcing_fv_del2              =   1.6405696798832E-04
(PID.TID 0000.0001) %MON trAdv_CFL_u_max              =   2.1382681098483E-02
(PID.TID 0000.0001) %MON trAdv_CFL_v_max              =   1.9695492997112E-02
(PID.TID 0000.0001) %MON trAdv_CFL_w_max              =   1.0017084103234E-01
(PID.TID 0000.0001) %MON advcfl_uvel_max              =   2.1668704244369E-02
(PID.TID 0000.0001) %MON advcfl_vvel_max              =   1.9632026611067E-02
(PID.TID 0000.0001) %MON advcfl_wvel_max              =   9.4353495418875E-02
(PID.TID 0000.0001) %MON advcfl_W_hf_max              =   1.0017084103234E-01
(PID.TID 0000.0001) %MON pe_b_mean                    =   2.5496132207185E-03
(PID.TID 0000.0001) %MON ke_max                       =   2.1704265149299E+00
(PID.TID 0000.0001) %MON ke_mean                      =   2.8043291074203E-03
(PID.TID 0000.0001) %MON ke_vol                       =   1.3350064351420E+18
(PID.TID 0000.0001) %MON vort_r_min                   =  -7.1185216555684E-05
(PID.TID 0000.0001) %MON vort_r_max                   =   7.7111053660903E-05
(PID.TID 0000.0001) %MON vort_a_mean                  =  -1.9725077169180E-05
(PID.TID 0000.0001) %MON vort_a_sd                    =   7.4543665937636E-05
(PID.TID 0000.0001) %MON vort_p_mean                  =  -2.1669082157806E-05
(PID.TID 0000.0001) %MON vort_p_sd                    =   9.3620877600512E-05
(PID.TID 0000.0001) %MON surfExpan_theta_mean         =  -9.2735279814925E-06
(PID.TID 0000.0001) %MON surfExpan_salt_mean          =  -5.5508412087317E-05
(PID.TID 0000.0001) // =======================================================
(PID.TID 0000.0001) // End MONITOR dynamic field statistics
(PID.TID 0000.0001) // =======================================================
(PID.TID 0000.0001) // =======================================================
(PID.TID 0000.0001) // Begin MONITOR SEAICE statistics
(PID.TID 0000.0001) // =======================================================
(PID.TID 0000.0001) %MON seaice_tsnumber              =                174926
(PID.TID 0000.0001) %MON seaice_time_sec              =   7.8716700000000E+07
(PID.TID 0000.0001) %MON seaice_uice_max              =   1.1919901023015E+00
(PID.TID 0000.0001) %MON seaice_uice_min              =  -1.3314306187919E+00
(PID.TID 0000.0001) %MON seaice_uice_mean             =   8.9782322094222E-03
(PID.TID 0000.0001) %MON seaice_uice_sd               =   1.5001779907668E-01
(PID.TID 0000.0001) %MON seaice_uice_del2             =   3.9022460692397E-04
(PID.TID 0000.0001) %MON seaice_vice_max              =   1.0376321943383E+00
(PID.TID 0000.0001) %MON seaice_vice_min              =  -1.5172772219849E+00
(PID.TID 0000.0001) %MON seaice_vice_mean             =  -1.8952799905131E-02
(PID.TID 0000.0001) %MON seaice_vice_sd               =   1.6356950170835E-01
(PID.TID 0000.0001) %MON seaice_vice_del2             =   3.8270603369280E-04
(PID.TID 0000.0001) %MON seaice_area_max              =   1.0011134811380E+00
(PID.TID 0000.0001) %MON seaice_area_min              =   0.0000000000000E+00
(PID.TID 0000.0001) %MON seaice_area_mean             =   5.7732821176167E-02
(PID.TID 0000.0001) %MON seaice_area_sd               =   2.2075042952722E-01
(PID.TID 0000.0001) %MON seaice_area_del2             =   2.8221184181496E-04
(PID.TID 0000.0001) %MON seaice_heff_max              =   9.9471411931611E+00
(PID.TID 0000.0001) %MON seaice_heff_min              =   0.0000000000000E+00
(PID.TID 0000.0001) %MON seaice_heff_mean             =   1.4919905601079E-01
(PID.TID 0000.0001) %MON seaice_heff_sd               =   7.1895875078880E-01
(PID.TID 0000.0001) %MON seaice_heff_del2             =   1.3056706554414E-03
(PID.TID 0000.0001) %MON seaice_hsnow_max             =   3.2855614618171E+00
(PID.TID 0000.0001) %MON seaice_hsnow_min             =   0.0000000000000E+00
(PID.TID 0000.0001) %MON seaice_hsnow_mean            =   1.2566530639475E-02
(PID.TID 0000.0001) %MON seaice_hsnow_sd              =   6.7129068790048E-02
(PID.TID 0000.0001) %MON seaice_hsnow_del2            =   3.4481897211658E-04
(PID.TID 0000.0001) // =======================================================
(PID.TID 0000.0001) // End MONITOR SEAICE statistics
(PID.TID 0000.0001) // =======================================================
(PID.TID 0000.0001) // =======================================================
(PID.TID 0000.0001) // Begin MONITOR dynamic field statistics
(PID.TID 0000.0001) // =======================================================
(PID.TID 0000.0001) %MON time_tsnumber                =                174927
(PID.TID 0000.0001) %MON time_secondsf                =   7.8717150000000E+07
(PID.TID 0000.0001) %MON dynstat_eta_max              =   2.8044923024752E+00
(PID.TID 0000.0001) %MON dynstat_eta_min              =  -1.0388450973249E+01
(PID.TID 0000.0001) %MON dynstat_eta_mean             =   8.0474883431009E-02
(PID.TID 0000.0001) %MON dynstat_eta_sd               =   1.0479314457545E+00
(PID.TID 0000.0001) %MON dynstat_eta_del2             =   2.0123822880174E-03
(PID.TID 0000.0001) %MON dynstat_uvel_max             =   1.3999608178585E+00
(PID.TID 0000.0001) %MON dynstat_uvel_min             =  -2.3386680973997E+00
(PID.TID 0000.0001) %MON dynstat_uvel_mean            =   6.5806097831413E-03
(PID.TID 0000.0001) %MON dynstat_uvel_sd              =   5.2928231672608E-02
(PID.TID 0000.0001) %MON dynstat_uvel_del2            =   4.7521096572227E-05
(PID.TID 0000.0001) %MON dynstat_vvel_max             =   1.9597615823685E+00
(PID.TID 0000.0001) %MON dynstat_vvel_min             =  -1.7230351870497E+00
(PID.TID 0000.0001) %MON dynstat_vvel_mean            =   1.7588816732067E-03
(PID.TID 0000.0001) %MON dynstat_vvel_sd              =   5.5021058633439E-02
(PID.TID 0000.0001) %MON dynstat_vvel_del2            =   4.6332885146856E-05
(PID.TID 0000.0001) %MON dynstat_wvel_max             =   1.2682699210067E-02
(PID.TID 0000.0001) %MON dynstat_wvel_min             =  -1.0821276855589E-02
(PID.TID 0000.0001) %MON dynstat_wvel_mean            =  -6.3746506125266E-07
(PID.TID 0000.0001) %MON dynstat_wvel_sd              =   2.0607756777023E-04
(PID.TID 0000.0001) %MON dynstat_wvel_del2            =   4.1724666502485E-07
(PID.TID 0000.0001) %MON dynstat_theta_max            =   3.2372636942278E+01
(PID.TID 0000.0001) %MON dynstat_theta_min            =  -2.0359810311907E+00
(PID.TID 0000.0001) %MON dynstat_theta_mean           =   3.5917593342019E+00
(PID.TID 0000.0001) %MON dynstat_theta_sd             =   4.4413396892100E+00
(PID.TID 0000.0001) %MON dynstat_theta_del2           =   1.3082141664788E-04
(PID.TID 0000.0001) %MON dynstat_salt_max             =   4.0655989278061E+01
(PID.TID 0000.0001) %MON dynstat_salt_min             =   1.5909979756634E+01
(PID.TID 0000.0001) %MON dynstat_salt_mean            =   3.4724782395645E+01
(PID.TID 0000.0001) %MON dynstat_salt_sd              =   3.7978833129306E-01
(PID.TID 0000.0001) %MON dynstat_salt_del2            =   6.1899652879411E-05
(PID.TID 0000.0001) %MON dynstat_sst_max              =   3.2372636942278E+01
(PID.TID 0000.0001) %MON dynstat_sst_min              =  -2.0359810311907E+00
(PID.TID 0000.0001) %MON dynstat_sst_mean             =   1.8174885359065E+01
(PID.TID 0000.0001) %MON dynstat_sst_sd               =   1.0212788028204E+01
(PID.TID 0000.0001) %MON dynstat_sst_del2             =   1.0906997962846E-03
(PID.TID 0000.0001) %MON dynstat_sss_max              =   3.9463999452984E+01
(PID.TID 0000.0001) %MON dynstat_sss_min              =   1.5909979756634E+01
(PID.TID 0000.0001) %MON dynstat_sss_mean             =   3.4640560566332E+01
(PID.TID 0000.0001) %MON dynstat_sss_sd               =   1.3049167141767E+00
(PID.TID 0000.0001) %MON dynstat_sss_del2             =   1.4685563179730E-03
(PID.TID 0000.0001) %MON forcing_qnet_max             =   1.4641231689453E+03
(PID.TID 0000.0001) %MON forcing_qnet_min             =  -1.7265436679704E+03
(PID.TID 0000.0001) %MON forcing_qnet_mean            =  -1.3681634570928E+01
(PID.TID 0000.0001) %MON forcing_qnet_sd              =   2.0809908856708E+02
(PID.TID 0000.0001) %MON forcing_qnet_del2            =   4.0869453367379E-01
(PID.TID 0000.0001) %MON forcing_qsw_max              =   0.0000000000000E+00
(PID.TID 0000.0001) %MON forcing_qsw_min              =  -1.1182651955311E+02
(PID.TID 0000.0001) %MON forcing_qsw_mean             =  -2.0898144670963E+01
(PID.TID 0000.0001) %MON forcing_qsw_sd               =   3.0696750305467E+01
(PID.TID 0000.0001) %MON forcing_qsw_del2             =   2.1458777088934E-02
(PID.TID 0000.0001) %MON forcing_empmr_max            =   1.7557777464390E-02
(PID.TID 0000.0001) %MON forcing_empmr_min            =  -7.7017493546009E-02
(PID.TID 0000.0001) %MON forcing_empmr_mean           =  -3.3138247623138E-06
(PID.TID 0000.0001) %MON forcing_empmr_sd             =   4.0081962012483E-04
(PID.TID 0000.0001) %MON forcing_empmr_del2           =   4.7361726363866E-06
(PID.TID 0000.0001) %MON forcing_fu_max               =   8.6188301444054E-01
(PID.TID 0000.0001) %MON forcing_fu_min               =  -1.2566238607972E+00
(PID.TID 0000.0001) %MON forcing_fu_mean              =   1.0711644166548E-02
(PID.TID 0000.0001) %MON forcing_fu_sd                =   1.2538725835931E-01
(PID.TID 0000.0001) %MON forcing_fu_del2              =   1.6452997677336E-04
(PID.TID 0000.0001) %MON forcing_fv_max               =   1.1380512118340E+00
(PID.TID 0000.0001) %MON forcing_fv_min               =  -1.2412058115005E+00
(PID.TID 0000.0001) %MON forcing_fv_mean              =   8.6542717584573E-04
(PID.TID 0000.0001) %MON forcing_fv_sd                =   1.2318958724372E-01
(PID.TID 0000.0001) %MON forcing_fv_del2              =   1.6435922530026E-04
(PID.TID 0000.0001) %MON trAdv_CFL_u_max              =   2.1336011928147E-02
(PID.TID 0000.0001) %MON trAdv_CFL_v_max              =   1.9636937047152E-02
(PID.TID 0000.0001) %MON trAdv_CFL_w_max              =   1.0000943430432E-01
(PID.TID 0000.0001) %MON advcfl_uvel_max              =   2.1621410808869E-02
(PID.TID 0000.0001) %MON advcfl_vvel_max              =   1.9573659350699E-02
(PID.TID 0000.0001) %MON advcfl_wvel_max              =   9.4193912858664E-02
(PID.TID 0000.0001) %MON advcfl_W_hf_max              =   1.0000943430432E-01
(PID.TID 0000.0001) %MON pe_b_mean                    =   2.5335304412139E-03
(PID.TID 0000.0001) %MON ke_max                       =   2.1676331219574E+00
(PID.TID 0000.0001) %MON ke_mean                      =   2.8329270271880E-03
(PID.TID 0000.0001) %MON ke_vol                       =   1.3350064351420E+18
(PID.TID 0000.0001) %MON vort_r_min                   =  -7.1242970205353E-05
(PID.TID 0000.0001) %MON vort_r_max                   =   7.6937446117263E-05
(PID.TID 0000.0001) %MON vort_a_mean                  =  -1.9725077166749E-05
(PID.TID 0000.0001) %MON vort_a_sd                    =   7.4543721681454E-05
(PID.TID 0000.0001) %MON vort_p_mean                  =  -2.1669082155136E-05
(PID.TID 0000.0001) %MON vort_p_sd                    =   9.3620921602043E-05
(PID.TID 0000.0001) %MON surfExpan_theta_mean         =  -1.0975331034169E-05
(PID.TID 0000.0001) %MON surfExpan_salt_mean          =  -5.7293833953863E-05
(PID.TID 0000.0001) // =======================================================
(PID.TID 0000.0001) // End MONITOR dynamic field statistics
(PID.TID 0000.0001) // =======================================================
(PID.TID 0000.0001) // =======================================================
(PID.TID 0000.0001) // Begin MONITOR SEAICE statistics
(PID.TID 0000.0001) // =======================================================
(PID.TID 0000.0001) %MON seaice_tsnumber              =                174927
(PID.TID 0000.0001) %MON seaice_time_sec              =   7.8717150000000E+07
(PID.TID 0000.0001) %MON seaice_uice_max              =   1.1976476416733E+00
(PID.TID 0000.0001) %MON seaice_uice_min              =  -1.3197890392259E+00
(PID.TID 0000.0001) %MON seaice_uice_mean             =   8.9365811625289E-03
(PID.TID 0000.0001) %MON seaice_uice_sd               =   1.4999729608300E-01
(PID.TID 0000.0001) %MON seaice_uice_del2             =   3.9067931796872E-04
(PID.TID 0000.0001) %MON seaice_vice_max              =   1.0408147791661E+00
(PID.TID 0000.0001) %MON seaice_vice_min              =  -1.5189549509367E+00
(PID.TID 0000.0001) %MON seaice_vice_mean             =  -1.9152331420680E-02
(PID.TID 0000.0001) %MON seaice_vice_sd               =   1.6371922615090E-01
(PID.TID 0000.0001) %MON seaice_vice_del2             =   3.8326206754769E-04
(PID.TID 0000.0001) %MON seaice_area_max              =   1.0011198775886E+00
(PID.TID 0000.0001) %MON seaice_area_min              =   0.0000000000000E+00
(PID.TID 0000.0001) %MON seaice_area_mean             =   5.7736451894489E-02
(PID.TID 0000.0001) %MON seaice_area_sd               =   2.2075078814122E-01
(PID.TID 0000.0001) %MON seaice_area_del2             =   2.8220467471523E-04
(PID.TID 0000.0001) %MON seaice_heff_max              =   9.9471364434090E+00
(PID.TID 0000.0001) %MON seaice_heff_min              =   0.0000000000000E+00
(PID.TID 0000.0001) %MON seaice_heff_mean             =   1.4919583008971E-01
(PID.TID 0000.0001) %MON seaice_heff_sd               =   7.1894592627200E-01
(PID.TID 0000.0001) %MON seaice_heff_del2             =   1.3050767365976E-03
(PID.TID 0000.0001) %MON seaice_hsnow_max             =   3.2855599828493E+00
(PID.TID 0000.0001) %MON seaice_hsnow_min             =   0.0000000000000E+00
(PID.TID 0000.0001) %MON seaice_hsnow_mean            =   1.2565759929350E-02
(PID.TID 0000.0001) %MON seaice_hsnow_sd              =   6.7118060720240E-02
(PID.TID 0000.0001) %MON seaice_hsnow_del2            =   3.4454008043135E-04
(PID.TID 0000.0001) // =======================================================
(PID.TID 0000.0001) // End MONITOR SEAICE statistics
(PID.TID 0000.0001) // =======================================================
(PID.TID 0000.0001) // =======================================================
(PID.TID 0000.0001) // Begin MONITOR dynamic field statistics
(PID.TID 0000.0001) // =======================================================
(PID.TID 0000.0001) %MON time_tsnumber                =                174928
(PID.TID 0000.0001) %MON time_secondsf                =   7.8717600000000E+07
(PID.TID 0000.0001) %MON dynstat_eta_max              =   2.8183252698431E+00
(PID.TID 0000.0001) %MON dynstat_eta_min              =  -1.0409030426045E+01
(PID.TID 0000.0001) %MON dynstat_eta_mean             =   7.9687500323957E-02
(PID.TID 0000.0001) %MON dynstat_eta_sd               =   1.0501597572541E+00
(PID.TID 0000.0001) %MON dynstat_eta_del2             =   2.0123953604976E-03
(PID.TID 0000.0001) %MON dynstat_uvel_max             =   1.4105099291253E+00
(PID.TID 0000.0001) %MON dynstat_uvel_min             =  -2.3395478342883E+00
(PID.TID 0000.0001) %MON dynstat_uvel_mean            =   6.5938860064640E-03
(PID.TID 0000.0001) %MON dynstat_uvel_sd              =   5.3175941708992E-02
(PID.TID 0000.0001) %MON dynstat_uvel_del2            =   4.7652146706266E-05
(PID.TID 0000.0001) %MON dynstat_vvel_max             =   1.9647561232993E+00
(PID.TID 0000.0001) %MON dynstat_vvel_min             =  -1.7209192873740E+00
(PID.TID 0000.0001) %MON dynstat_vvel_mean            =   1.7260844067321E-03
(PID.TID 0000.0001) %MON dynstat_vvel_sd              =   5.5324829613179E-02
(PID.TID 0000.0001) %MON dynstat_vvel_del2            =   4.6463344724631E-05
(PID.TID 0000.0001) %MON dynstat_wvel_max             =   1.2760341714195E-02
(PID.TID 0000.0001) %MON dynstat_wvel_min             =  -1.0858938253815E-02
(PID.TID 0000.0001) %MON dynstat_wvel_mean            =  -6.6895355606843E-07
(PID.TID 0000.0001) %MON dynstat_wvel_sd              =   2.0677139591496E-04
(PID.TID 0000.0001) %MON dynstat_wvel_del2            =   4.1823352544181E-07
(PID.TID 0000.0001) %MON dynstat_theta_max            =   3.2370999698252E+01
(PID.TID 0000.0001) %MON dynstat_theta_min            =  -2.0357713185762E+00
(PID.TID 0000.0001) %MON dynstat_theta_mean           =   3.5917611706814E+00
(PID.TID 0000.0001) %MON dynstat_theta_sd             =   4.4413457203145E+00
(PID.TID 0000.0001) %MON dynstat_theta_del2           =   1.3088591184827E-04
(PID.TID 0000.0001) %MON dynstat_salt_max             =   4.0655989277853E+01
(PID.TID 0000.0001) %MON dynstat_salt_min             =   1.5909598568417E+01
(PID.TID 0000.0001) %MON dynstat_salt_mean            =   3.4724782171695E+01
(PID.TID 0000.0001) %MON dynstat_salt_sd              =   3.7978953343783E-01
(PID.TID 0000.0001) %MON dynstat_salt_del2            =   6.1881681912035E-05
(PID.TID 0000.0001) %MON dynstat_sst_max              =   3.2370999698252E+01
(PID.TID 0000.0001) %MON dynstat_sst_min              =  -2.0357713185762E+00
(PID.TID 0000.0001) %MON dynstat_sst_mean             =   1.8175040637821E+01
(PID.TID 0000.0001) %MON dynstat_sst_sd               =   1.0213083639079E+01
(PID.TID 0000.0001) %MON dynstat_sst_del2             =   1.0907212598292E-03
(PID.TID 0000.0001) %MON dynstat_sss_max              =   3.9464033266975E+01
(PID.TID 0000.0001) %MON dynstat_sss_min              =   1.5909598568417E+01
(PID.TID 0000.0001) %MON dynstat_sss_mean             =   3.4640542690109E+01
(PID.TID 0000.0001) %MON dynstat_sss_sd               =   1.3049579763387E+00
(PID.TID 0000.0001) %MON dynstat_sss_del2             =   1.4689677230556E-03
(PID.TID 0000.0001) %MON forcing_qnet_max             =   3.1243662109375E+03
(PID.TID 0000.0001) %MON forcing_qnet_min             =  -1.5050442761597E+03
(PID.TID 0000.0001) %MON forcing_qnet_mean            =  -1.4265340244774E+01
(PID.TID 0000.0001) %MON forcing_qnet_sd              =   2.0935852921919E+02
(PID.TID 0000.0001) %MON forcing_qnet_del2            =   4.6235626381161E-01
(PID.TID 0000.0001) %MON forcing_qsw_max              =   0.0000000000000E+00
(PID.TID 0000.0001) %MON forcing_qsw_min              =  -1.1169573165405E+02
(PID.TID 0000.0001) %MON forcing_qsw_mean             =  -2.0986303595700E+01
(PID.TID 0000.0001) %MON forcing_qsw_sd               =   3.0809930881079E+01
(PID.TID 0000.0001) %MON forcing_qsw_del2             =   2.1426942961714E-02
(PID.TID 0000.0001) %MON forcing_empmr_max            =   1.9398886710405E-02
(PID.TID 0000.0001) %MON forcing_empmr_min            =  -8.0915853381157E-02
(PID.TID 0000.0001) %MON forcing_empmr_mean           =  -3.3804308787633E-06
(PID.TID 0000.0001) %MON forcing_empmr_sd             =   4.1121131664436E-04
(PID.TID 0000.0001) %MON forcing_empmr_del2           =   4.8566826064255E-06
(PID.TID 0000.0001) %MON forcing_fu_max               =   8.6078730225563E-01
(PID.TID 0000.0001) %MON forcing_fu_min               =  -1.2541195682539E+00
(PID.TID 0000.0001) %MON forcing_fu_mean              =   1.0700713663819E-02
(PID.TID 0000.0001) %MON forcing_fu_sd                =   1.2535917931137E-01
(PID.TID 0000.0001) %MON forcing_fu_del2              =   1.6442048528427E-04
(PID.TID 0000.0001) %MON forcing_fv_max               =   1.1371625661850E+00
(PID.TID 0000.0001) %MON forcing_fv_min               =  -1.2448630928993E+00
(PID.TID 0000.0001) %MON forcing_fv_mean              =   8.7708397116248E-04
(PID.TID 0000.0001) %MON forcing_fv_sd                =   1.2327170746450E-01
(PID.TID 0000.0001) %MON forcing_fv_del2              =   1.6450165524372E-04
(PID.TID 0000.0001) %MON trAdv_CFL_u_max              =   2.1288658317444E-02
(PID.TID 0000.0001) %MON trAdv_CFL_v_max              =   1.9580487237118E-02
(PID.TID 0000.0001) %MON trAdv_CFL_w_max              =   9.9857861604561E-02
(PID.TID 0000.0001) %MON advcfl_uvel_max              =   2.1573423777659E-02
(PID.TID 0000.0001) %MON advcfl_vvel_max              =   1.9517391443470E-02
(PID.TID 0000.0001) %MON advcfl_wvel_max              =   9.4044537821521E-02
(PID.TID 0000.0001) %MON advcfl_W_hf_max              =   9.9857861604561E-02
(PID.TID 0000.0001) %MON pe_b_mean                    =   2.5168481414053E-03
(PID.TID 0000.0001) %MON ke_max                       =   2.1646602200819E+00
(PID.TID 0000.0001) %MON ke_mean                      =   2.8617929982687E-03
(PID.TID 0000.0001) %MON ke_vol                       =   1.3350064351420E+18
(PID.TID 0000.0001) %MON vort_r_min                   =  -7.1297918330263E-05
(PID.TID 0000.0001) %MON vort_r_max                   =   7.6760517801000E-05
(PID.TID 0000.0001) %MON vort_a_mean                  =  -1.9725077164587E-05
(PID.TID 0000.0001) %MON vort_a_sd                    =   7.4543778229117E-05
(PID.TID 0000.0001) %MON vort_p_mean                  =  -2.1669082152761E-05
(PID.TID 0000.0001) %MON vort_p_sd                    =   9.3620965435175E-05
(PID.TID 0000.0001) %MON surfExpan_theta_mean         =  -1.2687912953366E-05
(PID.TID 0000.0001) %MON surfExpan_salt_mean          =  -5.9030897832716E-05
(PID.TID 0000.0001) // =======================================================
(PID.TID 0000.0001) // End MONITOR dynamic field statistics
(PID.TID 0000.0001) // =======================================================
(PID.TID 0000.0001) // =======================================================
(PID.TID 0000.0001) // Begin MONITOR SEAICE statistics
(PID.TID 0000.0001) // =======================================================
(PID.TID 0000.0001) %MON seaice_tsnumber              =                174928
(PID.TID 0000.0001) %MON seaice_time_sec              =   7.8717600000000E+07
(PID.TID 0000.0001) %MON seaice_uice_max              =   1.2034431214638E+00
(PID.TID 0000.0001) %MON seaice_uice_min              =  -1.3083151294336E+00
(PID.TID 0000.0001) %MON seaice_uice_mean             =   8.9016655272579E-03
(PID.TID 0000.0001) %MON seaice_uice_sd               =   1.4997339018464E-01
(PID.TID 0000.0001) %MON seaice_uice_del2             =   3.9114017583806E-04
(PID.TID 0000.0001) %MON seaice_vice_max              =   1.0439477161622E+00
(PID.TID 0000.0001) %MON seaice_vice_min              =  -1.5205981747186E+00
(PID.TID 0000.0001) %MON seaice_vice_mean             =  -1.9348063395619E-02
(PID.TID 0000.0001) %MON seaice_vice_sd               =   1.6386766355919E-01
(PID.TID 0000.0001) %MON seaice_vice_del2             =   3.8376586106562E-04
(PID.TID 0000.0001) %MON seaice_area_max              =   1.0011222526380E+00
(PID.TID 0000.0001) %MON seaice_area_min              =   0.0000000000000E+00
(PID.TID 0000.0001) %MON seaice_area_mean             =   5.7740175403278E-02
(PID.TID 0000.0001) %MON seaice_area_sd               =   2.2075136788364E-01
(PID.TID 0000.0001) %MON seaice_area_del2             =   2.8220021707540E-04
(PID.TID 0000.0001) %MON seaice_heff_max              =   9.9471326469784E+00
(PID.TID 0000.0001) %MON seaice_heff_min              =   0.0000000000000E+00
(PID.TID 0000.0001) %MON seaice_heff_mean             =   1.4919261729686E-01
(PID.TID 0000.0001) %MON seaice_heff_sd               =   7.1893305241131E-01
(PID.TID 0000.0001) %MON seaice_heff_del2             =   1.3044809461951E-03
(PID.TID 0000.0001) %MON seaice_hsnow_max             =   3.2855582693566E+00
(PID.TID 0000.0001) %MON seaice_hsnow_min             =   0.0000000000000E+00
(PID.TID 0000.0001) %MON seaice_hsnow_mean            =   1.2564985086130E-02
(PID.TID 0000.0001) %MON seaice_hsnow_sd              =   6.7107008648746E-02
(PID.TID 0000.0001) %MON seaice_hsnow_del2            =   3.4426191660644E-04
(PID.TID 0000.0001) // =======================================================
(PID.TID 0000.0001) // End MONITOR SEAICE statistics
(PID.TID 0000.0001) // =======================================================
(PID.TID 0000.0001) // =======================================================
(PID.TID 0000.0001) // Begin MONITOR dynamic field statistics
(PID.TID 0000.0001) // =======================================================
(PID.TID 0000.0001) %MON time_tsnumber                =                174929
(PID.TID 0000.0001) %MON time_secondsf                =   7.8718050000000E+07
(PID.TID 0000.0001) %MON dynstat_eta_max              =   2.8309605572381E+00
(PID.TID 0000.0001) %MON dynstat_eta_min              =  -1.0428927699840E+01
(PID.TID 0000.0001) %MON dynstat_eta_mean             =   7.8879897474661E-02
(PID.TID 0000.0001) %MON dynstat_eta_sd               =   1.0523707187370E+00
(PID.TID 0000.0001) %MON dynstat_eta_del2             =   2.0124121982945E-03
(PID.TID 0000.0001) %MON dynstat_uvel_max             =   1.4209526196132E+00
(PID.TID 0000.0001) %MON dynstat_uvel_min             =  -2.3402935356463E+00
(PID.TID 0000.0001) %MON dynstat_uvel_mean            =   6.6085351156596E-03
(PID.TID 0000.0001) %MON dynstat_uvel_sd              =   5.3424549234426E-02
(PID.TID 0000.0001) %MON dynstat_uvel_del2            =   4.7783612137468E-05
(PID.TID 0000.0001) %MON dynstat_vvel_max             =   1.9697720270488E+00
(PID.TID 0000.0001) %MON dynstat_vvel_min             =  -1.7186829176903E+00
(PID.TID 0000.0001) %MON dynstat_vvel_mean            =   1.6947717759147E-03
(PID.TID 0000.0001) %MON dynstat_vvel_sd              =   5.5629659170674E-02
(PID.TID 0000.0001) %MON dynstat_vvel_del2            =   4.6594084656618E-05
(PID.TID 0000.0001) %MON dynstat_wvel_max             =   1.2836986771176E-02
(PID.TID 0000.0001) %MON dynstat_wvel_min             =  -1.0897185635638E-02
(PID.TID 0000.0001) %MON dynstat_wvel_mean            =  -6.9980108037606E-07
(PID.TID 0000.0001) %MON dynstat_wvel_sd              =   2.0746343921870E-04
(PID.TID 0000.0001) %MON dynstat_wvel_del2            =   4.1921385531768E-07
(PID.TID 0000.0001) %MON dynstat_theta_max            =   3.2369470329661E+01
(PID.TID 0000.0001) %MON dynstat_theta_min            =  -2.0355580959586E+00
(PID.TID 0000.0001) %MON dynstat_theta_mean           =   3.5917632164691E+00
(PID.TID 0000.0001) %MON dynstat_theta_sd             =   4.4413521988539E+00
(PID.TID 0000.0001) %MON dynstat_theta_del2           =   1.3095066594889E-04
(PID.TID 0000.0001) %MON dynstat_salt_max             =   4.0655989277646E+01
(PID.TID 0000.0001) %MON dynstat_salt_min             =   1.5909218300530E+01
(PID.TID 0000.0001) %MON dynstat_salt_mean            =   3.4724781965040E+01
(PID.TID 0000.0001) %MON dynstat_salt_sd              =   3.7979073085181E-01
(PID.TID 0000.0001) %MON dynstat_salt_del2            =   6.1864208656060E-05
(PID.TID 0000.0001) %MON dynstat_sst_max              =   3.2369470329661E+01
(PID.TID 0000.0001) %MON dynstat_sst_min              =  -2.0355580959586E+00
(PID.TID 0000.0001) %MON dynstat_sst_mean             =   1.8175190279278E+01
(PID.TID 0000.0001) %MON dynstat_sst_sd               =   1.0213375087156E+01
(PID.TID 0000.0001) %MON dynstat_sst_del2             =   1.0907334757474E-03
(PID.TID 0000.0001) %MON dynstat_sss_max              =   3.9464067864775E+01
(PID.TID 0000.0001) %MON dynstat_sss_min              =   1.5909218300530E+01
(PID.TID 0000.0001) %MON dynstat_sss_mean             =   3.4640525547670E+01
(PID.TID 0000.0001) %MON dynstat_sss_sd               =   1.3049975531355E+00
(PID.TID 0000.0001) %MON dynstat_sss_del2             =   1.4693781260192E-03
(PID.TID 0000.0001) %MON forcing_qnet_max             =   2.1880078125000E+03
(PID.TID 0000.0001) %MON forcing_qnet_min             =  -1.6421585128740E+03
(PID.TID 0000.0001) %MON forcing_qnet_mean            =  -1.4519471558504E+01
(PID.TID 0000.0001) %MON forcing_qnet_sd              =   2.0997370752598E+02
(PID.TID 0000.0001) %MON forcing_qnet_del2            =   4.4404530901748E-01
(PID.TID 0000.0001) %MON forcing_qsw_max              =   0.0000000000000E+00
(PID.TID 0000.0001) %MON forcing_qsw_min              =  -1.1144885421107E+02
(PID.TID 0000.0001) %MON forcing_qsw_mean             =  -2.1062113318542E+01
(PID.TID 0000.0001) %MON forcing_qsw_sd               =   3.0914269684280E+01
(PID.TID 0000.0001) %MON forcing_qsw_del2             =   2.1388920868544E-02
(PID.TID 0000.0001) %MON forcing_empmr_max            =   2.1324064582586E-02
(PID.TID 0000.0001) %MON forcing_empmr_min            =  -8.1309571862221E-02
(PID.TID 0000.0001) %MON forcing_empmr_mean           =  -3.3592549404936E-06
(PID.TID 0000.0001) %MON forcing_empmr_sd             =   4.1562884712188E-04
(PID.TID 0000.0001) %MON forcing_empmr_del2           =   4.9705280634029E-06
(PID.TID 0000.0001) %MON forcing_fu_max               =   8.5855561494827E-01
(PID.TID 0000.0001) %MON forcing_fu_min               =  -1.2501705426576E+00
(PID.TID 0000.0001) %MON forcing_fu_mean              =   1.0696063853515E-02
(PID.TID 0000.0001) %MON forcing_fu_sd                =   1.2536719671675E-01
(PID.TID 0000.0001) %MON forcing_fu_del2              =   1.6442613641634E-04
(PID.TID 0000.0001) %MON forcing_fv_max               =   1.1355172991753E+00
(PID.TID 0000.0001) %MON forcing_fv_min               =  -1.2457747459412E+00
(PID.TID 0000.0001) %MON forcing_fv_mean              =   8.7796830216565E-04
(PID.TID 0000.0001) %MON forcing_fv_sd                =   1.2330559965044E-01
(PID.TID 0000.0001) %MON forcing_fv_del2              =   1.6457255184098E-04
(PID.TID 0000.0001) %MON trAdv_CFL_u_max              =   2.1240679983383E-02
(PID.TID 0000.0001) %MON trAdv_CFL_v_max              =   1.9526593752412E-02
(PID.TID 0000.0001) %MON trAdv_CFL_w_max              =   9.9714980259987E-02
(PID.TID 0000.0001) %MON advcfl_uvel_max              =   2.1524803666545E-02
(PID.TID 0000.0001) %MON advcfl_vvel_max              =   1.9463671624115E-02
(PID.TID 0000.0001) %MON advcfl_wvel_max              =   9.3904339001731E-02
(PID.TID 0000.0001) %MON advcfl_W_hf_max              =   9.9714980259988E-02
(PID.TID 0000.0001) %MON pe_b_mean                    =   2.4995811439424E-03
(PID.TID 0000.0001) %MON ke_max                       =   2.1615076885170E+00
(PID.TID 0000.0001) %MON ke_mean                      =   2.8909225502673E-03
(PID.TID 0000.0001) %MON ke_vol                       =   1.3350064351420E+18
(PID.TID 0000.0001) %MON vort_r_min                   =  -7.1350094696636E-05
(PID.TID 0000.0001) %MON vort_r_max                   =   7.6580386517491E-05
(PID.TID 0000.0001) %MON vort_a_mean                  =  -1.9725077162988E-05
(PID.TID 0000.0001) %MON vort_a_sd                    =   7.4543835550334E-05
(PID.TID 0000.0001) %MON vort_p_mean                  =  -2.1669082151004E-05
(PID.TID 0000.0001) %MON vort_p_sd                    =   9.3621008969052E-05
(PID.TID 0000.0001) %MON surfExpan_theta_mean         =  -1.4412160991332E-05
(PID.TID 0000.0001) %MON surfExpan_salt_mean          =  -6.0722666566539E-05
(PID.TID 0000.0001) // =======================================================
(PID.TID 0000.0001) // End MONITOR dynamic field statistics
(PID.TID 0000.0001) // =======================================================
(PID.TID 0000.0001) // =======================================================
(PID.TID 0000.0001) // Begin MONITOR SEAICE statistics
(PID.TID 0000.0001) // =======================================================
(PID.TID 0000.0001) %MON seaice_tsnumber              =                174929
(PID.TID 0000.0001) %MON seaice_time_sec              =   7.8718050000000E+07
(PID.TID 0000.0001) %MON seaice_uice_max              =   1.2093430661486E+00
(PID.TID 0000.0001) %MON seaice_uice_min              =  -1.2970510073701E+00
(PID.TID 0000.0001) %MON seaice_uice_mean             =   8.8665132051043E-03
(PID.TID 0000.0001) %MON seaice_uice_sd               =   1.4995749821327E-01
(PID.TID 0000.0001) %MON seaice_uice_del2             =   3.9163579178732E-04
(PID.TID 0000.0001) %MON seaice_vice_max              =   1.0470154547189E+00
(PID.TID 0000.0001) %MON seaice_vice_min              =  -1.5222089146699E+00
(PID.TID 0000.0001) %MON seaice_vice_mean             =  -1.9538401854280E-02
(PID.TID 0000.0001) %MON seaice_vice_sd               =   1.6401879072796E-01
(PID.TID 0000.0001) %MON seaice_vice_del2             =   3.8425812467828E-04
(PID.TID 0000.0001) %MON seaice_area_max              =   1.0011211645790E+00
(PID.TID 0000.0001) %MON seaice_area_min              =   0.0000000000000E+00
(PID.TID 0000.0001) %MON seaice_area_mean             =   5.7743892899972E-02
(PID.TID 0000.0001) %MON seaice_area_sd               =   2.2075175542028E-01
(PID.TID 0000.0001) %MON seaice_area_del2             =   2.8219619569846E-04
(PID.TID 0000.0001) %MON seaice_heff_max              =   9.9471298041297E+00
(PID.TID 0000.0001) %MON seaice_heff_min              =   0.0000000000000E+00
(PID.TID 0000.0001) %MON seaice_heff_mean             =   1.4918941418506E-01
(PID.TID 0000.0001) %MON seaice_heff_sd               =   7.1892010647661E-01
(PID.TID 0000.0001) %MON seaice_heff_del2             =   1.3038833702033E-03
(PID.TID 0000.0001) %MON seaice_hsnow_max             =   3.2855572775221E+00
(PID.TID 0000.0001) %MON seaice_hsnow_min             =   0.0000000000000E+00
(PID.TID 0000.0001) %MON seaice_hsnow_mean            =   1.2564218960782E-02
(PID.TID 0000.0001) %MON seaice_hsnow_sd              =   6.7095967844785E-02
(PID.TID 0000.0001) %MON seaice_hsnow_del2            =   3.4398421862403E-04
(PID.TID 0000.0001) // =======================================================
(PID.TID 0000.0001) // End MONITOR SEAICE statistics
(PID.TID 0000.0001) // =======================================================
(PID.TID 0000.0001) // =======================================================
(PID.TID 0000.0001) // Begin MONITOR dynamic field statistics
(PID.TID 0000.0001) // =======================================================
(PID.TID 0000.0001) %MON time_tsnumber                =                174930
(PID.TID 0000.0001) %MON time_secondsf                =   7.8718500000000E+07
(PID.TID 0000.0001) %MON dynstat_eta_max              =   2.8423592188152E+00
(PID.TID 0000.0001) %MON dynstat_eta_min              =  -1.0448085948518E+01
(PID.TID 0000.0001) %MON dynstat_eta_mean             =   7.8053109918434E-02
(PID.TID 0000.0001) %MON dynstat_eta_sd               =   1.0545634402014E+00
(PID.TID 0000.0001) %MON dynstat_eta_del2             =   2.0124342719674E-03
(PID.TID 0000.0001) %MON dynstat_uvel_max             =   1.4312889898513E+00
(PID.TID 0000.0001) %MON dynstat_uvel_min             =  -2.3409064491770E+00
(PID.TID 0000.0001) %MON dynstat_uvel_mean            =   6.6243954795023E-03
(PID.TID 0000.0001) %MON dynstat_uvel_sd              =   5.3674083672079E-02
(PID.TID 0000.0001) %MON dynstat_uvel_del2            =   4.7915516525767E-05
(PID.TID 0000.0001) %MON dynstat_vvel_max             =   1.9748063504334E+00
(PID.TID 0000.0001) %MON dynstat_vvel_min             =  -1.7163331575293E+00
(PID.TID 0000.0001) %MON dynstat_vvel_mean            =   1.6649627515610E-03
(PID.TID 0000.0001) %MON dynstat_vvel_sd              =   5.5935513641127E-02
(PID.TID 0000.0001) %MON dynstat_vvel_del2            =   4.6725188060192E-05
(PID.TID 0000.0001) %MON dynstat_wvel_max             =   1.2912646580423E-02
(PID.TID 0000.0001) %MON dynstat_wvel_min             =  -1.0936026502188E-02
(PID.TID 0000.0001) %MON dynstat_wvel_mean            =  -7.2957289902865E-07
(PID.TID 0000.0001) %MON dynstat_wvel_sd              =   2.0815406292819E-04
(PID.TID 0000.0001) %MON dynstat_wvel_del2            =   4.2018759003574E-07
(PID.TID 0000.0001) %MON dynstat_theta_max            =   3.2368049198143E+01
(PID.TID 0000.0001) %MON dynstat_theta_min            =  -2.0353360783794E+00
(PID.TID 0000.0001) %MON dynstat_theta_mean           =   3.5917654739540E+00
(PID.TID 0000.0001) %MON dynstat_theta_sd             =   4.4413591425700E+00
(PID.TID 0000.0001) %MON dynstat_theta_del2           =   1.3101584746633E-04
(PID.TID 0000.0001) %MON dynstat_salt_max             =   4.0655989277438E+01
(PID.TID 0000.0001) %MON dynstat_salt_min             =   1.5908838841851E+01
(PID.TID 0000.0001) %MON dynstat_salt_mean            =   3.4724781776660E+01
(PID.TID 0000.0001) %MON dynstat_salt_sd              =   3.7979193450103E-01
(PID.TID 0000.0001) %MON dynstat_salt_del2            =   6.1847654246919E-05
(PID.TID 0000.0001) %MON dynstat_sst_max              =   3.2368049198143E+01
(PID.TID 0000.0001) %MON dynstat_sst_min              =  -2.0353360783794E+00
(PID.TID 0000.0001) %MON dynstat_sst_mean             =   1.8175344223745E+01
(PID.TID 0000.0001) %MON dynstat_sst_sd               =   1.0213669816722E+01
(PID.TID 0000.0001) %MON dynstat_sst_del2             =   1.0907963041547E-03
(PID.TID 0000.0001) %MON dynstat_sss_max              =   3.9464103797575E+01
(PID.TID 0000.0001) %MON dynstat_sss_min              =   1.5908838841851E+01
(PID.TID 0000.0001) %MON dynstat_sss_mean             =   3.4640507664576E+01
(PID.TID 0000.0001) %MON dynstat_sss_sd               =   1.3050393613097E+00
(PID.TID 0000.0001) %MON dynstat_sss_del2             =   1.4698573099454E-03
(PID.TID 0000.0001) %MON forcing_qnet_max             =   3.4651394042969E+03
(PID.TID 0000.0001) %MON forcing_qnet_min             =  -2.3548552900746E+03
(PID.TID 0000.0001) %MON forcing_qnet_mean            =  -1.4878308409224E+01
(PID.TID 0000.0001) %MON forcing_qnet_sd              =   2.1077912961308E+02
(PID.TID 0000.0001) %MON forcing_qnet_del2            =   4.6039423235175E-01
(PID.TID 0000.0001) %MON forcing_qsw_max              =   0.0000000000000E+00
(PID.TID 0000.0001) %MON forcing_qsw_min              =  -1.1147479606665E+02
(PID.TID 0000.0001) %MON forcing_qsw_mean             =  -2.1125498314807E+01
(PID.TID 0000.0001) %MON forcing_qsw_sd               =   3.1009362359213E+01
(PID.TID 0000.0001) %MON forcing_qsw_del2             =   2.1344833945380E-02
(PID.TID 0000.0001) %MON forcing_empmr_max            =   1.7868380993605E-02
(PID.TID 0000.0001) %MON forcing_empmr_min            =  -8.4800824522972E-02
(PID.TID 0000.0001) %MON forcing_empmr_mean           =  -3.3766985689466E-06
(PID.TID 0000.0001) %MON forcing_empmr_sd             =   4.1722026129844E-04
(PID.TID 0000.0001) %MON forcing_empmr_del2           =   5.0090805034176E-06
(PID.TID 0000.0001) %MON forcing_fu_max               =   8.5586738586426E-01
(PID.TID 0000.0001) %MON forcing_fu_min               =  -1.2455155678218E+00
(PID.TID 0000.0001) %MON forcing_fu_mean              =   1.0683898544189E-02
(PID.TID 0000.0001) %MON forcing_fu_sd                =   1.2538341597601E-01
(PID.TID 0000.0001) %MON forcing_fu_del2              =   1.6439853520086E-04
(PID.TID 0000.0001) %MON forcing_fv_max               =   1.1350752711296E+00
(PID.TID 0000.0001) %MON forcing_fv_min               =  -1.2473222017288E+00
(PID.TID 0000.0001) %MON forcing_fv_mean              =   8.8144877749685E-04
(PID.TID 0000.0001) %MON forcing_fv_sd                =   1.2332106272907E-01
(PID.TID 0000.0001) %MON forcing_fv_del2              =   1.6470532832110E-04
(PID.TID 0000.0001) %MON trAdv_CFL_u_max              =   2.1192016908949E-02
(PID.TID 0000.0001) %MON trAdv_CFL_v_max              =   1.9475680596112E-02
(PID.TID 0000.0001) %MON trAdv_CFL_w_max              =   9.9579763470539E-02
(PID.TID 0000.0001) %MON advcfl_uvel_max              =   2.1475489655703E-02
(PID.TID 0000.0001) %MON advcfl_vvel_max              =   1.9412922529412E-02
(PID.TID 0000.0001) %MON advcfl_wvel_max              =   9.3772341529234E-02
(PID.TID 0000.0001) %MON advcfl_W_hf_max              =   9.9579763470539E-02
(PID.TID 0000.0001) %MON pe_b_mean                    =   2.4817564721053E-03
(PID.TID 0000.0001) %MON ke_max                       =   2.1581822672727E+00
(PID.TID 0000.0001) %MON ke_mean                      =   2.9203158906957E-03
(PID.TID 0000.0001) %MON ke_vol                       =   1.3350064351420E+18
(PID.TID 0000.0001) %MON vort_r_min                   =  -7.1399529461249E-05
(PID.TID 0000.0001) %MON vort_r_max                   =   7.6396910723283E-05
(PID.TID 0000.0001) %MON vort_a_mean                  =  -1.9725077161779E-05
(PID.TID 0000.0001) %MON vort_a_sd                    =   7.4543893621548E-05
(PID.TID 0000.0001) %MON vort_p_mean                  =  -2.1669082149676E-05
(PID.TID 0000.0001) %MON vort_p_sd                    =   9.3621052150643E-05
(PID.TID 0000.0001) %MON surfExpan_theta_mean         =  -1.6129876109469E-05
(PID.TID 0000.0001) %MON surfExpan_salt_mean          =  -6.2340799379868E-05
(PID.TID 0000.0001) // =======================================================
(PID.TID 0000.0001) // End MONITOR dynamic field statistics
(PID.TID 0000.0001) // =======================================================
(PID.TID 0000.0001) // =======================================================
(PID.TID 0000.0001) // Begin MONITOR SEAICE statistics
(PID.TID 0000.0001) // =======================================================
(PID.TID 0000.0001) %MON seaice_tsnumber              =                174930
(PID.TID 0000.0001) %MON seaice_time_sec              =   7.8718500000000E+07
(PID.TID 0000.0001) %MON seaice_uice_max              =   1.2152766854093E+00
(PID.TID 0000.0001) %MON seaice_uice_min              =  -1.2860371806487E+00
(PID.TID 0000.0001) %MON seaice_uice_mean             =   8.8341295330514E-03
(PID.TID 0000.0001) %MON seaice_uice_sd               =   1.4994137285933E-01
(PID.TID 0000.0001) %MON seaice_uice_del2             =   3.9212670497088E-04
(PID.TID 0000.0001) %MON seaice_vice_max              =   1.0500087670110E+00
(PID.TID 0000.0001) %MON seaice_vice_min              =  -1.5237860628887E+00
(PID.TID 0000.0001) %MON seaice_vice_mean             =  -1.9722903854181E-02
(PID.TID 0000.0001) %MON seaice_vice_sd               =   1.6416973794345E-01
(PID.TID 0000.0001) %MON seaice_vice_del2             =   3.8473222518756E-04
(PID.TID 0000.0001) %MON seaice_area_max              =   1.0011169491433E+00
(PID.TID 0000.0001) %MON seaice_area_min              =   0.0000000000000E+00
(PID.TID 0000.0001) %MON seaice_area_mean             =   5.7747648686285E-02
(PID.TID 0000.0001) %MON seaice_area_sd               =   2.2075217988746E-01
(PID.TID 0000.0001) %MON seaice_area_del2             =   2.8219294251852E-04
(PID.TID 0000.0001) %MON seaice_heff_max              =   9.9471269611002E+00
(PID.TID 0000.0001) %MON seaice_heff_min              =   0.0000000000000E+00
(PID.TID 0000.0001) %MON seaice_heff_mean             =   1.4918622208573E-01
(PID.TID 0000.0001) %MON seaice_heff_sd               =   7.1890710755725E-01
(PID.TID 0000.0001) %MON seaice_heff_del2             =   1.3032824530417E-03
(PID.TID 0000.0001) %MON seaice_hsnow_max             =   3.2855562893058E+00
(PID.TID 0000.0001) %MON seaice_hsnow_min             =   0.0000000000000E+00
(PID.TID 0000.0001) %MON seaice_hsnow_mean            =   1.2563460431302E-02
(PID.TID 0000.0001) %MON seaice_hsnow_sd              =   6.7084926225400E-02
(PID.TID 0000.0001) %MON seaice_hsnow_del2            =   3.4370714088105E-04
(PID.TID 0000.0001) // =======================================================
(PID.TID 0000.0001) // End MONITOR SEAICE statistics
(PID.TID 0000.0001) // =======================================================
(PID.TID 0000.0001) // =======================================================
(PID.TID 0000.0001) // Begin MONITOR dynamic field statistics
(PID.TID 0000.0001) // =======================================================
(PID.TID 0000.0001) %MON time_tsnumber                =                174931
(PID.TID 0000.0001) %MON time_secondsf                =   7.8718950000000E+07
(PID.TID 0000.0001) %MON dynstat_eta_max              =   2.8524917146031E+00
(PID.TID 0000.0001) %MON dynstat_eta_min              =  -1.0466463878511E+01
(PID.TID 0000.0001) %MON dynstat_eta_mean             =   7.7208324845838E-02
(PID.TID 0000.0001) %MON dynstat_eta_sd               =   1.0567372452629E+00
(PID.TID 0000.0001) %MON dynstat_eta_del2             =   2.0124572183526E-03
(PID.TID 0000.0001) %MON dynstat_uvel_max             =   1.4415191438349E+00
(PID.TID 0000.0001) %MON dynstat_uvel_min             =  -2.3413891040202E+00
(PID.TID 0000.0001) %MON dynstat_uvel_mean            =   6.6412974514603E-03
(PID.TID 0000.0001) %MON dynstat_uvel_sd              =   5.3924505414048E-02
(PID.TID 0000.0001) %MON dynstat_uvel_del2            =   4.8047909845409E-05
(PID.TID 0000.0001) %MON dynstat_vvel_max             =   1.9798581334352E+00
(PID.TID 0000.0001) %MON dynstat_vvel_min             =  -1.7138775245048E+00
(PID.TID 0000.0001) %MON dynstat_vvel_mean            =   1.6366698212972E-03
(PID.TID 0000.0001) %MON dynstat_vvel_sd              =   5.6242317787327E-02
(PID.TID 0000.0001) %MON dynstat_vvel_del2            =   4.6856630487607E-05
(PID.TID 0000.0001) %MON dynstat_wvel_max             =   1.2987308661024E-02
(PID.TID 0000.0001) %MON dynstat_wvel_min             =  -1.0975399622396E-02
(PID.TID 0000.0001) %MON dynstat_wvel_mean            =  -7.5829332962706E-07
(PID.TID 0000.0001) %MON dynstat_wvel_sd              =   2.0884316580983E-04
(PID.TID 0000.0001) %MON dynstat_wvel_del2            =   4.2115463592878E-07
(PID.TID 0000.0001) %MON dynstat_theta_max            =   3.2366735951588E+01
(PID.TID 0000.0001) %MON dynstat_theta_min            =  -2.0351054443245E+00
(PID.TID 0000.0001) %MON dynstat_theta_mean           =   3.5917679348223E+00
(PID.TID 0000.0001) %MON dynstat_theta_sd             =   4.4413665173457E+00
(PID.TID 0000.0001) %MON dynstat_theta_del2           =   1.3108138957802E-04
(PID.TID 0000.0001) %MON dynstat_salt_max             =   4.0655989277230E+01
(PID.TID 0000.0001) %MON dynstat_salt_min             =   1.5908459971410E+01
(PID.TID 0000.0001) %MON dynstat_salt_mean            =   3.4724781607669E+01
(PID.TID 0000.0001) %MON dynstat_salt_sd              =   3.7979312814221E-01
(PID.TID 0000.0001) %MON dynstat_salt_del2            =   6.1831377284241E-05
(PID.TID 0000.0001) %MON dynstat_sst_max              =   3.2366735951588E+01
(PID.TID 0000.0001) %MON dynstat_sst_min              =  -2.0351054443245E+00
(PID.TID 0000.0001) %MON dynstat_sst_mean             =   1.8175495206433E+01
(PID.TID 0000.0001) %MON dynstat_sst_sd               =   1.0213963894910E+01
(PID.TID 0000.0001) %MON dynstat_sst_del2             =   1.0908768261924E-03
(PID.TID 0000.0001) %MON dynstat_sss_max              =   3.9464140846221E+01
(PID.TID 0000.0001) %MON dynstat_sss_min              =   1.5908459971410E+01
(PID.TID 0000.0001) %MON dynstat_sss_mean             =   3.4640491840138E+01
(PID.TID 0000.0001) %MON dynstat_sss_sd               =   1.3050782184975E+00
(PID.TID 0000.0001) %MON dynstat_sss_del2             =   1.4703252361615E-03
(PID.TID 0000.0001) %MON forcing_qnet_max             =   3.3092221679688E+03
(PID.TID 0000.0001) %MON forcing_qnet_min             =  -2.0119406039628E+03
(PID.TID 0000.0001) %MON forcing_qnet_mean            =  -1.5028246034020E+01
(PID.TID 0000.0001) %MON forcing_qnet_sd              =   2.1169993712858E+02
(PID.TID 0000.0001) %MON forcing_qnet_del2            =   4.4301991068542E-01
(PID.TID 0000.0001) %MON forcing_qsw_max              =   0.0000000000000E+00
(PID.TID 0000.0001) %MON forcing_qsw_min              =  -1.1172740368904E+02
(PID.TID 0000.0001) %MON forcing_qsw_mean             =  -2.1176170848735E+01
(PID.TID 0000.0001) %MON forcing_qsw_sd               =   3.1094965938445E+01
(PID.TID 0000.0001) %MON forcing_qsw_del2             =   2.1294860042359E-02
(PID.TID 0000.0001) %MON forcing_empmr_max            =   1.8944500014186E-02
(PID.TID 0000.0001) %MON forcing_empmr_min            =  -9.0443059802055E-02
(PID.TID 0000.0001) %MON forcing_empmr_mean           =  -3.7973209182414E-06
(PID.TID 0000.0001) %MON forcing_empmr_sd             =   4.3583384240976E-04
(PID.TID 0000.0001) %MON forcing_empmr_del2           =   5.1027869121072E-06
(PID.TID 0000.0001) %MON forcing_fu_max               =   8.5594984889030E-01
(PID.TID 0000.0001) %MON forcing_fu_min               =  -1.2430300840597E+00
(PID.TID 0000.0001) %MON forcing_fu_mean              =   1.0669086772116E-02
(PID.TID 0000.0001) %MON forcing_fu_sd                =   1.2538996236402E-01
(PID.TID 0000.0001) %MON forcing_fu_del2              =   1.6441362542904E-04
(PID.TID 0000.0001) %MON forcing_fv_max               =   1.1343308687210E+00
(PID.TID 0000.0001) %MON forcing_fv_min               =  -1.2491997480392E+00
(PID.TID 0000.0001) %MON forcing_fv_mean              =   8.8594823047422E-04
(PID.TID 0000.0001) %MON forcing_fv_sd                =   1.2333333334091E-01
(PID.TID 0000.0001) %MON forcing_fv_del2              =   1.6481495963855E-04
(PID.TID 0000.0001) %MON trAdv_CFL_u_max              =   2.1142750091704E-02
(PID.TID 0000.0001) %MON trAdv_CFL_v_max              =   1.9428145528752E-02
(PID.TID 0000.0001) %MON trAdv_CFL_w_max              =   9.9457288181303E-02
(PID.TID 0000.0001) %MON advcfl_uvel_max              =   2.1425563826148E-02
(PID.TID 0000.0001) %MON advcfl_vvel_max              =   1.9365540638159E-02
(PID.TID 0000.0001) %MON advcfl_wvel_max              =   9.3654018788356E-02
(PID.TID 0000.0001) %MON advcfl_W_hf_max              =   9.9457288181303E-02
(PID.TID 0000.0001) %MON pe_b_mean                    =   2.4634045567378E-03
(PID.TID 0000.0001) %MON ke_max                       =   2.1546910218777E+00
(PID.TID 0000.0001) %MON ke_mean                      =   2.9499673139566E-03
(PID.TID 0000.0001) %MON ke_vol                       =   1.3350064351420E+18
(PID.TID 0000.0001) %MON vort_r_min                   =  -7.1446250884166E-05
(PID.TID 0000.0001) %MON vort_r_max                   =   7.6210369347537E-05
(PID.TID 0000.0001) %MON vort_a_mean                  =  -1.9725077160455E-05
(PID.TID 0000.0001) %MON vort_a_sd                    =   7.4543952408874E-05
(PID.TID 0000.0001) %MON vort_p_mean                  =  -2.1669082148222E-05
(PID.TID 0000.0001) %MON vort_p_sd                    =   9.3621094965964E-05
(PID.TID 0000.0001) %MON surfExpan_theta_mean         =  -1.7836075850628E-05
(PID.TID 0000.0001) %MON surfExpan_salt_mean          =  -6.3884950259586E-05
(PID.TID 0000.0001) // =======================================================
(PID.TID 0000.0001) // End MONITOR dynamic field statistics
(PID.TID 0000.0001) // =======================================================
(PID.TID 0000.0001) // =======================================================
(PID.TID 0000.0001) // Begin MONITOR SEAICE statistics
(PID.TID 0000.0001) // =======================================================
(PID.TID 0000.0001) %MON seaice_tsnumber              =                174931
(PID.TID 0000.0001) %MON seaice_time_sec              =   7.8718950000000E+07
(PID.TID 0000.0001) %MON seaice_uice_max              =   1.2212409879277E+00
(PID.TID 0000.0001) %MON seaice_uice_min              =  -1.2753122150992E+00
(PID.TID 0000.0001) %MON seaice_uice_mean             =   8.7990681023456E-03
(PID.TID 0000.0001) %MON seaice_uice_sd               =   1.4992978743358E-01
(PID.TID 0000.0001) %MON seaice_uice_del2             =   3.9260367336057E-04
(PID.TID 0000.0001) %MON seaice_vice_max              =   1.0529151752643E+00
(PID.TID 0000.0001) %MON seaice_vice_min              =  -1.5253279215608E+00
(PID.TID 0000.0001) %MON seaice_vice_mean             =  -1.9899098297824E-02
(PID.TID 0000.0001) %MON seaice_vice_sd               =   1.6432284970466E-01
(PID.TID 0000.0001) %MON seaice_vice_del2             =   3.8522298056199E-04
(PID.TID 0000.0001) %MON seaice_area_max              =   1.0011099408862E+00
(PID.TID 0000.0001) %MON seaice_area_min              =   0.0000000000000E+00
(PID.TID 0000.0001) %MON seaice_area_mean             =   5.7751450321803E-02
(PID.TID 0000.0001) %MON seaice_area_sd               =   2.2075267205483E-01
(PID.TID 0000.0001) %MON seaice_area_del2             =   2.8219004909694E-04
(PID.TID 0000.0001) %MON seaice_heff_max              =   9.9471250715511E+00
(PID.TID 0000.0001) %MON seaice_heff_min              =   0.0000000000000E+00
(PID.TID 0000.0001) %MON seaice_heff_mean             =   1.4918303661096E-01
(PID.TID 0000.0001) %MON seaice_heff_sd               =   7.1889404149770E-01
(PID.TID 0000.0001) %MON seaice_heff_del2             =   1.3026791446646E-03
(PID.TID 0000.0001) %MON seaice_hsnow_max             =   3.2855557873878E+00
(PID.TID 0000.0001) %MON seaice_hsnow_min             =   0.0000000000000E+00
(PID.TID 0000.0001) %MON seaice_hsnow_mean            =   1.2562704676373E-02
(PID.TID 0000.0001) %MON seaice_hsnow_sd              =   6.7073851372422E-02
(PID.TID 0000.0001) %MON seaice_hsnow_del2            =   3.4343073106842E-04
(PID.TID 0000.0001) // =======================================================
(PID.TID 0000.0001) // End MONITOR SEAICE statistics
(PID.TID 0000.0001) // =======================================================
(PID.TID 0000.0001) // =======================================================
(PID.TID 0000.0001) // Begin MONITOR dynamic field statistics
(PID.TID 0000.0001) // =======================================================
(PID.TID 0000.0001) %MON time_tsnumber                =                174932
(PID.TID 0000.0001) %MON time_secondsf                =   7.8719400000000E+07
(PID.TID 0000.0001) %MON dynstat_eta_max              =   2.8613269451028E+00
(PID.TID 0000.0001) %MON dynstat_eta_min              =  -1.0484038681256E+01
(PID.TID 0000.0001) %MON dynstat_eta_mean             =   7.6346314335198E-02
(PID.TID 0000.0001) %MON dynstat_eta_sd               =   1.0588908970987E+00
(PID.TID 0000.0001) %MON dynstat_eta_del2             =   2.0124770903605E-03
(PID.TID 0000.0001) %MON dynstat_uvel_max             =   1.4516421706632E+00
(PID.TID 0000.0001) %MON dynstat_uvel_min             =  -2.3417447320775E+00
(PID.TID 0000.0001) %MON dynstat_uvel_mean            =   6.6590646330913E-03
(PID.TID 0000.0001) %MON dynstat_uvel_sd              =   5.4175834787326E-02
(PID.TID 0000.0001) %MON dynstat_uvel_del2            =   4.8180781856434E-05
(PID.TID 0000.0001) %MON dynstat_vvel_max             =   1.9849290699775E+00
(PID.TID 0000.0001) %MON dynstat_vvel_min             =  -1.7113245318719E+00
(PID.TID 0000.0001) %MON dynstat_vvel_mean            =   1.6099042085172E-03
(PID.TID 0000.0001) %MON dynstat_vvel_sd              =   5.6550038430741E-02
(PID.TID 0000.0001) %MON dynstat_vvel_del2            =   4.6988407235446E-05
(PID.TID 0000.0001) %MON dynstat_wvel_max             =   1.3060971063182E-02
(PID.TID 0000.0001) %MON dynstat_wvel_min             =  -1.1015332142650E-02
(PID.TID 0000.0001) %MON dynstat_wvel_mean            =  -7.8575046639452E-07
(PID.TID 0000.0001) %MON dynstat_wvel_sd              =   2.0953072684891E-04
(PID.TID 0000.0001) %MON dynstat_wvel_del2            =   4.2211520132880E-07
(PID.TID 0000.0001) %MON dynstat_theta_max            =   3.2365515737479E+01
(PID.TID 0000.0001) %MON dynstat_theta_min            =  -2.0348663347329E+00
(PID.TID 0000.0001) %MON dynstat_theta_mean           =   3.5917706061481E+00
(PID.TID 0000.0001) %MON dynstat_theta_sd             =   4.4413743684431E+00
(PID.TID 0000.0001) %MON dynstat_theta_del2           =   1.3114746555582E-04
(PID.TID 0000.0001) %MON dynstat_salt_max             =   4.0655989277022E+01
(PID.TID 0000.0001) %MON dynstat_salt_min             =   1.5908081397625E+01
(PID.TID 0000.0001) %MON dynstat_salt_mean            =   3.4724781457621E+01
(PID.TID 0000.0001) %MON dynstat_salt_sd              =   3.7979431955947E-01
(PID.TID 0000.0001) %MON dynstat_salt_del2            =   6.1816559620045E-05
(PID.TID 0000.0001) %MON dynstat_sst_max              =   3.2365515737479E+01
(PID.TID 0000.0001) %MON dynstat_sst_min              =  -2.0348663347329E+00
(PID.TID 0000.0001) %MON dynstat_sst_mean             =   1.8175650590977E+01
(PID.TID 0000.0001) %MON dynstat_sst_sd               =   1.0214261331599E+01
(PID.TID 0000.0001) %MON dynstat_sst_del2             =   1.0910282484770E-03
(PID.TID 0000.0001) %MON dynstat_sss_max              =   3.9464180054348E+01
(PID.TID 0000.0001) %MON dynstat_sss_min              =   1.5908081397625E+01
(PID.TID 0000.0001) %MON dynstat_sss_mean             =   3.4640474833538E+01
(PID.TID 0000.0001) %MON dynstat_sss_sd               =   1.3051190958852E+00
(PID.TID 0000.0001) %MON dynstat_sss_del2             =   1.4708871827107E-03
(PID.TID 0000.0001) %MON forcing_qnet_max             =   3.0156552734375E+03
(PID.TID 0000.0001) %MON forcing_qnet_min             =  -2.2394681777902E+03
(PID.TID 0000.0001) %MON forcing_qnet_mean            =  -1.5368908585341E+01
(PID.TID 0000.0001) %MON forcing_qnet_sd              =   2.1183317495690E+02
(PID.TID 0000.0001) %MON forcing_qnet_del2            =   4.6310087566253E-01
(PID.TID 0000.0001) %MON forcing_qsw_max              =   0.0000000000000E+00
(PID.TID 0000.0001) %MON forcing_qsw_min              =  -1.1187602235404E+02
(PID.TID 0000.0001) %MON forcing_qsw_mean             =  -2.1213809434944E+01
(PID.TID 0000.0001) %MON forcing_qsw_sd               =   3.1170820505287E+01
(PID.TID 0000.0001) %MON forcing_qsw_del2             =   2.1239210924536E-02
(PID.TID 0000.0001) %MON forcing_empmr_max            =   2.0225966349244E-02
(PID.TID 0000.0001) %MON forcing_empmr_min            =  -9.2682868242264E-02
(PID.TID 0000.0001) %MON forcing_empmr_mean           =  -3.4691181427176E-06
(PID.TID 0000.0001) %MON forcing_empmr_sd             =   4.3448798557773E-04
(PID.TID 0000.0001) %MON forcing_empmr_del2           =   5.1584370942033E-06
(PID.TID 0000.0001) %MON forcing_fu_max               =   8.5555335879326E-01
(PID.TID 0000.0001) %MON forcing_fu_min               =  -1.2388929751425E+00
(PID.TID 0000.0001) %MON forcing_fu_mean              =   1.0640252227498E-02
(PID.TID 0000.0001) %MON forcing_fu_sd                =   1.2539325710741E-01
(PID.TID 0000.0001) %MON forcing_fu_del2              =   1.6443276127495E-04
(PID.TID 0000.0001) %MON forcing_fv_max               =   1.1298438310623E+00
(PID.TID 0000.0001) %MON forcing_fv_min               =  -1.2500979304314E+00
(PID.TID 0000.0001) %MON forcing_fv_mean              =   9.0393100531150E-04
(PID.TID 0000.0001) %MON forcing_fv_sd                =   1.2339922180555E-01
(PID.TID 0000.0001) %MON forcing_fv_del2              =   1.6485987871944E-04
(PID.TID 0000.0001) %MON trAdv_CFL_u_max              =   2.1092902286307E-02
(PID.TID 0000.0001) %MON trAdv_CFL_v_max              =   1.9384355302577E-02
(PID.TID 0000.0001) %MON trAdv_CFL_w_max              =   9.9348342676625E-02
(PID.TID 0000.0001) %MON advcfl_uvel_max              =   2.1375049236916E-02
(PID.TID 0000.0001) %MON advcfl_vvel_max              =   1.9321891520785E-02
(PID.TID 0000.0001) %MON advcfl_wvel_max              =   9.3550211931621E-02
(PID.TID 0000.0001) %MON advcfl_W_hf_max              =   9.9348342676625E-02
(PID.TID 0000.0001) %MON pe_b_mean                    =   2.4445448419896E-03
(PID.TID 0000.0001) %MON ke_max                       =   2.1510319856121E+00
(PID.TID 0000.0001) %MON ke_mean                      =   2.9798763697325E-03
(PID.TID 0000.0001) %MON ke_vol                       =   1.3350064351420E+18
(PID.TID 0000.0001) %MON vort_r_min                   =  -7.1490292432151E-05
(PID.TID 0000.0001) %MON vort_r_max                   =   7.6020920567986E-05
(PID.TID 0000.0001) %MON vort_a_mean                  =  -1.9725077158407E-05
(PID.TID 0000.0001) %MON vort_a_sd                    =   7.4544011886467E-05
(PID.TID 0000.0001) %MON vort_p_mean                  =  -2.1669082145972E-05
(PID.TID 0000.0001) %MON vort_p_sd                    =   9.3621137245677E-05
(PID.TID 0000.0001) %MON surfExpan_theta_mean         =  -1.9530503606793E-05
(PID.TID 0000.0001) %MON surfExpan_salt_mean          =  -6.5348037099016E-05
(PID.TID 0000.0001) // =======================================================
(PID.TID 0000.0001) // End MONITOR dynamic field statistics
(PID.TID 0000.0001) // =======================================================
(PID.TID 0000.0001) // =======================================================
(PID.TID 0000.0001) // Begin MONITOR SEAICE statistics
(PID.TID 0000.0001) // =======================================================
(PID.TID 0000.0001) %MON seaice_tsnumber              =                174932
(PID.TID 0000.0001) %MON seaice_time_sec              =   7.8719400000000E+07
(PID.TID 0000.0001) %MON seaice_uice_max              =   1.2271712489649E+00
(PID.TID 0000.0001) %MON seaice_uice_min              =  -1.2649134711166E+00
(PID.TID 0000.0001) %MON seaice_uice_mean             =   8.7659515678531E-03
(PID.TID 0000.0001) %MON seaice_uice_sd               =   1.4991919114637E-01
(PID.TID 0000.0001) %MON seaice_uice_del2             =   3.9310119068780E-04
(PID.TID 0000.0001) %MON seaice_vice_max              =   1.0557284676131E+00
(PID.TID 0000.0001) %MON seaice_vice_min              =  -1.5268311627434E+00
(PID.TID 0000.0001) %MON seaice_vice_mean             =  -2.0069968263381E-02
(PID.TID 0000.0001) %MON seaice_vice_sd               =   1.6447235797399E-01
(PID.TID 0000.0001) %MON seaice_vice_del2             =   3.8571815245122E-04
(PID.TID 0000.0001) %MON seaice_area_max              =   1.0011000969436E+00
(PID.TID 0000.0001) %MON seaice_area_min              =   0.0000000000000E+00
(PID.TID 0000.0001) %MON seaice_area_mean             =   5.7755304212206E-02
(PID.TID 0000.0001) %MON seaice_area_sd               =   2.2075323971870E-01
(PID.TID 0000.0001) %MON seaice_area_del2             =   2.8218815244835E-04
(PID.TID 0000.0001) %MON seaice_heff_max              =   9.9471231815556E+00
(PID.TID 0000.0001) %MON seaice_heff_min              =   0.0000000000000E+00
(PID.TID 0000.0001) %MON seaice_heff_mean             =   1.4917982826915E-01
(PID.TID 0000.0001) %MON seaice_heff_sd               =   7.1888089432570E-01
(PID.TID 0000.0001) %MON seaice_heff_del2             =   1.3020737491708E-03
(PID.TID 0000.0001) %MON seaice_hsnow_max             =   3.2855552889300E+00
(PID.TID 0000.0001) %MON seaice_hsnow_min             =   0.0000000000000E+00
(PID.TID 0000.0001) %MON seaice_hsnow_mean            =   1.2561950441652E-02
(PID.TID 0000.0001) %MON seaice_hsnow_sd              =   6.7062759645608E-02
(PID.TID 0000.0001) %MON seaice_hsnow_del2            =   3.4315485575232E-04
(PID.TID 0000.0001) // =======================================================
(PID.TID 0000.0001) // End MONITOR SEAICE statistics
(PID.TID 0000.0001) // =======================================================
(PID.TID 0000.0001) // =======================================================
(PID.TID 0000.0001) // Begin MONITOR dynamic field statistics
(PID.TID 0000.0001) // =======================================================
(PID.TID 0000.0001) %MON time_tsnumber                =                174933
(PID.TID 0000.0001) %MON time_secondsf                =   7.8719850000000E+07
(PID.TID 0000.0001) %MON dynstat_eta_max              =   2.8688419628378E+00
(PID.TID 0000.0001) %MON dynstat_eta_min              =  -1.0500779356978E+01
(PID.TID 0000.0001) %MON dynstat_eta_mean             =   7.5468236120389E-02
(PID.TID 0000.0001) %MON dynstat_eta_sd               =   1.0610241466718E+00
(PID.TID 0000.0001) %MON dynstat_eta_del2             =   2.0124984849746E-03
(PID.TID 0000.0001) %MON dynstat_uvel_max             =   1.4616587008340E+00
(PID.TID 0000.0001) %MON dynstat_uvel_min             =  -2.3419770512043E+00
(PID.TID 0000.0001) %MON dynstat_uvel_mean            =   6.6775189414434E-03
(PID.TID 0000.0001) %MON dynstat_uvel_sd              =   5.4428020337758E-02
(PID.TID 0000.0001) %MON dynstat_uvel_del2            =   4.8313980876084E-05
(PID.TID 0000.0001) %MON dynstat_vvel_max             =   1.9900188015921E+00
(PID.TID 0000.0001) %MON dynstat_vvel_min             =  -1.7086798672950E+00
(PID.TID 0000.0001) %MON dynstat_vvel_mean            =   1.5846665648558E-03
(PID.TID 0000.0001) %MON dynstat_vvel_sd              =   5.6858616365404E-02
(PID.TID 0000.0001) %MON dynstat_vvel_del2            =   4.7120466565133E-05
(PID.TID 0000.0001) %MON dynstat_wvel_max             =   1.3133577794213E-02
(PID.TID 0000.0001) %MON dynstat_wvel_min             =  -1.1055781164556E-02
(PID.TID 0000.0001) %MON dynstat_wvel_mean            =  -8.1182481998377E-07
(PID.TID 0000.0001) %MON dynstat_wvel_sd              =   2.1021692040936E-04
(PID.TID 0000.0001) %MON dynstat_wvel_del2            =   4.2306956535651E-07
(PID.TID 0000.0001) %MON dynstat_theta_max            =   3.2364382648786E+01
(PID.TID 0000.0001) %MON dynstat_theta_min            =  -2.0346135799589E+00
(PID.TID 0000.0001) %MON dynstat_theta_mean           =   3.5917735507063E+00
(PID.TID 0000.0001) %MON dynstat_theta_sd             =   4.4413829721746E+00
(PID.TID 0000.0001) %MON dynstat_theta_del2           =   1.3121416738705E-04
(PID.TID 0000.0001) %MON dynstat_salt_max             =   4.0655989276814E+01
(PID.TID 0000.0001) %MON dynstat_salt_min             =   1.5907702672110E+01
(PID.TID 0000.0001) %MON dynstat_salt_mean            =   3.4724781328431E+01
(PID.TID 0000.0001) %MON dynstat_salt_sd              =   3.7979550278018E-01
(PID.TID 0000.0001) %MON dynstat_salt_del2            =   6.1801976652214E-05
(PID.TID 0000.0001) %MON dynstat_sst_max              =   3.2364382648786E+01
(PID.TID 0000.0001) %MON dynstat_sst_min              =  -2.0346135799589E+00
(PID.TID 0000.0001) %MON dynstat_sst_mean             =   1.8175814897213E+01
(PID.TID 0000.0001) %MON dynstat_sst_sd               =   1.0214564617127E+01
(PID.TID 0000.0001) %MON dynstat_sst_del2             =   1.0912492175765E-03
(PID.TID 0000.0001) %MON dynstat_sss_max              =   3.9464224277505E+01
(PID.TID 0000.0001) %MON dynstat_sss_min              =   1.5907702672110E+01
(PID.TID 0000.0001) %MON dynstat_sss_mean             =   3.4640458559835E+01
(PID.TID 0000.0001) %MON dynstat_sss_sd               =   1.3051577286640E+00
(PID.TID 0000.0001) %MON dynstat_sss_del2             =   1.4714423290803E-03
(PID.TID 0000.0001) %MON forcing_qnet_max             =   2.7587175292969E+03
(PID.TID 0000.0001) %MON forcing_qnet_min             =  -3.8981590933236E+03
(PID.TID 0000.0001) %MON forcing_qnet_mean            =  -1.7940651141350E+01
(PID.TID 0000.0001) %MON forcing_qnet_sd              =   2.1487882602314E+02
(PID.TID 0000.0001) %MON forcing_qnet_del2            =   4.8423548638309E-01
(PID.TID 0000.0001) %MON forcing_qsw_max              =   0.0000000000000E+00
(PID.TID 0000.0001) %MON forcing_qsw_min              =  -1.1222407578520E+02
(PID.TID 0000.0001) %MON forcing_qsw_mean             =  -2.1609816537093E+01
(PID.TID 0000.0001) %MON forcing_qsw_sd               =   3.1665876945371E+01
(PID.TID 0000.0001) %MON forcing_qsw_del2             =   2.0909687837954E-02
(PID.TID 0000.0001) %MON forcing_empmr_max            =   2.1998697891831E-02
(PID.TID 0000.0001) %MON forcing_empmr_min            =  -9.6314221620560E-02
(PID.TID 0000.0001) %MON forcing_empmr_mean           =  -3.2949400847430E-06
(PID.TID 0000.0001) %MON forcing_empmr_sd             =   4.3633896244358E-04
(PID.TID 0000.0001) %MON forcing_empmr_del2           =   5.1866622330093E-06
(PID.TID 0000.0001) %MON forcing_fu_max               =   8.5537198185921E-01
(PID.TID 0000.0001) %MON forcing_fu_min               =  -1.2342462691380E+00
(PID.TID 0000.0001) %MON forcing_fu_mean              =   1.0615503843164E-02
(PID.TID 0000.0001) %MON forcing_fu_sd                =   1.2541926378609E-01
(PID.TID 0000.0001) %MON forcing_fu_del2              =   1.6454551252833E-04
(PID.TID 0000.0001) %MON forcing_fv_max               =   1.1262469887733E+00
(PID.TID 0000.0001) %MON forcing_fv_min               =  -1.2565891742706E+00
(PID.TID 0000.0001) %MON forcing_fv_mean              =   9.1528500844993E-04
(PID.TID 0000.0001) %MON forcing_fv_sd                =   1.2344688555384E-01
(PID.TID 0000.0001) %MON forcing_fv_del2              =   1.6507364924957E-04
(PID.TID 0000.0001) %MON trAdv_CFL_u_max              =   2.1042570457339E-02
(PID.TID 0000.0001) %MON trAdv_CFL_v_max              =   1.9344648236443E-02
(PID.TID 0000.0001) %MON trAdv_CFL_w_max              =   9.9247095737713E-02
(PID.TID 0000.0001) %MON advcfl_uvel_max              =   2.1324044149623E-02
(PID.TID 0000.0001) %MON advcfl_vvel_max              =   1.9282312405953E-02
(PID.TID 0000.0001) %MON advcfl_wvel_max              =   9.3454784084642E-02
(PID.TID 0000.0001) %MON advcfl_W_hf_max              =   9.9247095737713E-02
(PID.TID 0000.0001) %MON pe_b_mean                    =   2.4252072063036E-03
(PID.TID 0000.0001) %MON ke_max                       =   2.1472185221337E+00
(PID.TID 0000.0001) %MON ke_mean                      =   3.0100373671605E-03
(PID.TID 0000.0001) %MON ke_vol                       =   1.3350064351420E+18
(PID.TID 0000.0001) %MON vort_r_min                   =  -7.1531695839496E-05
(PID.TID 0000.0001) %MON vort_r_max                   =   7.5828890667351E-05
(PID.TID 0000.0001) %MON vort_a_mean                  =  -1.9725077155197E-05
(PID.TID 0000.0001) %MON vort_a_sd                    =   7.4544072019726E-05
(PID.TID 0000.0001) %MON vort_p_mean                  =  -2.1669082142445E-05
(PID.TID 0000.0001) %MON vort_p_sd                    =   9.3621178992121E-05
(PID.TID 0000.0001) %MON surfExpan_theta_mean         =  -2.1208647602335E-05
(PID.TID 0000.0001) %MON surfExpan_salt_mean          =  -6.6731526520286E-05
(PID.TID 0000.0001) // =======================================================
(PID.TID 0000.0001) // End MONITOR dynamic field statistics
(PID.TID 0000.0001) // =======================================================
(PID.TID 0000.0001) // =======================================================
(PID.TID 0000.0001) // Begin MONITOR SEAICE statistics
(PID.TID 0000.0001) // =======================================================
(PID.TID 0000.0001) %MON seaice_tsnumber              =                174933
(PID.TID 0000.0001) %MON seaice_time_sec              =   7.8719850000000E+07
(PID.TID 0000.0001) %MON seaice_uice_max              =   1.2330366063435E+00
(PID.TID 0000.0001) %MON seaice_uice_min              =  -1.2548375203485E+00
(PID.TID 0000.0001) %MON seaice_uice_mean             =   8.7339966806854E-03
(PID.TID 0000.0001) %MON seaice_uice_sd               =   1.4991589855806E-01
(PID.TID 0000.0001) %MON seaice_uice_del2             =   3.9359781052239E-04
(PID.TID 0000.0001) %MON seaice_vice_max              =   1.0584410304449E+00
(PID.TID 0000.0001) %MON seaice_vice_min              =  -1.5282989302002E+00
(PID.TID 0000.0001) %MON seaice_vice_mean             =  -2.0228575032673E-02
(PID.TID 0000.0001) %MON seaice_vice_sd               =   1.6462503655728E-01
(PID.TID 0000.0001) %MON seaice_vice_del2             =   3.8616785505275E-04
(PID.TID 0000.0001) %MON seaice_area_max              =   1.0010878231260E+00
(PID.TID 0000.0001) %MON seaice_area_min              =   0.0000000000000E+00
(PID.TID 0000.0001) %MON seaice_area_mean             =   5.7759277790787E-02
(PID.TID 0000.0001) %MON seaice_area_sd               =   2.2075409093041E-01
(PID.TID 0000.0001) %MON seaice_area_del2             =   2.8219126565645E-04
(PID.TID 0000.0001) %MON seaice_heff_max              =   9.9471222449643E+00
(PID.TID 0000.0001) %MON seaice_heff_min              =   0.0000000000000E+00
(PID.TID 0000.0001) %MON seaice_heff_mean             =   1.4917663565555E-01
(PID.TID 0000.0001) %MON seaice_heff_sd               =   7.1886770390676E-01
(PID.TID 0000.0001) %MON seaice_heff_del2             =   1.3014675438655E-03
(PID.TID 0000.0001) %MON seaice_hsnow_max             =   3.2855547951125E+00
(PID.TID 0000.0001) %MON seaice_hsnow_min             =   0.0000000000000E+00
(PID.TID 0000.0001) %MON seaice_hsnow_mean            =   1.2561233127254E-02
(PID.TID 0000.0001) %MON seaice_hsnow_sd              =   6.7051708843442E-02
(PID.TID 0000.0001) %MON seaice_hsnow_del2            =   3.4287966232737E-04
(PID.TID 0000.0001) // =======================================================
(PID.TID 0000.0001) // End MONITOR SEAICE statistics
(PID.TID 0000.0001) // =======================================================
(PID.TID 0000.0001) // =======================================================
(PID.TID 0000.0001) // Begin MONITOR dynamic field statistics
(PID.TID 0000.0001) // =======================================================
(PID.TID 0000.0001) %MON time_tsnumber                =                174934
(PID.TID 0000.0001) %MON time_secondsf                =   7.8720300000000E+07
(PID.TID 0000.0001) %MON dynstat_eta_max              =   2.8750130559981E+00
(PID.TID 0000.0001) %MON dynstat_eta_min              =  -1.0516668396561E+01
(PID.TID 0000.0001) %MON dynstat_eta_mean             =   7.4574769841891E-02
(PID.TID 0000.0001) %MON dynstat_eta_sd               =   1.0631370702176E+00
(PID.TID 0000.0001) %MON dynstat_eta_del2             =   2.0125179893301E-03
(PID.TID 0000.0001) %MON dynstat_uvel_max             =   1.4715686876527E+00
(PID.TID 0000.0001) %MON dynstat_uvel_min             =  -2.3420898619226E+00
(PID.TID 0000.0001) %MON dynstat_uvel_mean            =   6.6964726795364E-03
(PID.TID 0000.0001) %MON dynstat_uvel_sd              =   5.4681110942711E-02
(PID.TID 0000.0001) %MON dynstat_uvel_del2            =   4.8447759336636E-05
(PID.TID 0000.0001) %MON dynstat_vvel_max             =   1.9951249637304E+00
(PID.TID 0000.0001) %MON dynstat_vvel_min             =  -1.7059446947533E+00
(PID.TID 0000.0001) %MON dynstat_vvel_mean            =   1.5609473528876E-03
(PID.TID 0000.0001) %MON dynstat_vvel_sd              =   5.7168014795308E-02
(PID.TID 0000.0001) %MON dynstat_vvel_del2            =   4.7252985488972E-05
(PID.TID 0000.0001) %MON dynstat_wvel_max             =   1.3205065164006E-02
(PID.TID 0000.0001) %MON dynstat_wvel_min             =  -1.1096659982480E-02
(PID.TID 0000.0001) %MON dynstat_wvel_mean            =  -8.3700244416710E-07
(PID.TID 0000.0001) %MON dynstat_wvel_sd              =   2.1090160222869E-04
(PID.TID 0000.0001) %MON dynstat_wvel_del2            =   4.2401773780265E-07
(PID.TID 0000.0001) %MON dynstat_theta_max            =   3.2363338311878E+01
(PID.TID 0000.0001) %MON dynstat_theta_min            =  -2.0343472954066E+00
(PID.TID 0000.0001) %MON dynstat_theta_mean           =   3.5917767280637E+00
(PID.TID 0000.0001) %MON dynstat_theta_sd             =   4.4413921632062E+00
(PID.TID 0000.0001) %MON dynstat_theta_del2           =   1.3128352869005E-04
(PID.TID 0000.0001) %MON dynstat_salt_max             =   4.0655989276605E+01
(PID.TID 0000.0001) %MON dynstat_salt_min             =   1.5907323638312E+01
(PID.TID 0000.0001) %MON dynstat_salt_mean            =   3.4724781223233E+01
(PID.TID 0000.0001) %MON dynstat_salt_sd              =   3.7979665972779E-01
(PID.TID 0000.0001) %MON dynstat_salt_del2            =   6.1794932352247E-05
(PID.TID 0000.0001) %MON dynstat_sst_max              =   3.2363338311878E+01
(PID.TID 0000.0001) %MON dynstat_sst_min              =  -2.0343472954066E+00
(PID.TID 0000.0001) %MON dynstat_sst_mean             =   1.8175999254659E+01
(PID.TID 0000.0001) %MON dynstat_sst_sd               =   1.0214880768053E+01
(PID.TID 0000.0001) %MON dynstat_sst_del2             =   1.0920486812083E-03
(PID.TID 0000.0001) %MON dynstat_sss_max              =   3.9464274092928E+01
(PID.TID 0000.0001) %MON dynstat_sss_min              =   1.5907323638312E+01
(PID.TID 0000.0001) %MON dynstat_sss_mean             =   3.4640442927391E+01
(PID.TID 0000.0001) %MON dynstat_sss_sd               =   1.3051954730211E+00
(PID.TID 0000.0001) %MON dynstat_sss_del2             =   1.4724726295270E-03
(PID.TID 0000.0001) %MON forcing_qnet_max             =   2.8125444335938E+03
(PID.TID 0000.0001) %MON forcing_qnet_min             =  -1.4658060327707E+04
(PID.TID 0000.0001) %MON forcing_qnet_mean            =  -1.9194446404934E+01
(PID.TID 0000.0001) %MON forcing_qnet_sd              =   2.2244497536322E+02
(PID.TID 0000.0001) %MON forcing_qnet_del2            =   7.6395297237458E-01
(PID.TID 0000.0001) %MON forcing_qsw_max              =   0.0000000000000E+00
(PID.TID 0000.0001) %MON forcing_qsw_min              =  -1.1238627103135E+02
(PID.TID 0000.0001) %MON forcing_qsw_mean             =  -2.1741040148542E+01
(PID.TID 0000.0001) %MON forcing_qsw_sd               =   3.1800244535429E+01
(PID.TID 0000.0001) %MON forcing_qsw_del2             =   2.0906013671475E-02
(PID.TID 0000.0001) %MON forcing_empmr_max            =   2.4607205763459E-02
(PID.TID 0000.0001) %MON forcing_empmr_min            =  -9.9172972142696E-02
(PID.TID 0000.0001) %MON forcing_empmr_mean           =  -2.9360391386145E-06
(PID.TID 0000.0001) %MON forcing_empmr_sd             =   4.4671893254324E-04
(PID.TID 0000.0001) %MON forcing_empmr_del2           =   5.3014271272741E-06
(PID.TID 0000.0001) %MON forcing_fu_max               =   8.5417759418487E-01
(PID.TID 0000.0001) %MON forcing_fu_min               =  -1.2314724469648E+00
(PID.TID 0000.0001) %MON forcing_fu_mean              =   1.0591882466338E-02
(PID.TID 0000.0001) %MON forcing_fu_sd                =   1.2545417069956E-01
(PID.TID 0000.0001) %MON forcing_fu_del2              =   1.6469958037348E-04
(PID.TID 0000.0001) %MON forcing_fv_max               =   1.1275438070297E+00
(PID.TID 0000.0001) %MON forcing_fv_min               =  -1.2531527280807E+00
(PID.TID 0000.0001) %MON forcing_fv_mean              =   9.2680554345876E-04
(PID.TID 0000.0001) %MON forcing_fv_sd                =   1.2348335721580E-01
(PID.TID 0000.0001) %MON forcing_fv_del2              =   1.6534650250853E-04
(PID.TID 0000.0001) %MON trAdv_CFL_u_max              =   2.0991854666925E-02
(PID.TID 0000.0001) %MON trAdv_CFL_v_max              =   1.9309330889906E-02
(PID.TID 0000.0001) %MON trAdv_CFL_w_max              =   9.9146503055850E-02
(PID.TID 0000.0001) %MON advcfl_uvel_max              =   2.1272649964865E-02
(PID.TID 0000.0001) %MON advcfl_vvel_max              =   1.9247108865370E-02
(PID.TID 0000.0001) %MON advcfl_wvel_max              =   9.3360490873296E-02
(PID.TID 0000.0001) %MON advcfl_W_hf_max              =   9.9146503055850E-02
(PID.TID 0000.0001) %MON pe_b_mean                    =   2.4054126312691E-03
(PID.TID 0000.0001) %MON ke_max                       =   2.1499339727169E+00
(PID.TID 0000.0001) %MON ke_mean                      =   3.0404509433249E-03
(PID.TID 0000.0001) %MON ke_vol                       =   1.3350064351420E+18
(PID.TID 0000.0001) %MON vort_r_min                   =  -7.1570501501863E-05
(PID.TID 0000.0001) %MON vort_r_max                   =   7.5634642576000E-05
(PID.TID 0000.0001) %MON vort_a_mean                  =  -1.9725077150602E-05
(PID.TID 0000.0001) %MON vort_a_sd                    =   7.4544132780762E-05
(PID.TID 0000.0001) %MON vort_p_mean                  =  -2.1669082137397E-05
(PID.TID 0000.0001) %MON vort_p_sd                    =   9.3621220104910E-05
(PID.TID 0000.0001) %MON surfExpan_theta_mean         =  -2.2868068364137E-05
(PID.TID 0000.0001) %MON surfExpan_salt_mean          =  -6.8058797787163E-05
(PID.TID 0000.0001) // =======================================================
(PID.TID 0000.0001) // End MONITOR dynamic field statistics
(PID.TID 0000.0001) // =======================================================
(PID.TID 0000.0001) // =======================================================
(PID.TID 0000.0001) // Begin MONITOR SEAICE statistics
(PID.TID 0000.0001) // =======================================================
(PID.TID 0000.0001) %MON seaice_tsnumber              =                174934
(PID.TID 0000.0001) %MON seaice_time_sec              =   7.8720300000000E+07
(PID.TID 0000.0001) %MON seaice_uice_max              =   1.2387908196488E+00
(PID.TID 0000.0001) %MON seaice_uice_min              =  -1.2451303130592E+00
(PID.TID 0000.0001) %MON seaice_uice_mean             =   8.6996977041751E-03
(PID.TID 0000.0001) %MON seaice_uice_sd               =   1.4991498618924E-01
(PID.TID 0000.0001) %MON seaice_uice_del2             =   3.9425457668324E-04
(PID.TID 0000.0001) %MON seaice_vice_max              =   1.0610512629695E+00
(PID.TID 0000.0001) %MON seaice_vice_min              =  -1.5297318592512E+00
(PID.TID 0000.0001) %MON seaice_vice_mean             =  -2.0380712222216E-02
(PID.TID 0000.0001) %MON seaice_vice_sd               =   1.6477590297971E-01
(PID.TID 0000.0001) %MON seaice_vice_del2             =   3.8661468096016E-04
(PID.TID 0000.0001) %MON seaice_area_max              =   1.0010679313952E+00
(PID.TID 0000.0001) %MON seaice_area_min              =   0.0000000000000E+00
(PID.TID 0000.0001) %MON seaice_area_mean             =   5.7763308931337E-02
(PID.TID 0000.0001) %MON seaice_area_sd               =   2.2075508719183E-01
(PID.TID 0000.0001) %MON seaice_area_del2             =   2.8219897822557E-04
(PID.TID 0000.0001) %MON seaice_heff_max              =   9.9471203544702E+00
(PID.TID 0000.0001) %MON seaice_heff_min              =   0.0000000000000E+00
(PID.TID 0000.0001) %MON seaice_heff_mean             =   1.4917345570596E-01
(PID.TID 0000.0001) %MON seaice_heff_sd               =   7.1885448303259E-01
(PID.TID 0000.0001) %MON seaice_heff_del2             =   1.3008613158700E-03
(PID.TID 0000.0001) %MON seaice_hsnow_max             =   3.2855542984076E+00
(PID.TID 0000.0001) %MON seaice_hsnow_min             =   0.0000000000000E+00
(PID.TID 0000.0001) %MON seaice_hsnow_mean            =   1.2560524947530E-02
(PID.TID 0000.0001) %MON seaice_hsnow_sd              =   6.7040678438380E-02
(PID.TID 0000.0001) %MON seaice_hsnow_del2            =   3.4260523591954E-04
(PID.TID 0000.0001) // =======================================================
(PID.TID 0000.0001) // End MONITOR SEAICE statistics
(PID.TID 0000.0001) // =======================================================
(PID.TID 0000.0001) // =======================================================
(PID.TID 0000.0001) // Begin MONITOR dynamic field statistics
(PID.TID 0000.0001) // =======================================================
(PID.TID 0000.0001) %MON time_tsnumber                =                174935
(PID.TID 0000.0001) %MON time_secondsf                =   7.8720750000000E+07
(PID.TID 0000.0001) %MON dynstat_eta_max              =   2.8798247351808E+00
(PID.TID 0000.0001) %MON dynstat_eta_min              =  -1.0531691587968E+01
(PID.TID 0000.0001) %MON dynstat_eta_mean             =   7.3667314560779E-02
(PID.TID 0000.0001) %MON dynstat_eta_sd               =   1.0652299183078E+00
(PID.TID 0000.0001) %MON dynstat_eta_del2             =   2.0125359368103E-03
(PID.TID 0000.0001) %MON dynstat_uvel_max             =   1.4813715339660E+00
(PID.TID 0000.0001) %MON dynstat_uvel_min             =  -2.3420855191795E+00
(PID.TID 0000.0001) %MON dynstat_uvel_mean            =   6.7157417695169E-03
(PID.TID 0000.0001) %MON dynstat_uvel_sd              =   5.4935027411572E-02
(PID.TID 0000.0001) %MON dynstat_uvel_del2            =   4.8581787171781E-05
(PID.TID 0000.0001) %MON dynstat_vvel_max             =   2.0002432540078E+00
(PID.TID 0000.0001) %MON dynstat_vvel_min             =  -1.7031197424456E+00
(PID.TID 0000.0001) %MON dynstat_vvel_mean            =   1.5387434475447E-03
(PID.TID 0000.0001) %MON dynstat_vvel_sd              =   5.7478129945443E-02
(PID.TID 0000.0001) %MON dynstat_vvel_del2            =   4.7385803449714E-05
(PID.TID 0000.0001) %MON dynstat_wvel_max             =   1.3275418121299E-02
(PID.TID 0000.0001) %MON dynstat_wvel_min             =  -1.1137975504145E-02
(PID.TID 0000.0001) %MON dynstat_wvel_mean            =  -8.6054386612758E-07
(PID.TID 0000.0001) %MON dynstat_wvel_sd              =   2.1158497429126E-04
(PID.TID 0000.0001) %MON dynstat_wvel_del2            =   4.2495983234821E-07
(PID.TID 0000.0001) %MON dynstat_theta_max            =   3.2362382188341E+01
(PID.TID 0000.0001) %MON dynstat_theta_min            =  -2.0340732397878E+00
(PID.TID 0000.0001) %MON dynstat_theta_mean           =   3.5917801020728E+00
(PID.TID 0000.0001) %MON dynstat_theta_sd             =   4.4414017660881E+00
(PID.TID 0000.0001) %MON dynstat_theta_del2           =   1.3134820019743E-04
(PID.TID 0000.0001) %MON dynstat_salt_max             =   4.0655989276397E+01
(PID.TID 0000.0001) %MON dynstat_salt_min             =   1.5906944281885E+01
(PID.TID 0000.0001) %MON dynstat_salt_mean            =   3.4724781135661E+01
(PID.TID 0000.0001) %MON dynstat_salt_sd              =   3.7979782348635E-01
(PID.TID 0000.0001) %MON dynstat_salt_del2            =   6.1778283835689E-05
(PID.TID 0000.0001) %MON dynstat_sst_max              =   3.2362382188341E+01
(PID.TID 0000.0001) %MON dynstat_sst_min              =  -2.0340732397878E+00
(PID.TID 0000.0001) %MON dynstat_sst_mean             =   1.8176181861476E+01
(PID.TID 0000.0001) %MON dynstat_sst_sd               =   1.0215193005733E+01
(PID.TID 0000.0001) %MON dynstat_sst_del2             =   1.0918399996992E-03
(PID.TID 0000.0001) %MON dynstat_sss_max              =   3.9464334274426E+01
(PID.TID 0000.0001) %MON dynstat_sss_min              =   1.5906944281885E+01
(PID.TID 0000.0001) %MON dynstat_sss_mean             =   3.4640427944876E+01
(PID.TID 0000.0001) %MON dynstat_sss_sd               =   1.3052321597419E+00
(PID.TID 0000.0001) %MON dynstat_sss_del2             =   1.4728657663813E-03
(PID.TID 0000.0001) %MON forcing_qnet_max             =   3.0832548828125E+03
(PID.TID 0000.0001) %MON forcing_qnet_min             =  -7.1929018554688E+03
(PID.TID 0000.0001) %MON forcing_qnet_mean            =  -1.9372195941896E+01
(PID.TID 0000.0001) %MON forcing_qnet_sd              =   2.1931188277667E+02
(PID.TID 0000.0001) %MON forcing_qnet_del2            =   5.3171211987281E-01
(PID.TID 0000.0001) %MON forcing_qsw_max              =   0.0000000000000E+00
(PID.TID 0000.0001) %MON forcing_qsw_min              =  -1.1243097964460E+02
(PID.TID 0000.0001) %MON forcing_qsw_mean             =  -2.1860023999825E+01
(PID.TID 0000.0001) %MON forcing_qsw_sd               =   3.1921673226795E+01
(PID.TID 0000.0001) %MON forcing_qsw_del2             =   2.0897535268808E-02
(PID.TID 0000.0001) %MON forcing_empmr_max            =   2.9307184740901E-02
(PID.TID 0000.0001) %MON forcing_empmr_min            =  -1.0323455929756E-01
(PID.TID 0000.0001) %MON forcing_empmr_mean           =  -2.7020857958562E-06
(PID.TID 0000.0001) %MON forcing_empmr_sd             =   4.4927476683185E-04
(PID.TID 0000.0001) %MON forcing_empmr_del2           =   5.3233883868544E-06
(PID.TID 0000.0001) %MON forcing_fu_max               =   8.5274788737297E-01
(PID.TID 0000.0001) %MON forcing_fu_min               =  -1.2269099238032E+00
(PID.TID 0000.0001) %MON forcing_fu_mean              =   1.0566149716402E-02
(PID.TID 0000.0001) %MON forcing_fu_sd                =   1.2547478468523E-01
(PID.TID 0000.0001) %MON forcing_fu_del2              =   1.6476223347858E-04
(PID.TID 0000.0001) %MON forcing_fv_max               =   1.1228886246681E+00
(PID.TID 0000.0001) %MON forcing_fv_min               =  -1.2493791580200E+00
(PID.TID 0000.0001) %MON forcing_fv_mean              =   9.3432086309465E-04
(PID.TID 0000.0001) %MON forcing_fv_sd                =   1.2350420968240E-01
(PID.TID 0000.0001) %MON forcing_fv_del2              =   1.6541783380066E-04
(PID.TID 0000.0001) %MON trAdv_CFL_u_max              =   2.0940784679264E-02
(PID.TID 0000.0001) %MON trAdv_CFL_v_max              =   1.9278675046443E-02
(PID.TID 0000.0001) %MON trAdv_CFL_w_max              =   9.9041966600167E-02
(PID.TID 0000.0001) %MON advcfl_uvel_max              =   2.1220896844978E-02
(PID.TID 0000.0001) %MON advcfl_vvel_max              =   1.9216551806719E-02
(PID.TID 0000.0001) %MON advcfl_wvel_max              =   9.3262823874484E-02
(PID.TID 0000.0001) %MON advcfl_W_hf_max              =   9.9041966600167E-02
(PID.TID 0000.0001) %MON pe_b_mean                    =   2.3851993160916E-03
(PID.TID 0000.0001) %MON ke_max                       =   2.1538754203180E+00
(PID.TID 0000.0001) %MON ke_mean                      =   3.0711072738405E-03
(PID.TID 0000.0001) %MON ke_vol                       =   1.3350064351420E+18
(PID.TID 0000.0001) %MON vort_r_min                   =  -7.1606748031662E-05
(PID.TID 0000.0001) %MON vort_r_max                   =   7.5438326690746E-05
(PID.TID 0000.0001) %MON vort_a_mean                  =  -1.9725077144430E-05
(PID.TID 0000.0001) %MON vort_a_sd                    =   7.4544194127467E-05
(PID.TID 0000.0001) %MON vort_p_mean                  =  -2.1669082130617E-05
(PID.TID 0000.0001) %MON vort_p_sd                    =   9.3621260508697E-05
(PID.TID 0000.0001) %MON surfExpan_theta_mean         =  -2.4485694509571E-05
(PID.TID 0000.0001) %MON surfExpan_salt_mean          =  -6.9283722883913E-05
(PID.TID 0000.0001) // =======================================================
(PID.TID 0000.0001) // End MONITOR dynamic field statistics
(PID.TID 0000.0001) // =======================================================
(PID.TID 0000.0001) // =======================================================
(PID.TID 0000.0001) // Begin MONITOR SEAICE statistics
(PID.TID 0000.0001) // =======================================================
(PID.TID 0000.0001) %MON seaice_tsnumber              =                174935
(PID.TID 0000.0001) %MON seaice_time_sec              =   7.8720750000000E+07
(PID.TID 0000.0001) %MON seaice_uice_max              =   1.2443956068265E+00
(PID.TID 0000.0001) %MON seaice_uice_min              =  -1.2358225348077E+00
(PID.TID 0000.0001) %MON seaice_uice_mean             =   8.6658314760729E-03
(PID.TID 0000.0001) %MON seaice_uice_sd               =   1.4992345663452E-01
(PID.TID 0000.0001) %MON seaice_uice_del2             =   3.9477442098489E-04
(PID.TID 0000.0001) %MON seaice_vice_max              =   1.0635502921586E+00
(PID.TID 0000.0001) %MON seaice_vice_min              =  -1.5311265252252E+00
(PID.TID 0000.0001) %MON seaice_vice_mean             =  -2.0527781640685E-02
(PID.TID 0000.0001) %MON seaice_vice_sd               =   1.6493340368448E-01
(PID.TID 0000.0001) %MON seaice_vice_del2             =   3.8705522229248E-04
(PID.TID 0000.0001) %MON seaice_area_max              =   1.0010472217032E+00
(PID.TID 0000.0001) %MON seaice_area_min              =   0.0000000000000E+00
(PID.TID 0000.0001) %MON seaice_area_mean             =   5.7767392883785E-02
(PID.TID 0000.0001) %MON seaice_area_sd               =   2.2075615805379E-01
(PID.TID 0000.0001) %MON seaice_area_del2             =   2.8220802528355E-04
(PID.TID 0000.0001) %MON seaice_heff_max              =   9.9471194172633E+00
(PID.TID 0000.0001) %MON seaice_heff_min              =   0.0000000000000E+00
(PID.TID 0000.0001) %MON seaice_heff_mean             =   1.4917029150998E-01
(PID.TID 0000.0001) %MON seaice_heff_sd               =   7.1884125208782E-01
(PID.TID 0000.0001) %MON seaice_heff_del2             =   1.3002564269497E-03
(PID.TID 0000.0001) %MON seaice_hsnow_max             =   3.2855540483927E+00
(PID.TID 0000.0001) %MON seaice_hsnow_min             =   0.0000000000000E+00
(PID.TID 0000.0001) %MON seaice_hsnow_mean            =   1.2559828057027E-02
(PID.TID 0000.0001) %MON seaice_hsnow_sd              =   6.7029681548874E-02
(PID.TID 0000.0001) %MON seaice_hsnow_del2            =   3.4233165091608E-04
(PID.TID 0000.0001) // =======================================================
(PID.TID 0000.0001) // End MONITOR SEAICE statistics
(PID.TID 0000.0001) // =======================================================
(PID.TID 0000.0001) // =======================================================
(PID.TID 0000.0001) // Begin MONITOR dynamic field statistics
(PID.TID 0000.0001) // =======================================================
(PID.TID 0000.0001) %MON time_tsnumber                =                174936
(PID.TID 0000.0001) %MON time_secondsf                =   7.8721200000000E+07
(PID.TID 0000.0001) %MON dynstat_eta_max              =   2.8832621770356E+00
(PID.TID 0000.0001) %MON dynstat_eta_min              =  -1.0545859042329E+01
(PID.TID 0000.0001) %MON dynstat_eta_mean             =   7.2747674491353E-02
(PID.TID 0000.0001) %MON dynstat_eta_sd               =   1.0673033274077E+00
(PID.TID 0000.0001) %MON dynstat_eta_del2             =   2.0125473956005E-03
(PID.TID 0000.0001) %MON dynstat_uvel_max             =   1.4910674024510E+00
(PID.TID 0000.0001) %MON dynstat_uvel_min             =  -2.3419642313110E+00
(PID.TID 0000.0001) %MON dynstat_uvel_mean            =   6.7351542225985E-03
(PID.TID 0000.0001) %MON dynstat_uvel_sd              =   5.5189792508543E-02
(PID.TID 0000.0001) %MON dynstat_uvel_del2            =   4.8716362393547E-05
(PID.TID 0000.0001) %MON dynstat_vvel_max             =   2.0053689381779E+00
(PID.TID 0000.0001) %MON dynstat_vvel_min             =  -1.7002051986726E+00
(PID.TID 0000.0001) %MON dynstat_vvel_mean            =   1.5180515630104E-03
(PID.TID 0000.0001) %MON dynstat_vvel_sd              =   5.7788916357646E-02
(PID.TID 0000.0001) %MON dynstat_vvel_del2            =   4.7519050643654E-05
(PID.TID 0000.0001) %MON dynstat_wvel_max             =   1.3344603986157E-02
(PID.TID 0000.0001) %MON dynstat_wvel_min             =  -1.1179672136444E-02
(PID.TID 0000.0001) %MON dynstat_wvel_mean            =  -8.8227341203976E-07
(PID.TID 0000.0001) %MON dynstat_wvel_sd              =   2.1226667614773E-04
(PID.TID 0000.0001) %MON dynstat_wvel_del2            =   4.2589594351269E-07
(PID.TID 0000.0001) %MON dynstat_theta_max            =   3.2361515394829E+01
(PID.TID 0000.0001) %MON dynstat_theta_min            =  -2.0337805113379E+00
(PID.TID 0000.0001) %MON dynstat_theta_mean           =   3.5917836763359E+00
(PID.TID 0000.0001) %MON dynstat_theta_sd             =   4.4414118288101E+00
(PID.TID 0000.0001) %MON dynstat_theta_del2           =   1.3141431555152E-04
(PID.TID 0000.0001) %MON dynstat_salt_max             =   4.0655989276188E+01
(PID.TID 0000.0001) %MON dynstat_salt_min             =   1.5906563931395E+01
(PID.TID 0000.0001) %MON dynstat_salt_mean            =   3.4724781066314E+01
(PID.TID 0000.0001) %MON dynstat_salt_sd              =   3.7979901029128E-01
(PID.TID 0000.0001) %MON dynstat_salt_del2            =   6.1763992902622E-05
(PID.TID 0000.0001) %MON dynstat_sst_max              =   3.2361515394829E+01
(PID.TID 0000.0001) %MON dynstat_sst_min              =  -2.0337805113379E+00
(PID.TID 0000.0001) %MON dynstat_sst_mean             =   1.8176372208829E+01
(PID.TID 0000.0001) %MON dynstat_sst_sd               =   1.0215512543822E+01
(PID.TID 0000.0001) %MON dynstat_sst_del2             =   1.0919014890459E-03
(PID.TID 0000.0001) %MON dynstat_sss_max              =   3.9464411109213E+01
(PID.TID 0000.0001) %MON dynstat_sss_min              =   1.5906563931395E+01
(PID.TID 0000.0001) %MON dynstat_sss_mean             =   3.4640411716914E+01
(PID.TID 0000.0001) %MON dynstat_sss_sd               =   1.3052740559020E+00
(PID.TID 0000.0001) %MON dynstat_sss_del2             =   1.4734026997089E-03
(PID.TID 0000.0001) %MON forcing_qnet_max             =   4.7197500000000E+03
(PID.TID 0000.0001) %MON forcing_qnet_min             =  -3.4217885742188E+03
(PID.TID 0000.0001) %MON forcing_qnet_mean            =  -1.9906325682569E+01
(PID.TID 0000.0001) %MON forcing_qnet_sd              =   2.1685094917380E+02
(PID.TID 0000.0001) %MON forcing_qnet_del2            =   5.4126754234504E-01
(PID.TID 0000.0001) %MON forcing_qsw_max              =   0.0000000000000E+00
(PID.TID 0000.0001) %MON forcing_qsw_min              =  -1.1236494204710E+02
(PID.TID 0000.0001) %MON forcing_qsw_mean             =  -2.1967073573602E+01
(PID.TID 0000.0001) %MON forcing_qsw_sd               =   3.2029544754269E+01
(PID.TID 0000.0001) %MON forcing_qsw_del2             =   2.0884331838185E-02
(PID.TID 0000.0001) %MON forcing_empmr_max            =   3.3291287720203E-02
(PID.TID 0000.0001) %MON forcing_empmr_min            =  -1.0383505374193E-01
(PID.TID 0000.0001) %MON forcing_empmr_mean           =  -3.2663309429307E-06
(PID.TID 0000.0001) %MON forcing_empmr_sd             =   4.5520154565717E-04
(PID.TID 0000.0001) %MON forcing_empmr_del2           =   5.4221989920439E-06
(PID.TID 0000.0001) %MON forcing_fu_max               =   8.5095602273941E-01
(PID.TID 0000.0001) %MON forcing_fu_min               =  -1.2233742429499E+00
(PID.TID 0000.0001) %MON forcing_fu_mean              =   1.0538525566526E-02
(PID.TID 0000.0001) %MON forcing_fu_sd                =   1.2550313866149E-01
(PID.TID 0000.0001) %MON forcing_fu_del2              =   1.6487703228919E-04
(PID.TID 0000.0001) %MON forcing_fv_max               =   1.1172505021095E+00
(PID.TID 0000.0001) %MON forcing_fv_min               =  -1.2475277781487E+00
(PID.TID 0000.0001) %MON forcing_fv_mean              =   9.5253118261654E-04
(PID.TID 0000.0001) %MON forcing_fv_sd                =   1.2354550779375E-01
(PID.TID 0000.0001) %MON forcing_fv_del2              =   1.6540162767534E-04
(PID.TID 0000.0001) %MON trAdv_CFL_u_max              =   2.0889436617138E-02
(PID.TID 0000.0001) %MON trAdv_CFL_v_max              =   1.9252917295263E-02
(PID.TID 0000.0001) %MON trAdv_CFL_w_max              =   9.8931588857451E-02
(PID.TID 0000.0001) %MON advcfl_uvel_max              =   2.1168861930993E-02
(PID.TID 0000.0001) %MON advcfl_vvel_max              =   1.9190877056832E-02
(PID.TID 0000.0001) %MON advcfl_wvel_max              =   9.3160106948146E-02
(PID.TID 0000.0001) %MON advcfl_W_hf_max              =   9.8931588857451E-02
(PID.TID 0000.0001) %MON pe_b_mean                    =   2.3646189117118E-03
(PID.TID 0000.0001) %MON ke_max                       =   2.1576645312997E+00
(PID.TID 0000.0001) %MON ke_mean                      =   3.1020050845652E-03
(PID.TID 0000.0001) %MON ke_vol                       =   1.3350064351420E+18
(PID.TID 0000.0001) %MON vort_r_min                   =  -7.1640467964748E-05
(PID.TID 0000.0001) %MON vort_r_max                   =   7.5240215949460E-05
(PID.TID 0000.0001) %MON vort_a_mean                  =  -1.9725077136300E-05
(PID.TID 0000.0001) %MON vort_a_sd                    =   7.4544256031644E-05
(PID.TID 0000.0001) %MON vort_p_mean                  =  -2.1669082121686E-05
(PID.TID 0000.0001) %MON vort_p_sd                    =   9.3621300359462E-05
(PID.TID 0000.0001) %MON surfExpan_theta_mean         =  -2.6061193476520E-05
(PID.TID 0000.0001) %MON surfExpan_salt_mean          =  -7.0398126419336E-05
(PID.TID 0000.0001) // =======================================================
(PID.TID 0000.0001) // End MONITOR dynamic field statistics
(PID.TID 0000.0001) // =======================================================
(PID.TID 0000.0001) // =======================================================
(PID.TID 0000.0001) // Begin MONITOR SEAICE statistics
(PID.TID 0000.0001) // =======================================================
(PID.TID 0000.0001) %MON seaice_tsnumber              =                174936
(PID.TID 0000.0001) %MON seaice_time_sec              =   7.8721200000000E+07
(PID.TID 0000.0001) %MON seaice_uice_max              =   1.2498470689246E+00
(PID.TID 0000.0001) %MON seaice_uice_min              =  -1.2269427641232E+00
(PID.TID 0000.0001) %MON seaice_uice_mean             =   8.6340334172779E-03
(PID.TID 0000.0001) %MON seaice_uice_sd               =   1.4993533019938E-01
(PID.TID 0000.0001) %MON seaice_uice_del2             =   3.9530162443355E-04
(PID.TID 0000.0001) %MON seaice_vice_max              =   1.0659422468437E+00
(PID.TID 0000.0001) %MON seaice_vice_min              =  -1.5324863489411E+00
(PID.TID 0000.0001) %MON seaice_vice_mean             =  -2.0666167978396E-02
(PID.TID 0000.0001) %MON seaice_vice_sd               =   1.6509322288461E-01
(PID.TID 0000.0001) %MON seaice_vice_del2             =   3.8750410805323E-04
(PID.TID 0000.0001) %MON seaice_area_max              =   1.0010263601847E+00
(PID.TID 0000.0001) %MON seaice_area_min              =   0.0000000000000E+00
(PID.TID 0000.0001) %MON seaice_area_mean             =   5.7771510375403E-02
(PID.TID 0000.0001) %MON seaice_area_sd               =   2.2075727532014E-01
(PID.TID 0000.0001) %MON seaice_area_del2             =   2.8222210606008E-04
(PID.TID 0000.0001) %MON seaice_heff_max              =   9.9471194333944E+00
(PID.TID 0000.0001) %MON seaice_heff_min              =   0.0000000000000E+00
(PID.TID 0000.0001) %MON seaice_heff_mean             =   1.4916713789562E-01
(PID.TID 0000.0001) %MON seaice_heff_sd               =   7.1882801638745E-01
(PID.TID 0000.0001) %MON seaice_heff_del2             =   1.2996544571324E-03
(PID.TID 0000.0001) %MON seaice_hsnow_max             =   3.2855538052877E+00
(PID.TID 0000.0001) %MON seaice_hsnow_min             =   0.0000000000000E+00
(PID.TID 0000.0001) %MON seaice_hsnow_mean            =   1.2559139230978E-02
(PID.TID 0000.0001) %MON seaice_hsnow_sd              =   6.7018687645046E-02
(PID.TID 0000.0001) %MON seaice_hsnow_del2            =   3.4205934680853E-04
(PID.TID 0000.0001) // =======================================================
(PID.TID 0000.0001) // End MONITOR SEAICE statistics
(PID.TID 0000.0001) // =======================================================
(PID.TID 0000.0001) // =======================================================
(PID.TID 0000.0001) // Begin MONITOR dynamic field statistics
(PID.TID 0000.0001) // =======================================================
(PID.TID 0000.0001) %MON time_tsnumber                =                174937
(PID.TID 0000.0001) %MON time_secondsf                =   7.8721650000000E+07
(PID.TID 0000.0001) %MON dynstat_eta_max              =   2.8869305806539E+00
(PID.TID 0000.0001) %MON dynstat_eta_min              =  -1.0559114996590E+01
(PID.TID 0000.0001) %MON dynstat_eta_mean             =   7.1816447054185E-02
(PID.TID 0000.0001) %MON dynstat_eta_sd               =   1.0693578690691E+00
(PID.TID 0000.0001) %MON dynstat_eta_del2             =   2.0125584410571E-03
(PID.TID 0000.0001) %MON dynstat_uvel_max             =   1.5006558971253E+00
(PID.TID 0000.0001) %MON dynstat_uvel_min             =  -2.3417241609753E+00
(PID.TID 0000.0001) %MON dynstat_uvel_mean            =   6.7545294636377E-03
(PID.TID 0000.0001) %MON dynstat_uvel_sd              =   5.5445347169154E-02
(PID.TID 0000.0001) %MON dynstat_uvel_del2            =   4.8851232815289E-05
(PID.TID 0000.0001) %MON dynstat_vvel_max             =   2.0104997571171E+00
(PID.TID 0000.0001) %MON dynstat_vvel_min             =  -1.6972002500610E+00
(PID.TID 0000.0001) %MON dynstat_vvel_mean            =   1.4988488776544E-03
(PID.TID 0000.0001) %MON dynstat_vvel_sd              =   5.8100270921167E-02
(PID.TID 0000.0001) %MON dynstat_vvel_del2            =   4.7652622894258E-05
(PID.TID 0000.0001) %MON dynstat_wvel_max             =   1.3412617203921E-02
(PID.TID 0000.0001) %MON dynstat_wvel_min             =  -1.1229941691635E-02
(PID.TID 0000.0001) %MON dynstat_wvel_mean            =  -9.0298463669596E-07
(PID.TID 0000.0001) %MON dynstat_wvel_sd              =   2.1294664796902E-04
(PID.TID 0000.0001) %MON dynstat_wvel_del2            =   4.2682603564086E-07
(PID.TID 0000.0001) %MON dynstat_theta_max            =   3.2360741268622E+01
(PID.TID 0000.0001) %MON dynstat_theta_min            =  -2.0334802293645E+00
(PID.TID 0000.0001) %MON dynstat_theta_mean           =   3.5917874456494E+00
(PID.TID 0000.0001) %MON dynstat_theta_sd             =   4.4414223326073E+00
(PID.TID 0000.0001) %MON dynstat_theta_del2           =   1.3148092399489E-04
(PID.TID 0000.0001) %MON dynstat_salt_max             =   4.0655989275979E+01
(PID.TID 0000.0001) %MON dynstat_salt_min             =   1.5906182418432E+01
(PID.TID 0000.0001) %MON dynstat_salt_mean            =   3.4724781017826E+01
(PID.TID 0000.0001) %MON dynstat_salt_sd              =   3.7980019154682E-01
(PID.TID 0000.0001) %MON dynstat_salt_del2            =   6.1750670472391E-05
(PID.TID 0000.0001) %MON dynstat_sst_max              =   3.2360741268622E+01
(PID.TID 0000.0001) %MON dynstat_sst_min              =  -2.0334802293645E+00
(PID.TID 0000.0001) %MON dynstat_sst_mean             =   1.8176564635505E+01
(PID.TID 0000.0001) %MON dynstat_sst_sd               =   1.0215831170821E+01
(PID.TID 0000.0001) %MON dynstat_sst_del2             =   1.0920087770923E-03
(PID.TID 0000.0001) %MON dynstat_sss_max              =   3.9464511299679E+01
(PID.TID 0000.0001) %MON dynstat_sss_min              =   1.5906182418432E+01
(PID.TID 0000.0001) %MON dynstat_sss_mean             =   3.4640397092476E+01
(PID.TID 0000.0001) %MON dynstat_sss_sd               =   1.3053136577328E+00
(PID.TID 0000.0001) %MON dynstat_sss_del2             =   1.4739711997289E-03
(PID.TID 0000.0001) %MON forcing_qnet_max             =   1.4810268554688E+03
(PID.TID 0000.0001) %MON forcing_qnet_min             =  -2.2590884481458E+03
(PID.TID 0000.0001) %MON forcing_qnet_mean            =  -2.0349623990257E+01
(PID.TID 0000.0001) %MON forcing_qnet_sd              =   2.1626430563924E+02
(PID.TID 0000.0001) %MON forcing_qnet_del2            =   4.0860584241146E-01
(PID.TID 0000.0001) %MON forcing_qsw_max              =   0.0000000000000E+00
(PID.TID 0000.0001) %MON forcing_qsw_min              =  -1.1230581439448E+02
(PID.TID 0000.0001) %MON forcing_qsw_mean             =  -2.2062346777014E+01
(PID.TID 0000.0001) %MON forcing_qsw_sd               =   3.2123299821596E+01
(PID.TID 0000.0001) %MON forcing_qsw_del2             =   2.0866445184452E-02
(PID.TID 0000.0001) %MON forcing_empmr_max            =   2.3871527984738E-02
(PID.TID 0000.0001) %MON forcing_empmr_min            =  -1.0746710002422E-01
(PID.TID 0000.0001) %MON forcing_empmr_mean           =  -3.2338524118716E-06
(PID.TID 0000.0001) %MON forcing_empmr_sd             =   4.4736128027377E-04
(PID.TID 0000.0001) %MON forcing_empmr_del2           =   5.2747972254414E-06
(PID.TID 0000.0001) %MON forcing_fu_max               =   8.3303096890449E-01
(PID.TID 0000.0001) %MON forcing_fu_min               =  -1.2215250675106E+00
(PID.TID 0000.0001) %MON forcing_fu_mean              =   1.0511339922016E-02
(PID.TID 0000.0001) %MON forcing_fu_sd                =   1.2553962786243E-01
(PID.TID 0000.0001) %MON forcing_fu_del2              =   1.6492505101963E-04
(PID.TID 0000.0001) %MON forcing_fv_max               =   1.1128922104836E+00
(PID.TID 0000.0001) %MON forcing_fv_min               =  -1.2545147538185E+00
(PID.TID 0000.0001) %MON forcing_fv_mean              =   9.7198397988259E-04
(PID.TID 0000.0001) %MON forcing_fv_sd                =   1.2360062798373E-01
(PID.TID 0000.0001) %MON forcing_fv_del2              =   1.6549369588673E-04
(PID.TID 0000.0001) %MON trAdv_CFL_u_max              =   2.0837846183233E-02
(PID.TID 0000.0001) %MON trAdv_CFL_v_max              =   1.9232261364824E-02
(PID.TID 0000.0001) %MON trAdv_CFL_w_max              =   9.8811361888986E-02
(PID.TID 0000.0001) %MON advcfl_uvel_max              =   2.1116581403169E-02
(PID.TID 0000.0001) %MON advcfl_vvel_max              =   1.9170287687675E-02
(PID.TID 0000.0001) %MON advcfl_wvel_max              =   9.3048324168925E-02
(PID.TID 0000.0001) %MON advcfl_W_hf_max              =   9.8811361888986E-02
(PID.TID 0000.0001) %MON pe_b_mean                    =   2.3436897244033E-03
(PID.TID 0000.0001) %MON ke_max                       =   2.1612983412124E+00
(PID.TID 0000.0001) %MON ke_mean                      =   3.1331353769990E-03
(PID.TID 0000.0001) %MON ke_vol                       =   1.3350064351420E+18
(PID.TID 0000.0001) %MON vort_r_min                   =  -7.1671694418341E-05
(PID.TID 0000.0001) %MON vort_r_max                   =   7.5040532191308E-05
(PID.TID 0000.0001) %MON vort_a_mean                  =  -1.9725077125748E-05
(PID.TID 0000.0001) %MON vort_a_sd                    =   7.4544318451390E-05
(PID.TID 0000.0001) %MON vort_p_mean                  =  -2.1669082110094E-05
(PID.TID 0000.0001) %MON vort_p_sd                    =   9.3621339207845E-05
(PID.TID 0000.0001) %MON surfExpan_theta_mean         =  -2.7600012179712E-05
(PID.TID 0000.0001) %MON surfExpan_salt_mean          =  -7.1447373669322E-05
(PID.TID 0000.0001) // =======================================================
(PID.TID 0000.0001) // End MONITOR dynamic field statistics
(PID.TID 0000.0001) // =======================================================
(PID.TID 0000.0001) // =======================================================
(PID.TID 0000.0001) // Begin MONITOR SEAICE statistics
(PID.TID 0000.0001) // =======================================================
(PID.TID 0000.0001) %MON seaice_tsnumber              =                174937
(PID.TID 0000.0001) %MON seaice_time_sec              =   7.8721650000000E+07
(PID.TID 0000.0001) %MON seaice_uice_max              =   1.2550824917376E+00
(PID.TID 0000.0001) %MON seaice_uice_min              =  -1.2185152654132E+00
(PID.TID 0000.0001) %MON seaice_uice_mean             =   8.6056655898115E-03
(PID.TID 0000.0001) %MON seaice_uice_sd               =   1.4995385490516E-01
(PID.TID 0000.0001) %MON seaice_uice_del2             =   3.9584973792757E-04
(PID.TID 0000.0001) %MON seaice_vice_max              =   1.0682210942441E+00
(PID.TID 0000.0001) %MON seaice_vice_min              =  -1.5338090516125E+00
(PID.TID 0000.0001) %MON seaice_vice_mean             =  -2.0795613433158E-02
(PID.TID 0000.0001) %MON seaice_vice_sd               =   1.6525698190152E-01
(PID.TID 0000.0001) %MON seaice_vice_del2             =   3.8796594382884E-04
(PID.TID 0000.0001) %MON seaice_area_max              =   1.0010212523334E+00
(PID.TID 0000.0001) %MON seaice_area_min              =   0.0000000000000E+00
(PID.TID 0000.0001) %MON seaice_area_mean             =   5.7775658864063E-02
(PID.TID 0000.0001) %MON seaice_area_sd               =   2.2075843363218E-01
(PID.TID 0000.0001) %MON seaice_area_del2             =   2.8224271602751E-04
(PID.TID 0000.0001) %MON seaice_heff_max              =   9.9471184960220E+00
(PID.TID 0000.0001) %MON seaice_heff_min              =   0.0000000000000E+00
(PID.TID 0000.0001) %MON seaice_heff_mean             =   1.4916399088255E-01
(PID.TID 0000.0001) %MON seaice_heff_sd               =   7.1881475811574E-01
(PID.TID 0000.0001) %MON seaice_heff_del2             =   1.2990557746871E-03
(PID.TID 0000.0001) %MON seaice_hsnow_max             =   3.2855537947120E+00
(PID.TID 0000.0001) %MON seaice_hsnow_min             =   0.0000000000000E+00
(PID.TID 0000.0001) %MON seaice_hsnow_mean            =   1.2558451855501E-02
(PID.TID 0000.0001) %MON seaice_hsnow_sd              =   6.7007720889452E-02
(PID.TID 0000.0001) %MON seaice_hsnow_del2            =   3.4178810257086E-04
(PID.TID 0000.0001) // =======================================================
(PID.TID 0000.0001) // End MONITOR SEAICE statistics
(PID.TID 0000.0001) // =======================================================
(PID.TID 0000.0001) // =======================================================
(PID.TID 0000.0001) // Begin MONITOR dynamic field statistics
(PID.TID 0000.0001) // =======================================================
(PID.TID 0000.0001) %MON time_tsnumber                =                174938
(PID.TID 0000.0001) %MON time_secondsf                =   7.8722100000000E+07
(PID.TID 0000.0001) %MON dynstat_eta_max              =   2.8982185536337E+00
(PID.TID 0000.0001) %MON dynstat_eta_min              =  -1.0571412420488E+01
(PID.TID 0000.0001) %MON dynstat_eta_mean             =   7.0874789597103E-02
(PID.TID 0000.0001) %MON dynstat_eta_sd               =   1.0713945769349E+00
(PID.TID 0000.0001) %MON dynstat_eta_del2             =   2.0125673615291E-03
(PID.TID 0000.0001) %MON dynstat_uvel_max             =   1.5101353256820E+00
(PID.TID 0000.0001) %MON dynstat_uvel_min             =  -2.3413630761838E+00
(PID.TID 0000.0001) %MON dynstat_uvel_mean            =   6.7736880174227E-03
(PID.TID 0000.0001) %MON dynstat_uvel_sd              =   5.5701692829688E-02
(PID.TID 0000.0001) %MON dynstat_uvel_del2            =   4.8986596236286E-05
(PID.TID 0000.0001) %MON dynstat_vvel_max             =   2.0156333535376E+00
(PID.TID 0000.0001) %MON dynstat_vvel_min             =  -1.6941032627447E+00
(PID.TID 0000.0001) %MON dynstat_vvel_mean            =   1.4811190075869E-03
(PID.TID 0000.0001) %MON dynstat_vvel_sd              =   5.8412146110792E-02
(PID.TID 0000.0001) %MON dynstat_vvel_del2            =   4.7786546529477E-05
(PID.TID 0000.0001) %MON dynstat_wvel_max             =   1.3479403644865E-02
(PID.TID 0000.0001) %MON dynstat_wvel_min             =  -1.1292726213136E-02
(PID.TID 0000.0001) %MON dynstat_wvel_mean            =  -9.2230171156029E-07
(PID.TID 0000.0001) %MON dynstat_wvel_sd              =   2.1362537576439E-04
(PID.TID 0000.0001) %MON dynstat_wvel_del2            =   4.2775041479396E-07
(PID.TID 0000.0001) %MON dynstat_theta_max            =   3.2360061686338E+01
(PID.TID 0000.0001) %MON dynstat_theta_min            =  -2.0331671441903E+00
(PID.TID 0000.0001) %MON dynstat_theta_mean           =   3.5917914040091E+00
(PID.TID 0000.0001) %MON dynstat_theta_sd             =   4.4414332662105E+00
(PID.TID 0000.0001) %MON dynstat_theta_del2           =   1.3154816660431E-04
(PID.TID 0000.0001) %MON dynstat_salt_max             =   4.0655989275770E+01
(PID.TID 0000.0001) %MON dynstat_salt_min             =   1.5905799170005E+01
(PID.TID 0000.0001) %MON dynstat_salt_mean            =   3.4724780988132E+01
(PID.TID 0000.0001) %MON dynstat_salt_sd              =   3.7980138146961E-01
(PID.TID 0000.0001) %MON dynstat_salt_del2            =   6.1741417221351E-05
(PID.TID 0000.0001) %MON dynstat_sst_max              =   3.2360061686338E+01
(PID.TID 0000.0001) %MON dynstat_sst_min              =  -2.0331671441903E+00
(PID.TID 0000.0001) %MON dynstat_sst_mean             =   1.8176762415013E+01
(PID.TID 0000.0001) %MON dynstat_sst_sd               =   1.0216154161550E+01
(PID.TID 0000.0001) %MON dynstat_sst_del2             =   1.0922014442802E-03
(PID.TID 0000.0001) %MON dynstat_sss_max              =   3.9464655053302E+01
(PID.TID 0000.0001) %MON dynstat_sss_min              =   1.5905799170005E+01
(PID.TID 0000.0001) %MON dynstat_sss_mean             =   3.4640380751660E+01
(PID.TID 0000.0001) %MON dynstat_sss_sd               =   1.3053562579322E+00
(PID.TID 0000.0001) %MON dynstat_sss_del2             =   1.4747513284244E-03
(PID.TID 0000.0001) %MON forcing_qnet_max             =   2.0638220214844E+03
(PID.TID 0000.0001) %MON forcing_qnet_min             =  -2.1153025470005E+03
(PID.TID 0000.0001) %MON forcing_qnet_mean            =  -2.0801025281597E+01
(PID.TID 0000.0001) %MON forcing_qnet_sd              =   2.1723638186225E+02
(PID.TID 0000.0001) %MON forcing_qnet_del2            =   4.0986637620338E-01
(PID.TID 0000.0001) %MON forcing_qsw_max              =   0.0000000000000E+00
(PID.TID 0000.0001) %MON forcing_qsw_min              =  -1.1212960631820E+02
(PID.TID 0000.0001) %MON forcing_qsw_mean             =  -2.2145947508841E+01
(PID.TID 0000.0001) %MON forcing_qsw_sd               =   3.2202395578460E+01
(PID.TID 0000.0001) %MON forcing_qsw_del2             =   2.0844044880970E-02
(PID.TID 0000.0001) %MON forcing_empmr_max            =   2.6321072131395E-02
(PID.TID 0000.0001) %MON forcing_empmr_min            =  -1.0825231671333E-01
(PID.TID 0000.0001) %MON forcing_empmr_mean           =  -3.3685951573757E-06
(PID.TID 0000.0001) %MON forcing_empmr_sd             =   4.5184164275590E-04
(PID.TID 0000.0001) %MON forcing_empmr_del2           =   5.3502717962176E-06
(PID.TID 0000.0001) %MON forcing_fu_max               =   8.3541199564934E-01
(PID.TID 0000.0001) %MON forcing_fu_min               =  -1.2208208999623E+00
(PID.TID 0000.0001) %MON forcing_fu_mean              =   1.0479902570386E-02
(PID.TID 0000.0001) %MON forcing_fu_sd                =   1.2560286669907E-01
(PID.TID 0000.0001) %MON forcing_fu_del2              =   1.6509732114917E-04
(PID.TID 0000.0001) %MON forcing_fv_max               =   1.1147006154060E+00
(PID.TID 0000.0001) %MON forcing_fv_min               =  -1.2559335827827E+00
(PID.TID 0000.0001) %MON forcing_fv_mean              =   9.9801638144232E-04
(PID.TID 0000.0001) %MON forcing_fv_sd                =   1.2366975291856E-01
(PID.TID 0000.0001) %MON forcing_fv_del2              =   1.6556279709926E-04
(PID.TID 0000.0001) %MON trAdv_CFL_u_max              =   2.0786052054381E-02
(PID.TID 0000.0001) %MON trAdv_CFL_v_max              =   1.9216873443113E-02
(PID.TID 0000.0001) %MON trAdv_CFL_w_max              =   9.8681301061286E-02
(PID.TID 0000.0001) %MON advcfl_uvel_max              =   2.1064094455694E-02
(PID.TID 0000.0001) %MON advcfl_vvel_max              =   1.9154949351713E-02
(PID.TID 0000.0001) %MON advcfl_wvel_max              =   9.2927679665913E-02
(PID.TID 0000.0001) %MON advcfl_W_hf_max              =   9.8681301061286E-02
(PID.TID 0000.0001) %MON pe_b_mean                    =   2.3224465522167E-03
(PID.TID 0000.0001) %MON ke_max                       =   2.1647743036002E+00
(PID.TID 0000.0001) %MON ke_mean                      =   3.1644953657764E-03
(PID.TID 0000.0001) %MON ke_vol                       =   1.3350064351420E+18
(PID.TID 0000.0001) %MON vort_r_min                   =  -7.1700458063865E-05
(PID.TID 0000.0001) %MON vort_r_max                   =   7.4839545879494E-05
(PID.TID 0000.0001) %MON vort_a_mean                  =  -1.9725077112301E-05
(PID.TID 0000.0001) %MON vort_a_sd                    =   7.4544381354422E-05
(PID.TID 0000.0001) %MON vort_p_mean                  =  -2.1669082095322E-05
(PID.TID 0000.0001) %MON vort_p_sd                    =   9.3621377396739E-05
(PID.TID 0000.0001) %MON surfExpan_theta_mean         =  -2.9094525519091E-05
(PID.TID 0000.0001) %MON surfExpan_salt_mean          =  -7.2413080524088E-05
(PID.TID 0000.0001) // =======================================================
(PID.TID 0000.0001) // End MONITOR dynamic field statistics
(PID.TID 0000.0001) // =======================================================
(PID.TID 0000.0001) // =======================================================
(PID.TID 0000.0001) // Begin MONITOR SEAICE statistics
(PID.TID 0000.0001) // =======================================================
(PID.TID 0000.0001) %MON seaice_tsnumber              =                174938
(PID.TID 0000.0001) %MON seaice_time_sec              =   7.8722100000000E+07
(PID.TID 0000.0001) %MON seaice_uice_max              =   1.2600606962589E+00
(PID.TID 0000.0001) %MON seaice_uice_min              =  -1.2105611085093E+00
(PID.TID 0000.0001) %MON seaice_uice_mean             =   8.5813124938275E-03
(PID.TID 0000.0001) %MON seaice_uice_sd               =   1.4997607285269E-01
(PID.TID 0000.0001) %MON seaice_uice_del2             =   3.9647910645637E-04
(PID.TID 0000.0001) %MON seaice_vice_max              =   1.0703947157556E+00
(PID.TID 0000.0001) %MON seaice_vice_min              =  -1.5351018021707E+00
(PID.TID 0000.0001) %MON seaice_vice_mean             =  -2.0915831727857E-02
(PID.TID 0000.0001) %MON seaice_vice_sd               =   1.6542028504106E-01
(PID.TID 0000.0001) %MON seaice_vice_del2             =   3.8840253361086E-04
(PID.TID 0000.0001) %MON seaice_area_max              =   1.0010170849892E+00
(PID.TID 0000.0001) %MON seaice_area_min              =   0.0000000000000E+00
(PID.TID 0000.0001) %MON seaice_area_mean             =   5.7779815226155E-02
(PID.TID 0000.0001) %MON seaice_area_sd               =   2.2075955551814E-01
(PID.TID 0000.0001) %MON seaice_area_del2             =   2.8226764370415E-04
(PID.TID 0000.0001) %MON seaice_heff_max              =   9.9471175584797E+00
(PID.TID 0000.0001) %MON seaice_heff_min              =   0.0000000000000E+00
(PID.TID 0000.0001) %MON seaice_heff_mean             =   1.4916085166324E-01
(PID.TID 0000.0001) %MON seaice_heff_sd               =   7.1880148414572E-01
(PID.TID 0000.0001) %MON seaice_heff_del2             =   1.2984599517010E-03
(PID.TID 0000.0001) %MON seaice_hsnow_max             =   3.2855533027325E+00
(PID.TID 0000.0001) %MON seaice_hsnow_min             =   0.0000000000000E+00
(PID.TID 0000.0001) %MON seaice_hsnow_mean            =   1.2557776503764E-02
(PID.TID 0000.0001) %MON seaice_hsnow_sd              =   6.6996763875665E-02
(PID.TID 0000.0001) %MON seaice_hsnow_del2            =   3.4151800902753E-04
(PID.TID 0000.0001) // =======================================================
(PID.TID 0000.0001) // End MONITOR SEAICE statistics
(PID.TID 0000.0001) // =======================================================
(PID.TID 0000.0001) // =======================================================
(PID.TID 0000.0001) // Begin MONITOR dynamic field statistics
(PID.TID 0000.0001) // =======================================================
(PID.TID 0000.0001) %MON time_tsnumber                =                174939
(PID.TID 0000.0001) %MON time_secondsf                =   7.8722550000000E+07
(PID.TID 0000.0001) %MON dynstat_eta_max              =   2.9087836251758E+00
(PID.TID 0000.0001) %MON dynstat_eta_min              =  -1.0582728289378E+01
(PID.TID 0000.0001) %MON dynstat_eta_mean             =   6.9923673236902E-02
(PID.TID 0000.0001) %MON dynstat_eta_sd               =   1.0734146400583E+00
(PID.TID 0000.0001) %MON dynstat_eta_del2             =   2.0125735510590E-03
(PID.TID 0000.0001) %MON dynstat_uvel_max             =   1.5195050353572E+00
(PID.TID 0000.0001) %MON dynstat_uvel_min             =  -2.3408811973868E+00
(PID.TID 0000.0001) %MON dynstat_uvel_mean            =   6.7924559731971E-03
(PID.TID 0000.0001) %MON dynstat_uvel_sd              =   5.5958767763527E-02
(PID.TID 0000.0001) %MON dynstat_uvel_del2            =   4.9122169479368E-05
(PID.TID 0000.0001) %MON dynstat_vvel_max             =   2.0207655948056E+00
(PID.TID 0000.0001) %MON dynstat_vvel_min             =  -1.6909116062134E+00
(PID.TID 0000.0001) %MON dynstat_vvel_mean            =   1.4648341953937E-03
(PID.TID 0000.0001) %MON dynstat_vvel_sd              =   5.8724458489149E-02
(PID.TID 0000.0001) %MON dynstat_vvel_del2            =   4.7920536441917E-05
(PID.TID 0000.0001) %MON dynstat_wvel_max             =   1.3544865476051E-02
(PID.TID 0000.0001) %MON dynstat_wvel_min             =  -1.1355600121535E-02
(PID.TID 0000.0001) %MON dynstat_wvel_mean            =  -9.4014879848022E-07
(PID.TID 0000.0001) %MON dynstat_wvel_sd              =   2.1430248377276E-04
(PID.TID 0000.0001) %MON dynstat_wvel_del2            =   4.2866904532317E-07
(PID.TID 0000.0001) %MON dynstat_theta_max            =   3.2359470901819E+01
(PID.TID 0000.0001) %MON dynstat_theta_min            =  -2.0328361795252E+00
(PID.TID 0000.0001) %MON dynstat_theta_mean           =   3.5917955427591E+00
(PID.TID 0000.0001) %MON dynstat_theta_sd             =   4.4414446063640E+00
(PID.TID 0000.0001) %MON dynstat_theta_del2           =   1.3161507571096E-04
(PID.TID 0000.0001) %MON dynstat_salt_max             =   4.0655989275560E+01
(PID.TID 0000.0001) %MON dynstat_salt_min             =   1.5905414099267E+01
(PID.TID 0000.0001) %MON dynstat_salt_mean            =   3.4724780977928E+01
(PID.TID 0000.0001) %MON dynstat_salt_sd              =   3.7980255046302E-01
(PID.TID 0000.0001) %MON dynstat_salt_del2            =   6.1728876085714E-05
(PID.TID 0000.0001) %MON dynstat_sst_max              =   3.2359470901819E+01
(PID.TID 0000.0001) %MON dynstat_sst_min              =  -2.0328361795252E+00
(PID.TID 0000.0001) %MON dynstat_sst_mean             =   1.8176960901710E+01
(PID.TID 0000.0001) %MON dynstat_sst_sd               =   1.0216476699888E+01
(PID.TID 0000.0001) %MON dynstat_sst_del2             =   1.0923301223175E-03
(PID.TID 0000.0001) %MON dynstat_sss_max              =   3.9464888064945E+01
(PID.TID 0000.0001) %MON dynstat_sss_min              =   1.5905414099267E+01
(PID.TID 0000.0001) %MON dynstat_sss_mean             =   3.4640366068865E+01
(PID.TID 0000.0001) %MON dynstat_sss_sd               =   1.3053945966666E+00
(PID.TID 0000.0001) %MON dynstat_sss_del2             =   1.4753489142495E-03
(PID.TID 0000.0001) %MON forcing_qnet_max             =   2.8593593750000E+03
(PID.TID 0000.0001) %MON forcing_qnet_min             =  -8.0560805664062E+03
(PID.TID 0000.0001) %MON forcing_qnet_mean            =  -2.1111883246804E+01
(PID.TID 0000.0001) %MON forcing_qnet_sd              =   2.2186828697884E+02
(PID.TID 0000.0001) %MON forcing_qnet_del2            =   6.3963803014113E-01
(PID.TID 0000.0001) %MON forcing_qsw_max              =   0.0000000000000E+00
(PID.TID 0000.0001) %MON forcing_qsw_min              =  -1.1184647807200E+02
(PID.TID 0000.0001) %MON forcing_qsw_mean             =  -2.2218211271915E+01
(PID.TID 0000.0001) %MON forcing_qsw_sd               =   3.2266101876028E+01
(PID.TID 0000.0001) %MON forcing_qsw_del2             =   2.0817282655017E-02
(PID.TID 0000.0001) %MON forcing_empmr_max            =   3.0372722074389E-02
(PID.TID 0000.0001) %MON forcing_empmr_min            =  -1.0861526429653E-01
(PID.TID 0000.0001) %MON forcing_empmr_mean           =  -3.1925353197740E-06
(PID.TID 0000.0001) %MON forcing_empmr_sd             =   4.5589092375168E-04
(PID.TID 0000.0001) %MON forcing_empmr_del2           =   5.4226943873173E-06
(PID.TID 0000.0001) %MON forcing_fu_max               =   8.3421489852293E-01
(PID.TID 0000.0001) %MON forcing_fu_min               =  -1.2180451102890E+00
(PID.TID 0000.0001) %MON forcing_fu_mean              =   1.0450753985304E-02
(PID.TID 0000.0001) %MON forcing_fu_sd                =   1.2563776786320E-01
(PID.TID 0000.0001) %MON forcing_fu_del2              =   1.6513349129754E-04
(PID.TID 0000.0001) %MON forcing_fv_max               =   1.1108856201172E+00
(PID.TID 0000.0001) %MON forcing_fv_min               =  -1.2599542737007E+00
(PID.TID 0000.0001) %MON forcing_fv_mean              =   1.0169532007529E-03
(PID.TID 0000.0001) %MON forcing_fv_sd                =   1.2370855067842E-01
(PID.TID 0000.0001) %MON forcing_fv_del2              =   1.6567209831836E-04
(PID.TID 0000.0001) %MON trAdv_CFL_u_max              =   2.0734192156332E-02
(PID.TID 0000.0001) %MON trAdv_CFL_v_max              =   1.9206886552836E-02
(PID.TID 0000.0001) %MON trAdv_CFL_w_max              =   9.8539853190422E-02
(PID.TID 0000.0001) %MON advcfl_uvel_max              =   2.1011540859267E-02
(PID.TID 0000.0001) %MON advcfl_vvel_max              =   1.9144994643003E-02
(PID.TID 0000.0001) %MON advcfl_wvel_max              =   9.2796683055524E-02
(PID.TID 0000.0001) %MON advcfl_W_hf_max              =   9.8539853190422E-02
(PID.TID 0000.0001) %MON pe_b_mean                    =   2.3009197134108E-03
(PID.TID 0000.0001) %MON ke_max                       =   2.1680913091819E+00
(PID.TID 0000.0001) %MON ke_mean                      =   3.1960767847622E-03
(PID.TID 0000.0001) %MON ke_vol                       =   1.3350064351420E+18
(PID.TID 0000.0001) %MON vort_r_min                   =  -7.1726785729719E-05
(PID.TID 0000.0001) %MON vort_r_max                   =   7.4637767296882E-05
(PID.TID 0000.0001) %MON vort_a_mean                  =  -1.9725077095479E-05
(PID.TID 0000.0001) %MON vort_a_sd                    =   7.4544444695524E-05
(PID.TID 0000.0001) %MON vort_p_mean                  =  -2.1669082076842E-05
(PID.TID 0000.0001) %MON vort_p_sd                    =   9.3621414709240E-05
(PID.TID 0000.0001) %MON surfExpan_theta_mean         =  -3.0540016058658E-05
(PID.TID 0000.0001) %MON surfExpan_salt_mean          =  -7.3293422707922E-05
(PID.TID 0000.0001) // =======================================================
(PID.TID 0000.0001) // End MONITOR dynamic field statistics
(PID.TID 0000.0001) // =======================================================
(PID.TID 0000.0001) // =======================================================
(PID.TID 0000.0001) // Begin MONITOR SEAICE statistics
(PID.TID 0000.0001) // =======================================================
(PID.TID 0000.0001) %MON seaice_tsnumber              =                174939
(PID.TID 0000.0001) %MON seaice_time_sec              =   7.8722550000000E+07
(PID.TID 0000.0001) %MON seaice_uice_max              =   1.2647688893703E+00
(PID.TID 0000.0001) %MON seaice_uice_min              =  -1.2030998785610E+00
(PID.TID 0000.0001) %MON seaice_uice_mean             =   8.5566221190450E-03
(PID.TID 0000.0001) %MON seaice_uice_sd               =   1.5000558415035E-01
(PID.TID 0000.0001) %MON seaice_uice_del2             =   3.9704681074023E-04
(PID.TID 0000.0001) %MON seaice_vice_max              =   1.0724602234598E+00
(PID.TID 0000.0001) %MON seaice_vice_min              =  -1.5363697900390E+00
(PID.TID 0000.0001) %MON seaice_vice_mean             =  -2.1026900934683E-02
(PID.TID 0000.0001) %MON seaice_vice_sd               =   1.6558725990399E-01
(PID.TID 0000.0001) %MON seaice_vice_del2             =   3.8885161406421E-04
(PID.TID 0000.0001) %MON seaice_area_max              =   1.0010134744110E+00
(PID.TID 0000.0001) %MON seaice_area_min              =   0.0000000000000E+00
(PID.TID 0000.0001) %MON seaice_area_mean             =   5.7784002376452E-02
(PID.TID 0000.0001) %MON seaice_area_sd               =   2.2076071809644E-01
(PID.TID 0000.0001) %MON seaice_area_del2             =   2.8229537154782E-04
(PID.TID 0000.0001) %MON seaice_heff_max              =   9.9471156672244E+00
(PID.TID 0000.0001) %MON seaice_heff_min              =   0.0000000000000E+00
(PID.TID 0000.0001) %MON seaice_heff_mean             =   1.4915772561790E-01
(PID.TID 0000.0001) %MON seaice_heff_sd               =   7.1878823708267E-01
(PID.TID 0000.0001) %MON seaice_heff_del2             =   1.2978671876355E-03
(PID.TID 0000.0001) %MON seaice_hsnow_max             =   3.2855528115503E+00
(PID.TID 0000.0001) %MON seaice_hsnow_min             =   0.0000000000000E+00
(PID.TID 0000.0001) %MON seaice_hsnow_mean            =   1.2557108585533E-02
(PID.TID 0000.0001) %MON seaice_hsnow_sd              =   6.6985803393909E-02
(PID.TID 0000.0001) %MON seaice_hsnow_del2            =   3.4124905773806E-04
(PID.TID 0000.0001) // =======================================================
(PID.TID 0000.0001) // End MONITOR SEAICE statistics
(PID.TID 0000.0001) // =======================================================
(PID.TID 0000.0001) // =======================================================
(PID.TID 0000.0001) // Begin MONITOR dynamic field statistics
(PID.TID 0000.0001) // =======================================================
(PID.TID 0000.0001) %MON time_tsnumber                =                174940
(PID.TID 0000.0001) %MON time_secondsf                =   7.8723000000000E+07
(PID.TID 0000.0001) %MON dynstat_eta_max              =   2.9185487104067E+00
(PID.TID 0000.0001) %MON dynstat_eta_min              =  -1.0593041790402E+01
(PID.TID 0000.0001) %MON dynstat_eta_mean             =   6.8964246925719E-02
(PID.TID 0000.0001) %MON dynstat_eta_sd               =   1.0754191857080E+00
(PID.TID 0000.0001) %MON dynstat_eta_del2             =   2.0125733551377E-03
(PID.TID 0000.0001) %MON dynstat_uvel_max             =   1.5287648615914E+00
(PID.TID 0000.0001) %MON dynstat_uvel_min             =  -2.3402796975605E+00
(PID.TID 0000.0001) %MON dynstat_uvel_mean            =   6.8106621388860E-03
(PID.TID 0000.0001) %MON dynstat_uvel_sd              =   5.6216587202611E-02
(PID.TID 0000.0001) %MON dynstat_uvel_del2            =   4.9258119692154E-05
(PID.TID 0000.0001) %MON dynstat_vvel_max             =   2.0258920168388E+00
(PID.TID 0000.0001) %MON dynstat_vvel_min             =  -1.6876215440848E+00
(PID.TID 0000.0001) %MON dynstat_vvel_mean            =   1.4499613754410E-03
(PID.TID 0000.0001) %MON dynstat_vvel_sd              =   5.9037151020046E-02
(PID.TID 0000.0001) %MON dynstat_vvel_del2            =   4.8054892172069E-05
(PID.TID 0000.0001) %MON dynstat_wvel_max             =   1.3608998641574E-02
(PID.TID 0000.0001) %MON dynstat_wvel_min             =  -1.1418494130362E-02
(PID.TID 0000.0001) %MON dynstat_wvel_mean            =  -9.5647936111725E-07
(PID.TID 0000.0001) %MON dynstat_wvel_sd              =   2.1497751552707E-04
(PID.TID 0000.0001) %MON dynstat_wvel_del2            =   4.2958186593685E-07
(PID.TID 0000.0001) %MON dynstat_theta_max            =   3.2358933221531E+01
(PID.TID 0000.0001) %MON dynstat_theta_min            =  -2.0324871907441E+00
(PID.TID 0000.0001) %MON dynstat_theta_mean           =   3.5917998561463E+00
(PID.TID 0000.0001) %MON dynstat_theta_sd             =   4.4414563504332E+00
(PID.TID 0000.0001) %MON dynstat_theta_del2           =   1.3168167401393E-04
(PID.TID 0000.0001) %MON dynstat_salt_max             =   4.0655989275350E+01
(PID.TID 0000.0001) %MON dynstat_salt_min             =   1.5905026659494E+01
(PID.TID 0000.0001) %MON dynstat_salt_mean            =   3.4724780986273E+01
(PID.TID 0000.0001) %MON dynstat_salt_sd              =   3.7980373639292E-01
(PID.TID 0000.0001) %MON dynstat_salt_del2            =   6.1715773351129E-05
(PID.TID 0000.0001) %MON dynstat_sst_max              =   3.2358933221531E+01
(PID.TID 0000.0001) %MON dynstat_sst_min              =  -2.0324871907441E+00
(PID.TID 0000.0001) %MON dynstat_sst_mean             =   1.8177162646673E+01
(PID.TID 0000.0001) %MON dynstat_sst_sd               =   1.0216801971301E+01
(PID.TID 0000.0001) %MON dynstat_sst_del2             =   1.0923760093545E-03
(PID.TID 0000.0001) %MON dynstat_sss_max              =   3.9465358637332E+01
(PID.TID 0000.0001) %MON dynstat_sss_min              =   1.5905026659494E+01
(PID.TID 0000.0001) %MON dynstat_sss_mean             =   3.4640349517126E+01
(PID.TID 0000.0001) %MON dynstat_sss_sd               =   1.3054369456884E+00
(PID.TID 0000.0001) %MON dynstat_sss_del2             =   1.4759038901559E-03
(PID.TID 0000.0001) %MON forcing_qnet_max             =   2.7639340820312E+03
(PID.TID 0000.0001) %MON forcing_qnet_min             =  -2.1664666133744E+03
(PID.TID 0000.0001) %MON forcing_qnet_mean            =  -2.1430837729184E+01
(PID.TID 0000.0001) %MON forcing_qnet_sd              =   2.1943738358381E+02
(PID.TID 0000.0001) %MON forcing_qnet_del2            =   4.6400567988810E-01
(PID.TID 0000.0001) %MON forcing_qsw_max              =   0.0000000000000E+00
(PID.TID 0000.0001) %MON forcing_qsw_min              =  -1.1193040536261E+02
(PID.TID 0000.0001) %MON forcing_qsw_mean             =  -2.2279171710910E+01
(PID.TID 0000.0001) %MON forcing_qsw_sd               =   3.2313896465927E+01
(PID.TID 0000.0001) %MON forcing_qsw_del2             =   2.0786244497025E-02
(PID.TID 0000.0001) %MON forcing_empmr_max            =   3.9143338799477E-02
(PID.TID 0000.0001) %MON forcing_empmr_min            =  -1.0978544503450E-01
(PID.TID 0000.0001) %MON forcing_empmr_mean           =  -3.1968588072195E-06
(PID.TID 0000.0001) %MON forcing_empmr_sd             =   4.6390232368374E-04
(PID.TID 0000.0001) %MON forcing_empmr_del2           =   5.5739419827797E-06
(PID.TID 0000.0001) %MON forcing_fu_max               =   8.4687412844255E-01
(PID.TID 0000.0001) %MON forcing_fu_min               =  -1.2164724099790E+00
(PID.TID 0000.0001) %MON forcing_fu_mean              =   1.0428447174356E-02
(PID.TID 0000.0001) %MON forcing_fu_sd                =   1.2565652302933E-01
(PID.TID 0000.0001) %MON forcing_fu_del2              =   1.6529170000740E-04
(PID.TID 0000.0001) %MON forcing_fv_max               =   1.1084505319595E+00
(PID.TID 0000.0001) %MON forcing_fv_min               =  -1.2530086636543E+00
(PID.TID 0000.0001) %MON forcing_fv_mean              =   1.0243270018745E-03
(PID.TID 0000.0001) %MON forcing_fv_sd                =   1.2368243871624E-01
(PID.TID 0000.0001) %MON forcing_fv_del2              =   1.6584595724526E-04
(PID.TID 0000.0001) %MON trAdv_CFL_u_max              =   2.0682315166121E-02
(PID.TID 0000.0001) %MON trAdv_CFL_v_max              =   1.9202396788595E-02
(PID.TID 0000.0001) %MON trAdv_CFL_w_max              =   9.8383088696979E-02
(PID.TID 0000.0001) %MON advcfl_uvel_max              =   2.0958969942047E-02
(PID.TID 0000.0001) %MON advcfl_vvel_max              =   1.9140519346494E-02
(PID.TID 0000.0001) %MON advcfl_wvel_max              =   9.2651306280690E-02
(PID.TID 0000.0001) %MON advcfl_W_hf_max              =   9.8383088696979E-02
(PID.TID 0000.0001) %MON pe_b_mean                    =   2.2791437486546E-03
(PID.TID 0000.0001) %MON ke_max                       =   2.1712476147322E+00
(PID.TID 0000.0001) %MON ke_mean                      =   3.2278768894122E-03
(PID.TID 0000.0001) %MON ke_vol                       =   1.3350064351420E+18
(PID.TID 0000.0001) %MON vort_r_min                   =  -7.1750703373213E-05
(PID.TID 0000.0001) %MON vort_r_max                   =   7.4435493502202E-05
(PID.TID 0000.0001) %MON vort_a_mean                  =  -1.9725077074680E-05
(PID.TID 0000.0001) %MON vort_a_sd                    =   7.4544508445097E-05
(PID.TID 0000.0001) %MON vort_p_mean                  =  -2.1669082053993E-05
(PID.TID 0000.0001) %MON vort_p_sd                    =   9.3621451045738E-05
(PID.TID 0000.0001) %MON surfExpan_theta_mean         =  -3.1937620974570E-05
(PID.TID 0000.0001) %MON surfExpan_salt_mean          =  -7.4090940523806E-05
(PID.TID 0000.0001) // =======================================================
(PID.TID 0000.0001) // End MONITOR dynamic field statistics
(PID.TID 0000.0001) // =======================================================
(PID.TID 0000.0001) // =======================================================
(PID.TID 0000.0001) // Begin MONITOR SEAICE statistics
(PID.TID 0000.0001) // =======================================================
(PID.TID 0000.0001) %MON seaice_tsnumber              =                174940
(PID.TID 0000.0001) %MON seaice_time_sec              =   7.8723000000000E+07
(PID.TID 0000.0001) %MON seaice_uice_max              =   1.2691558230400E+00
(PID.TID 0000.0001) %MON seaice_uice_min              =  -1.1961484022856E+00
(PID.TID 0000.0001) %MON seaice_uice_mean             =   8.5333192052272E-03
(PID.TID 0000.0001) %MON seaice_uice_sd               =   1.5003754602155E-01
(PID.TID 0000.0001) %MON seaice_uice_del2             =   3.9761054621503E-04
(PID.TID 0000.0001) %MON seaice_vice_max              =   1.0744226561287E+00
(PID.TID 0000.0001) %MON seaice_vice_min              =  -1.5376066506751E+00
(PID.TID 0000.0001) %MON seaice_vice_mean             =  -2.1128834176800E-02
(PID.TID 0000.0001) %MON seaice_vice_sd               =   1.6575558531654E-01
(PID.TID 0000.0001) %MON seaice_vice_del2             =   3.8927575378786E-04
(PID.TID 0000.0001) %MON seaice_area_max              =   1.0010105588656E+00
(PID.TID 0000.0001) %MON seaice_area_min              =   0.0000000000000E+00
(PID.TID 0000.0001) %MON seaice_area_mean             =   5.7788222302071E-02
(PID.TID 0000.0001) %MON seaice_area_sd               =   2.2076191755926E-01
(PID.TID 0000.0001) %MON seaice_area_del2             =   2.8232539578252E-04
(PID.TID 0000.0001) %MON seaice_heff_max              =   9.9471156830970E+00
(PID.TID 0000.0001) %MON seaice_heff_min              =   0.0000000000000E+00
(PID.TID 0000.0001) %MON seaice_heff_mean             =   1.4915461088525E-01
(PID.TID 0000.0001) %MON seaice_heff_sd               =   7.1877501321929E-01
(PID.TID 0000.0001) %MON seaice_heff_del2             =   1.2972773933205E-03
(PID.TID 0000.0001) %MON seaice_hsnow_max             =   3.2855523218778E+00
(PID.TID 0000.0001) %MON seaice_hsnow_min             =   0.0000000000000E+00
(PID.TID 0000.0001) %MON seaice_hsnow_mean            =   1.2556459389667E-02
(PID.TID 0000.0001) %MON seaice_hsnow_sd              =   6.6974905256760E-02
(PID.TID 0000.0001) %MON seaice_hsnow_del2            =   3.4098131507757E-04
(PID.TID 0000.0001) // =======================================================
(PID.TID 0000.0001) // End MONITOR SEAICE statistics
(PID.TID 0000.0001) // =======================================================
(PID.TID 0000.0001) // =======================================================
(PID.TID 0000.0001) // Begin MONITOR dynamic field statistics
(PID.TID 0000.0001) // =======================================================
(PID.TID 0000.0001) %MON time_tsnumber                =                174941
(PID.TID 0000.0001) %MON time_secondsf                =   7.8723450000000E+07
(PID.TID 0000.0001) %MON dynstat_eta_max              =   2.9274367801863E+00
(PID.TID 0000.0001) %MON dynstat_eta_min              =  -1.0602276400143E+01
(PID.TID 0000.0001) %MON dynstat_eta_mean             =   6.7997431038644E-02
(PID.TID 0000.0001) %MON dynstat_eta_sd               =   1.0774096080410E+00
(PID.TID 0000.0001) %MON dynstat_eta_del2             =   2.0125746919733E-03
(PID.TID 0000.0001) %MON dynstat_uvel_max             =   1.5379126665601E+00
(PID.TID 0000.0001) %MON dynstat_uvel_min             =  -2.3395585081492E+00
(PID.TID 0000.0001) %MON dynstat_uvel_mean            =   6.8281449860039E-03
(PID.TID 0000.0001) %MON dynstat_uvel_sd              =   5.6475079425219E-02
(PID.TID 0000.0001) %MON dynstat_uvel_del2            =   4.9394315677356E-05
(PID.TID 0000.0001) %MON dynstat_vvel_max             =   2.0310071183941E+00
(PID.TID 0000.0001) %MON dynstat_vvel_min             =  -1.6842279888228E+00
(PID.TID 0000.0001) %MON dynstat_vvel_mean            =   1.4364811426241E-03
(PID.TID 0000.0001) %MON dynstat_vvel_sd              =   5.9350122551749E-02
(PID.TID 0000.0001) %MON dynstat_vvel_del2            =   4.8189589662682E-05
(PID.TID 0000.0001) %MON dynstat_wvel_max             =   1.3671798597755E-02
(PID.TID 0000.0001) %MON dynstat_wvel_min             =  -1.1481380802337E-02
(PID.TID 0000.0001) %MON dynstat_wvel_mean            =  -9.7163620641444E-07
(PID.TID 0000.0001) %MON dynstat_wvel_sd              =   2.1565076263542E-04
(PID.TID 0000.0001) %MON dynstat_wvel_del2            =   4.3048942497726E-07
(PID.TID 0000.0001) %MON dynstat_theta_max            =   3.2358366279262E+01
(PID.TID 0000.0001) %MON dynstat_theta_min            =  -2.0321202877794E+00
(PID.TID 0000.0001) %MON dynstat_theta_mean           =   3.5918044196274E+00
(PID.TID 0000.0001) %MON dynstat_theta_sd             =   4.4414688459121E+00
(PID.TID 0000.0001) %MON dynstat_theta_del2           =   1.3174959391841E-04
(PID.TID 0000.0001) %MON dynstat_salt_max             =   4.0655989275140E+01
(PID.TID 0000.0001) %MON dynstat_salt_min             =   1.5904635992370E+01
(PID.TID 0000.0001) %MON dynstat_salt_mean            =   3.4724781017689E+01
(PID.TID 0000.0001) %MON dynstat_salt_sd              =   3.7980490302602E-01
(PID.TID 0000.0001) %MON dynstat_salt_del2            =   6.1707267050502E-05
(PID.TID 0000.0001) %MON dynstat_sst_max              =   3.2358366279262E+01
(PID.TID 0000.0001) %MON dynstat_sst_min              =  -2.0321202877794E+00
(PID.TID 0000.0001) %MON dynstat_sst_mean             =   1.8177375478536E+01
(PID.TID 0000.0001) %MON dynstat_sst_sd               =   1.0217128761594E+01
(PID.TID 0000.0001) %MON dynstat_sst_del2             =   1.0926441180274E-03
(PID.TID 0000.0001) %MON dynstat_sss_max              =   3.9469537035382E+01
(PID.TID 0000.0001) %MON dynstat_sss_min              =   1.5904635992370E+01
(PID.TID 0000.0001) %MON dynstat_sss_mean             =   3.4640335028177E+01
(PID.TID 0000.0001) %MON dynstat_sss_sd               =   1.3054738888636E+00
(PID.TID 0000.0001) %MON dynstat_sss_del2             =   1.4767035715069E-03
(PID.TID 0000.0001) %MON forcing_qnet_max             =   1.3558773193359E+03
(PID.TID 0000.0001) %MON forcing_qnet_min             =  -1.9916652078124E+03
(PID.TID 0000.0001) %MON forcing_qnet_mean            =  -2.4553404373558E+01
(PID.TID 0000.0001) %MON forcing_qnet_sd              =   2.2027416275565E+02
(PID.TID 0000.0001) %MON forcing_qnet_del2            =   4.2496410529787E-01
(PID.TID 0000.0001) %MON forcing_qsw_max              =   0.0000000000000E+00
(PID.TID 0000.0001) %MON forcing_qsw_min              =  -1.1206252529644E+02
(PID.TID 0000.0001) %MON forcing_qsw_mean             =  -2.2780947177441E+01
(PID.TID 0000.0001) %MON forcing_qsw_sd               =   3.2643180394617E+01
(PID.TID 0000.0001) %MON forcing_qsw_del2             =   2.0588646885406E-02
(PID.TID 0000.0001) %MON forcing_empmr_max            =   2.1735057234764E-02
(PID.TID 0000.0001) %MON forcing_empmr_min            =  -1.1022751778364E-01
(PID.TID 0000.0001) %MON forcing_empmr_mean           =  -3.3905352695362E-06
(PID.TID 0000.0001) %MON forcing_empmr_sd             =   4.5170348800035E-04
(PID.TID 0000.0001) %MON forcing_empmr_del2           =   5.2125560907986E-06
(PID.TID 0000.0001) %MON forcing_fu_max               =   8.5593420236317E-01
(PID.TID 0000.0001) %MON forcing_fu_min               =  -1.2133360946429E+00
(PID.TID 0000.0001) %MON forcing_fu_mean              =   1.0394534803915E-02
(PID.TID 0000.0001) %MON forcing_fu_sd                =   1.2567317261265E-01
(PID.TID 0000.0001) %MON forcing_fu_del2              =   1.6533473408172E-04
(PID.TID 0000.0001) %MON forcing_fv_max               =   1.1088290810585E+00
(PID.TID 0000.0001) %MON forcing_fv_min               =  -1.2428143620491E+00
(PID.TID 0000.0001) %MON forcing_fv_mean              =   1.0464469311277E-03
(PID.TID 0000.0001) %MON forcing_fv_sd                =   1.2374757962283E-01
(PID.TID 0000.0001) %MON forcing_fv_del2              =   1.6587700736667E-04
(PID.TID 0000.0001) %MON trAdv_CFL_u_max              =   2.0630515683314E-02
(PID.TID 0000.0001) %MON trAdv_CFL_v_max              =   1.9203449609043E-02
(PID.TID 0000.0001) %MON trAdv_CFL_w_max              =   9.8210403271398E-02
(PID.TID 0000.0001) %MON advcfl_uvel_max              =   2.0906477569000E-02
(PID.TID 0000.0001) %MON advcfl_vvel_max              =   1.9141568774354E-02
(PID.TID 0000.0001) %MON advcfl_wvel_max              =   9.2491124056270E-02
(PID.TID 0000.0001) %MON advcfl_W_hf_max              =   9.8210403271398E-02
(PID.TID 0000.0001) %MON pe_b_mean                    =   2.2571490455682E-03
(PID.TID 0000.0001) %MON ke_max                       =   2.1742342627528E+00
(PID.TID 0000.0001) %MON ke_mean                      =   3.2598857020230E-03
(PID.TID 0000.0001) %MON ke_vol                       =   1.3350064351420E+18
(PID.TID 0000.0001) %MON vort_r_min                   =  -7.1772233450417E-05
(PID.TID 0000.0001) %MON vort_r_max                   =   7.4233144095661E-05
(PID.TID 0000.0001) %MON vort_a_mean                  =  -1.9725077049860E-05
(PID.TID 0000.0001) %MON vort_a_sd                    =   7.4544572564496E-05
(PID.TID 0000.0001) %MON vort_p_mean                  =  -2.1669082026727E-05
(PID.TID 0000.0001) %MON vort_p_sd                    =   9.3621486403448E-05
(PID.TID 0000.0001) %MON surfExpan_theta_mean         =  -3.3278561621756E-05
(PID.TID 0000.0001) %MON surfExpan_salt_mean          =  -7.4822058225616E-05
(PID.TID 0000.0001) // =======================================================
(PID.TID 0000.0001) // End MONITOR dynamic field statistics
(PID.TID 0000.0001) // =======================================================
(PID.TID 0000.0001) // =======================================================
(PID.TID 0000.0001) // Begin MONITOR SEAICE statistics
(PID.TID 0000.0001) // =======================================================
(PID.TID 0000.0001) %MON seaice_tsnumber              =                174941
(PID.TID 0000.0001) %MON seaice_time_sec              =   7.8723450000000E+07
(PID.TID 0000.0001) %MON seaice_uice_max              =   1.2732257183844E+00
(PID.TID 0000.0001) %MON seaice_uice_min              =  -1.1897200556899E+00
(PID.TID 0000.0001) %MON seaice_uice_mean             =   8.5118376075603E-03
(PID.TID 0000.0001) %MON seaice_uice_sd               =   1.5007678957745E-01
(PID.TID 0000.0001) %MON seaice_uice_del2             =   3.9819528296980E-04
(PID.TID 0000.0001) %MON seaice_vice_max              =   1.0762819570424E+00
(PID.TID 0000.0001) %MON seaice_vice_min              =  -1.5388202312220E+00
(PID.TID 0000.0001) %MON seaice_vice_mean             =  -2.1221703150902E-02
(PID.TID 0000.0001) %MON seaice_vice_sd               =   1.6592632011525E-01
(PID.TID 0000.0001) %MON seaice_vice_del2             =   3.8971421421519E-04
(PID.TID 0000.0001) %MON seaice_area_max              =   1.0010082353231E+00
(PID.TID 0000.0001) %MON seaice_area_min              =   0.0000000000000E+00
(PID.TID 0000.0001) %MON seaice_area_mean             =   5.7792466634151E-02
(PID.TID 0000.0001) %MON seaice_area_sd               =   2.2076314983550E-01
(PID.TID 0000.0001) %MON seaice_area_del2             =   2.8235840702846E-04
(PID.TID 0000.0001) %MON seaice_heff_max              =   9.9471137919554E+00
(PID.TID 0000.0001) %MON seaice_heff_min              =   0.0000000000000E+00
(PID.TID 0000.0001) %MON seaice_heff_mean             =   1.4915150312215E-01
(PID.TID 0000.0001) %MON seaice_heff_sd               =   7.1876179660699E-01
(PID.TID 0000.0001) %MON seaice_heff_del2             =   1.2966917774010E-03
(PID.TID 0000.0001) %MON seaice_hsnow_max             =   3.2855520657322E+00
(PID.TID 0000.0001) %MON seaice_hsnow_min             =   0.0000000000000E+00
(PID.TID 0000.0001) %MON seaice_hsnow_mean            =   1.2555839941990E-02
(PID.TID 0000.0001) %MON seaice_hsnow_sd              =   6.6964074900110E-02
(PID.TID 0000.0001) %MON seaice_hsnow_del2            =   3.4071460048922E-04
(PID.TID 0000.0001) // =======================================================
(PID.TID 0000.0001) // End MONITOR SEAICE statistics
(PID.TID 0000.0001) // =======================================================
(PID.TID 0000.0001) // =======================================================
(PID.TID 0000.0001) // Begin MONITOR dynamic field statistics
(PID.TID 0000.0001) // =======================================================
(PID.TID 0000.0001) %MON time_tsnumber                =                174942
(PID.TID 0000.0001) %MON time_secondsf                =   7.8723900000000E+07
(PID.TID 0000.0001) %MON dynstat_eta_max              =   2.9353717837649E+00
(PID.TID 0000.0001) %MON dynstat_eta_min              =  -1.0610461167334E+01
(PID.TID 0000.0001) %MON dynstat_eta_mean             =   6.7023523668343E-02
(PID.TID 0000.0001) %MON dynstat_eta_sd               =   1.0793882281513E+00
(PID.TID 0000.0001) %MON dynstat_eta_del2             =   2.0125733959550E-03
(PID.TID 0000.0001) %MON dynstat_uvel_max             =   1.5469463578589E+00
(PID.TID 0000.0001) %MON dynstat_uvel_min             =  -2.3387175450948E+00
(PID.TID 0000.0001) %MON dynstat_uvel_mean            =   6.8447496445429E-03
(PID.TID 0000.0001) %MON dynstat_uvel_sd              =   5.6734246240688E-02
(PID.TID 0000.0001) %MON dynstat_uvel_del2            =   4.9530790999499E-05
(PID.TID 0000.0001) %MON dynstat_vvel_max             =   2.0361045916988E+00
(PID.TID 0000.0001) %MON dynstat_vvel_min             =  -1.6807264119169E+00
(PID.TID 0000.0001) %MON dynstat_vvel_mean            =   1.4243520379165E-03
(PID.TID 0000.0001) %MON dynstat_vvel_sd              =   5.9663372829842E-02
(PID.TID 0000.0001) %MON dynstat_vvel_del2            =   4.8324605666409E-05
(PID.TID 0000.0001) %MON dynstat_wvel_max             =   1.3733219991295E-02
(PID.TID 0000.0001) %MON dynstat_wvel_min             =  -1.1544206546495E-02
(PID.TID 0000.0001) %MON dynstat_wvel_mean            =  -9.8613454411014E-07
(PID.TID 0000.0001) %MON dynstat_wvel_sd              =   2.1632198773987E-04
(PID.TID 0000.0001) %MON dynstat_wvel_del2            =   4.3139128664516E-07
(PID.TID 0000.0001) %MON dynstat_theta_max            =   3.2357764199154E+01
(PID.TID 0000.0001) %MON dynstat_theta_min            =  -2.0317350708771E+00
(PID.TID 0000.0001) %MON dynstat_theta_mean           =   3.5918091672791E+00
(PID.TID 0000.0001) %MON dynstat_theta_sd             =   4.4414818247823E+00
(PID.TID 0000.0001) %MON dynstat_theta_del2           =   1.3181613641993E-04
(PID.TID 0000.0001) %MON dynstat_salt_max             =   4.0655989274930E+01
(PID.TID 0000.0001) %MON dynstat_salt_min             =   1.5904241547130E+01
(PID.TID 0000.0001) %MON dynstat_salt_mean            =   3.4724781068489E+01
(PID.TID 0000.0001) %MON dynstat_salt_sd              =   3.7980607121463E-01
(PID.TID 0000.0001) %MON dynstat_salt_del2            =   6.1694094526014E-05
(PID.TID 0000.0001) %MON dynstat_sst_max              =   3.2357764199154E+01
(PID.TID 0000.0001) %MON dynstat_sst_min              =  -2.0317350708771E+00
(PID.TID 0000.0001) %MON dynstat_sst_mean             =   1.8177603832175E+01
(PID.TID 0000.0001) %MON dynstat_sst_sd               =   1.0217467783471E+01
(PID.TID 0000.0001) %MON dynstat_sst_del2             =   1.0926769258400E-03
(PID.TID 0000.0001) %MON dynstat_sss_max              =   3.9469513543301E+01
(PID.TID 0000.0001) %MON dynstat_sss_min              =   1.5904241547130E+01
(PID.TID 0000.0001) %MON dynstat_sss_mean             =   3.4640319091619E+01
(PID.TID 0000.0001) %MON dynstat_sss_sd               =   1.3055154399648E+00
(PID.TID 0000.0001) %MON dynstat_sss_del2             =   1.4772425141679E-03
(PID.TID 0000.0001) %MON forcing_qnet_max             =   6.4851801757812E+03
(PID.TID 0000.0001) %MON forcing_qnet_min             =  -1.1472015625000E+04
(PID.TID 0000.0001) %MON forcing_qnet_mean            =  -2.5603306036512E+01
(PID.TID 0000.0001) %MON forcing_qnet_sd              =   2.2808629236099E+02
(PID.TID 0000.0001) %MON forcing_qnet_del2            =   7.9007910903234E-01
(PID.TID 0000.0001) %MON forcing_qsw_max              =   0.0000000000000E+00
(PID.TID 0000.0001) %MON forcing_qsw_min              =  -1.1203915820708E+02
(PID.TID 0000.0001) %MON forcing_qsw_mean             =  -2.2928184065872E+01
(PID.TID 0000.0001) %MON forcing_qsw_sd               =   3.2731681939918E+01
(PID.TID 0000.0001) %MON forcing_qsw_del2             =   2.0617857169821E-02
(PID.TID 0000.0001) %MON forcing_empmr_max            =   2.2617375478148E-02
(PID.TID 0000.0001) %MON forcing_empmr_min            =  -1.1038782447577E-01
(PID.TID 0000.0001) %MON forcing_empmr_mean           =  -3.3583613002072E-06
(PID.TID 0000.0001) %MON forcing_empmr_sd             =   4.4835306383536E-04
(PID.TID 0000.0001) %MON forcing_empmr_del2           =   5.2278131332595E-06
(PID.TID 0000.0001) %MON forcing_fu_max               =   8.6763160379215E-01
(PID.TID 0000.0001) %MON forcing_fu_min               =  -1.2094412641583E+00
(PID.TID 0000.0001) %MON forcing_fu_mean              =   1.0366853030421E-02
(PID.TID 0000.0001) %MON forcing_fu_sd                =   1.2567253790192E-01
(PID.TID 0000.0001) %MON forcing_fu_del2              =   1.6533398911192E-04
(PID.TID 0000.0001) %MON forcing_fv_max               =   1.1117878556252E+00
(PID.TID 0000.0001) %MON forcing_fv_min               =  -1.2432463169098E+00
(PID.TID 0000.0001) %MON forcing_fv_mean              =   1.0573857133038E-03
(PID.TID 0000.0001) %MON forcing_fv_sd                =   1.2376862201040E-01
(PID.TID 0000.0001) %MON forcing_fv_del2              =   1.6600304208648E-04
(PID.TID 0000.0001) %MON trAdv_CFL_u_max              =   2.0578837000686E-02
(PID.TID 0000.0001) %MON trAdv_CFL_v_max              =   1.9210067792800E-02
(PID.TID 0000.0001) %MON trAdv_CFL_w_max              =   9.8018210675895E-02
(PID.TID 0000.0001) %MON advcfl_uvel_max              =   2.0854107612004E-02
(PID.TID 0000.0001) %MON advcfl_vvel_max              =   1.9148165631800E-02
(PID.TID 0000.0001) %MON advcfl_wvel_max              =   9.2312512376900E-02
(PID.TID 0000.0001) %MON advcfl_W_hf_max              =   9.8018210675895E-02
(PID.TID 0000.0001) %MON pe_b_mean                    =   2.2349514692311E-03
(PID.TID 0000.0001) %MON ke_max                       =   2.1770536438883E+00
(PID.TID 0000.0001) %MON ke_mean                      =   3.2921028927012E-03
(PID.TID 0000.0001) %MON ke_vol                       =   1.3350064351420E+18
(PID.TID 0000.0001) %MON vort_r_min                   =  -7.1791389132977E-05
(PID.TID 0000.0001) %MON vort_r_max                   =   7.4031004308971E-05
(PID.TID 0000.0001) %MON vort_a_mean                  =  -1.9725077021172E-05
(PID.TID 0000.0001) %MON vort_a_sd                    =   7.4544637020279E-05
(PID.TID 0000.0001) %MON vort_p_mean                  =  -2.1669081995212E-05
(PID.TID 0000.0001) %MON vort_p_sd                    =   9.3621520668960E-05
(PID.TID 0000.0001) %MON surfExpan_theta_mean         =  -3.4575421874022E-05
(PID.TID 0000.0001) %MON surfExpan_salt_mean          =  -7.5520585270979E-05
(PID.TID 0000.0001) // =======================================================
(PID.TID 0000.0001) // End MONITOR dynamic field statistics
(PID.TID 0000.0001) // =======================================================
(PID.TID 0000.0001) // =======================================================
(PID.TID 0000.0001) // Begin MONITOR SEAICE statistics
(PID.TID 0000.0001) // =======================================================
(PID.TID 0000.0001) %MON seaice_tsnumber              =                174942
(PID.TID 0000.0001) %MON seaice_time_sec              =   7.8723900000000E+07
(PID.TID 0000.0001) %MON seaice_uice_max              =   1.2769524393329E+00
(PID.TID 0000.0001) %MON seaice_uice_min              =  -1.1838254069695E+00
(PID.TID 0000.0001) %MON seaice_uice_mean             =   8.4919649810481E-03
(PID.TID 0000.0001) %MON seaice_uice_sd               =   1.5011680836222E-01
(PID.TID 0000.0001) %MON seaice_uice_del2             =   3.9878879478790E-04
(PID.TID 0000.0001) %MON seaice_vice_max              =   1.0948196610087E+00
(PID.TID 0000.0001) %MON seaice_vice_min              =  -1.5400093439571E+00
(PID.TID 0000.0001) %MON seaice_vice_mean             =  -2.1293744322201E-02
(PID.TID 0000.0001) %MON seaice_vice_sd               =   1.6609310980636E-01
(PID.TID 0000.0001) %MON seaice_vice_del2             =   3.9014869370089E-04
(PID.TID 0000.0001) %MON seaice_area_max              =   1.0010049341402E+00
(PID.TID 0000.0001) %MON seaice_area_min              =   0.0000000000000E+00
(PID.TID 0000.0001) %MON seaice_area_mean             =   5.7796744104355E-02
(PID.TID 0000.0001) %MON seaice_area_sd               =   2.2076443273566E-01
(PID.TID 0000.0001) %MON seaice_area_del2             =   2.8239428451829E-04
(PID.TID 0000.0001) %MON seaice_heff_max              =   9.9471118998726E+00
(PID.TID 0000.0001) %MON seaice_heff_min              =   0.0000000000000E+00
(PID.TID 0000.0001) %MON seaice_heff_mean             =   1.4914841065668E-01
(PID.TID 0000.0001) %MON seaice_heff_sd               =   7.1874863475011E-01
(PID.TID 0000.0001) %MON seaice_heff_del2             =   1.2961102058100E-03
(PID.TID 0000.0001) %MON seaice_hsnow_max             =   3.2855513302421E+00
(PID.TID 0000.0001) %MON seaice_hsnow_min             =   0.0000000000000E+00
(PID.TID 0000.0001) %MON seaice_hsnow_mean            =   1.2555231201013E-02
(PID.TID 0000.0001) %MON seaice_hsnow_sd              =   6.6953273494736E-02
(PID.TID 0000.0001) %MON seaice_hsnow_del2            =   3.4044895789817E-04
(PID.TID 0000.0001) // =======================================================
(PID.TID 0000.0001) // End MONITOR SEAICE statistics
(PID.TID 0000.0001) // =======================================================
(PID.TID 0000.0001) // =======================================================
(PID.TID 0000.0001) // Begin MONITOR dynamic field statistics
(PID.TID 0000.0001) // =======================================================
(PID.TID 0000.0001) %MON time_tsnumber                =                174943
(PID.TID 0000.0001) %MON time_secondsf                =   7.8724350000000E+07
(PID.TID 0000.0001) %MON dynstat_eta_max              =   2.9422792953366E+00
(PID.TID 0000.0001) %MON dynstat_eta_min              =  -1.0617569076526E+01
(PID.TID 0000.0001) %MON dynstat_eta_mean             =   6.6043632211122E-02
(PID.TID 0000.0001) %MON dynstat_eta_sd               =   1.0813572577970E+00
(PID.TID 0000.0001) %MON dynstat_eta_del2             =   2.0125686447004E-03
(PID.TID 0000.0001) %MON dynstat_uvel_max             =   1.5558657031535E+00
(PID.TID 0000.0001) %MON dynstat_uvel_min             =  -2.3377565877721E+00
(PID.TID 0000.0001) %MON dynstat_uvel_mean            =   6.8603238424791E-03
(PID.TID 0000.0001) %MON dynstat_uvel_sd              =   5.6994043359181E-02
(PID.TID 0000.0001) %MON dynstat_uvel_del2            =   4.9667478295293E-05
(PID.TID 0000.0001) %MON dynstat_vvel_max             =   2.0411819394972E+00
(PID.TID 0000.0001) %MON dynstat_vvel_min             =  -1.6771132143366E+00
(PID.TID 0000.0001) %MON dynstat_vvel_mean            =   1.4135414736451E-03
(PID.TID 0000.0001) %MON dynstat_vvel_sd              =   5.9976778937881E-02
(PID.TID 0000.0001) %MON dynstat_vvel_del2            =   4.8460046719773E-05
(PID.TID 0000.0001) %MON dynstat_wvel_max             =   1.3793245884947E-02
(PID.TID 0000.0001) %MON dynstat_wvel_min             =  -1.1606895397877E-02
(PID.TID 0000.0001) %MON dynstat_wvel_mean            =  -9.9893538439335E-07
(PID.TID 0000.0001) %MON dynstat_wvel_sd              =   2.1699129480308E-04
(PID.TID 0000.0001) %MON dynstat_wvel_del2            =   4.3228795216824E-07
(PID.TID 0000.0001) %MON dynstat_theta_max            =   3.2357131941494E+01
(PID.TID 0000.0001) %MON dynstat_theta_min            =  -2.0313311865786E+00
(PID.TID 0000.0001) %MON dynstat_theta_mean           =   3.5918140766999E+00
(PID.TID 0000.0001) %MON dynstat_theta_sd             =   4.4414951910600E+00
(PID.TID 0000.0001) %MON dynstat_theta_del2           =   1.3188379774859E-04
(PID.TID 0000.0001) %MON dynstat_salt_max             =   4.0655989274719E+01
(PID.TID 0000.0001) %MON dynstat_salt_min             =   1.5903842218711E+01
(PID.TID 0000.0001) %MON dynstat_salt_mean            =   3.4724781135871E+01
(PID.TID 0000.0001) %MON dynstat_salt_sd              =   3.7980725806263E-01
(PID.TID 0000.0001) %MON dynstat_salt_del2            =   6.1684798485289E-05
(PID.TID 0000.0001) %MON dynstat_sst_max              =   3.2357131941494E+01
(PID.TID 0000.0001) %MON dynstat_sst_min              =  -2.0313311865786E+00
(PID.TID 0000.0001) %MON dynstat_sst_mean             =   1.8177832962178E+01
(PID.TID 0000.0001) %MON dynstat_sst_sd               =   1.0217805304686E+01
(PID.TID 0000.0001) %MON dynstat_sst_del2             =   1.0928682699123E-03
(PID.TID 0000.0001) %MON dynstat_sss_max              =   3.9469427694887E+01
(PID.TID 0000.0001) %MON dynstat_sss_min              =   1.5903842218711E+01
(PID.TID 0000.0001) %MON dynstat_sss_mean             =   3.4640304072873E+01
(PID.TID 0000.0001) %MON dynstat_sss_sd               =   1.3055551582228E+00
(PID.TID 0000.0001) %MON dynstat_sss_del2             =   1.4779936017180E-03
(PID.TID 0000.0001) %MON forcing_qnet_max             =   3.3682534179688E+03
(PID.TID 0000.0001) %MON forcing_qnet_min             =  -1.6921347331326E+03
(PID.TID 0000.0001) %MON forcing_qnet_mean            =  -2.6149487234081E+01
(PID.TID 0000.0001) %MON forcing_qnet_sd              =   2.2228229657784E+02
(PID.TID 0000.0001) %MON forcing_qnet_del2            =   4.3604043645996E-01
(PID.TID 0000.0001) %MON forcing_qsw_max              =   0.0000000000000E+00
(PID.TID 0000.0001) %MON forcing_qsw_min              =  -1.1189799018671E+02
(PID.TID 0000.0001) %MON forcing_qsw_mean             =  -2.3061703383150E+01
(PID.TID 0000.0001) %MON forcing_qsw_sd               =   3.2804743902834E+01
(PID.TID 0000.0001) %MON forcing_qsw_del2             =   2.0643412836750E-02
(PID.TID 0000.0001) %MON forcing_empmr_max            =   2.3314096033573E-02
(PID.TID 0000.0001) %MON forcing_empmr_min            =  -1.1181862652302E-01
(PID.TID 0000.0001) %MON forcing_empmr_mean           =  -3.1414296361018E-06
(PID.TID 0000.0001) %MON forcing_empmr_sd             =   4.5452547455634E-04
(PID.TID 0000.0001) %MON forcing_empmr_del2           =   5.3360415720860E-06
(PID.TID 0000.0001) %MON forcing_fu_max               =   8.7833747468084E-01
(PID.TID 0000.0001) %MON forcing_fu_min               =  -1.2079609842261E+00
(PID.TID 0000.0001) %MON forcing_fu_mean              =   1.0340111723210E-02
(PID.TID 0000.0001) %MON forcing_fu_sd                =   1.2567696386537E-01
(PID.TID 0000.0001) %MON forcing_fu_del2              =   1.6540586011876E-04
(PID.TID 0000.0001) %MON forcing_fv_max               =   1.1129745841026E+00
(PID.TID 0000.0001) %MON forcing_fv_min               =  -1.2429492473602E+00
(PID.TID 0000.0001) %MON forcing_fv_mean              =   1.0788536643858E-03
(PID.TID 0000.0001) %MON forcing_fv_sd                =   1.2377461449619E-01
(PID.TID 0000.0001) %MON forcing_fv_del2              =   1.6615564129800E-04
(PID.TID 0000.0001) %MON trAdv_CFL_u_max              =   2.0527393218744E-02
(PID.TID 0000.0001) %MON trAdv_CFL_v_max              =   1.9222242916400E-02
(PID.TID 0000.0001) %MON trAdv_CFL_w_max              =   9.7801864807385E-02
(PID.TID 0000.0001) %MON advcfl_uvel_max              =   2.0801975697817E-02
(PID.TID 0000.0001) %MON advcfl_vvel_max              =   1.9160301522510E-02
(PID.TID 0000.0001) %MON advcfl_wvel_max              =   9.2110707655098E-02
(PID.TID 0000.0001) %MON advcfl_W_hf_max              =   9.7801864807385E-02
(PID.TID 0000.0001) %MON pe_b_mean                    =   2.2125869658950E-03
(PID.TID 0000.0001) %MON ke_max                       =   2.1797096556850E+00
(PID.TID 0000.0001) %MON ke_mean                      =   3.3245185338772E-03
(PID.TID 0000.0001) %MON ke_vol                       =   1.3350064351420E+18
(PID.TID 0000.0001) %MON vort_r_min                   =  -7.1808186048112E-05
(PID.TID 0000.0001) %MON vort_r_max                   =   7.3829564106226E-05
(PID.TID 0000.0001) %MON vort_a_mean                  =  -1.9725076986996E-05
(PID.TID 0000.0001) %MON vort_a_sd                    =   7.4544701773129E-05
(PID.TID 0000.0001) %MON vort_p_mean                  =  -2.1669081957668E-05
(PID.TID 0000.0001) %MON vort_p_sd                    =   9.3621553865380E-05
(PID.TID 0000.0001) %MON surfExpan_theta_mean         =  -3.5799351843853E-05
(PID.TID 0000.0001) %MON surfExpan_salt_mean          =  -7.6124943547182E-05
(PID.TID 0000.0001) // =======================================================
(PID.TID 0000.0001) // End MONITOR dynamic field statistics
(PID.TID 0000.0001) // =======================================================
(PID.TID 0000.0001) // =======================================================
(PID.TID 0000.0001) // Begin MONITOR SEAICE statistics
(PID.TID 0000.0001) // =======================================================
(PID.TID 0000.0001) %MON seaice_tsnumber              =                174943
(PID.TID 0000.0001) %MON seaice_time_sec              =   7.8724350000000E+07
(PID.TID 0000.0001) %MON seaice_uice_max              =   1.2803201537599E+00
(PID.TID 0000.0001) %MON seaice_uice_min              =  -1.1784725847574E+00
(PID.TID 0000.0001) %MON seaice_uice_mean             =   8.4748375172252E-03
(PID.TID 0000.0001) %MON seaice_uice_sd               =   1.5016218205345E-01
(PID.TID 0000.0001) %MON seaice_uice_del2             =   3.9937843702212E-04
(PID.TID 0000.0001) %MON seaice_vice_max              =   1.1136497934715E+00
(PID.TID 0000.0001) %MON seaice_vice_min              =  -1.5411728429379E+00
(PID.TID 0000.0001) %MON seaice_vice_mean             =  -2.1367498334454E-02
(PID.TID 0000.0001) %MON seaice_vice_sd               =   1.6626727561731E-01
(PID.TID 0000.0001) %MON seaice_vice_del2             =   3.9060467161572E-04
(PID.TID 0000.0001) %MON seaice_area_max              =   1.0010029449262E+00
(PID.TID 0000.0001) %MON seaice_area_min              =   0.0000000000000E+00
(PID.TID 0000.0001) %MON seaice_area_mean             =   5.7801050290371E-02
(PID.TID 0000.0001) %MON seaice_area_sd               =   2.2076575510625E-01
(PID.TID 0000.0001) %MON seaice_area_del2             =   2.8243094843022E-04
(PID.TID 0000.0001) %MON seaice_heff_max              =   9.9471119153539E+00
(PID.TID 0000.0001) %MON seaice_heff_min              =   0.0000000000000E+00
(PID.TID 0000.0001) %MON seaice_heff_mean             =   1.4914532020863E-01
(PID.TID 0000.0001) %MON seaice_heff_sd               =   7.1873547458398E-01
(PID.TID 0000.0001) %MON seaice_heff_del2             =   1.2955324287934E-03
(PID.TID 0000.0001) %MON seaice_hsnow_max             =   3.2855513274866E+00
(PID.TID 0000.0001) %MON seaice_hsnow_min             =   0.0000000000000E+00
(PID.TID 0000.0001) %MON seaice_hsnow_mean            =   1.2554621142277E-02
(PID.TID 0000.0001) %MON seaice_hsnow_sd              =   6.6942493889926E-02
(PID.TID 0000.0001) %MON seaice_hsnow_del2            =   3.4018472422422E-04
(PID.TID 0000.0001) // =======================================================
(PID.TID 0000.0001) // End MONITOR SEAICE statistics
(PID.TID 0000.0001) // =======================================================
(PID.TID 0000.0001) // =======================================================
(PID.TID 0000.0001) // Begin MONITOR dynamic field statistics
(PID.TID 0000.0001) // =======================================================
(PID.TID 0000.0001) %MON time_tsnumber                =                174944
(PID.TID 0000.0001) %MON time_secondsf                =   7.8724800000000E+07
(PID.TID 0000.0001) %MON dynstat_eta_max              =   2.9480875390574E+00
(PID.TID 0000.0001) %MON dynstat_eta_min              =  -1.0623502356627E+01
(PID.TID 0000.0001) %MON dynstat_eta_mean             =   6.5058866046154E-02
(PID.TID 0000.0001) %MON dynstat_eta_sd               =   1.0833189875442E+00
(PID.TID 0000.0001) %MON dynstat_eta_del2             =   2.0125581477720E-03
(PID.TID 0000.0001) %MON dynstat_uvel_max             =   1.5646692110607E+00
(PID.TID 0000.0001) %MON dynstat_uvel_min             =  -2.3366733314451E+00
(PID.TID 0000.0001) %MON dynstat_uvel_mean            =   6.8747281407552E-03
(PID.TID 0000.0001) %MON dynstat_uvel_sd              =   5.7254444789957E-02
(PID.TID 0000.0001) %MON dynstat_uvel_del2            =   4.9804347533045E-05
(PID.TID 0000.0001) %MON dynstat_vvel_max             =   2.0462378541064E+00
(PID.TID 0000.0001) %MON dynstat_vvel_min             =  -1.6733860477813E+00
(PID.TID 0000.0001) %MON dynstat_vvel_mean            =   1.4040242561885E-03
(PID.TID 0000.0001) %MON dynstat_vvel_sd              =   6.0290317375256E-02
(PID.TID 0000.0001) %MON dynstat_vvel_del2            =   4.8595844280283E-05
(PID.TID 0000.0001) %MON dynstat_wvel_max             =   1.3851865725533E-02
(PID.TID 0000.0001) %MON dynstat_wvel_min             =  -1.1669394025013E-02
(PID.TID 0000.0001) %MON dynstat_wvel_mean            =  -1.0102932781069E-06
(PID.TID 0000.0001) %MON dynstat_wvel_sd              =   2.1765846939219E-04
(PID.TID 0000.0001) %MON dynstat_wvel_del2            =   4.3317953231792E-07
(PID.TID 0000.0001) %MON dynstat_theta_max            =   3.2356466247532E+01
(PID.TID 0000.0001) %MON dynstat_theta_min            =  -2.0309028784141E+00
(PID.TID 0000.0001) %MON dynstat_theta_mean           =   3.5918191472301E+00
(PID.TID 0000.0001) %MON dynstat_theta_sd             =   4.4415089727628E+00
(PID.TID 0000.0001) %MON dynstat_theta_del2           =   1.3195002399453E-04
(PID.TID 0000.0001) %MON dynstat_salt_max             =   4.0655989274508E+01
(PID.TID 0000.0001) %MON dynstat_salt_min             =   1.5903436980095E+01
(PID.TID 0000.0001) %MON dynstat_salt_mean            =   3.4724781222945E+01
(PID.TID 0000.0001) %MON dynstat_salt_sd              =   3.7980845181566E-01
(PID.TID 0000.0001) %MON dynstat_salt_del2            =   6.1670987037232E-05
(PID.TID 0000.0001) %MON dynstat_sst_max              =   3.2356466247532E+01
(PID.TID 0000.0001) %MON dynstat_sst_min              =  -2.0309028784141E+00
(PID.TID 0000.0001) %MON dynstat_sst_mean             =   1.8178071754891E+01
(PID.TID 0000.0001) %MON dynstat_sst_sd               =   1.0218150441889E+01
(PID.TID 0000.0001) %MON dynstat_sst_del2             =   1.0928068360692E-03
(PID.TID 0000.0001) %MON dynstat_sss_max              =   3.9469336183123E+01
(PID.TID 0000.0001) %MON dynstat_sss_min              =   1.5903436980095E+01
(PID.TID 0000.0001) %MON dynstat_sss_mean             =   3.4640289177406E+01
(PID.TID 0000.0001) %MON dynstat_sss_sd               =   1.3055971304179E+00
(PID.TID 0000.0001) %MON dynstat_sss_del2             =   1.4784697335738E-03
(PID.TID 0000.0001) %MON forcing_qnet_max             =   5.2585307617188E+03
(PID.TID 0000.0001) %MON forcing_qnet_min             =  -1.9612980464645E+03
(PID.TID 0000.0001) %MON forcing_qnet_mean            =  -2.6996456477257E+01
(PID.TID 0000.0001) %MON forcing_qnet_sd              =   2.2331406619245E+02
(PID.TID 0000.0001) %MON forcing_qnet_del2            =   5.0952540552439E-01
(PID.TID 0000.0001) %MON forcing_qsw_max              =   0.0000000000000E+00
(PID.TID 0000.0001) %MON forcing_qsw_min              =  -1.1163909049699E+02
(PID.TID 0000.0001) %MON forcing_qsw_mean             =  -2.3180591235026E+01
(PID.TID 0000.0001) %MON forcing_qsw_sd               =   3.2862612114823E+01
(PID.TID 0000.0001) %MON forcing_qsw_del2             =   2.0665179726104E-02
(PID.TID 0000.0001) %MON forcing_empmr_max            =   2.6666263118386E-02
(PID.TID 0000.0001) %MON forcing_empmr_min            =  -1.1340453475714E-01
(PID.TID 0000.0001) %MON forcing_empmr_mean           =  -3.1884687842428E-06
(PID.TID 0000.0001) %MON forcing_empmr_sd             =   4.5304745871294E-04
(PID.TID 0000.0001) %MON forcing_empmr_del2           =   5.3278984550532E-06
(PID.TID 0000.0001) %MON forcing_fu_max               =   8.8746994489039E-01
(PID.TID 0000.0001) %MON forcing_fu_min               =  -1.2052708756827E+00
(PID.TID 0000.0001) %MON forcing_fu_mean              =   1.0309858576679E-02
(PID.TID 0000.0001) %MON forcing_fu_sd                =   1.2572095184713E-01
(PID.TID 0000.0001) %MON forcing_fu_del2              =   1.6545747660881E-04
(PID.TID 0000.0001) %MON forcing_fv_max               =   1.0974238514900E+00
(PID.TID 0000.0001) %MON forcing_fv_min               =  -1.2384498119354E+00
(PID.TID 0000.0001) %MON forcing_fv_mean              =   1.0999468018549E-03
(PID.TID 0000.0001) %MON forcing_fv_sd                =   1.2380093582345E-01
(PID.TID 0000.0001) %MON forcing_fv_del2              =   1.6620847442719E-04
(PID.TID 0000.0001) %MON trAdv_CFL_u_max              =   2.0476244223668E-02
(PID.TID 0000.0001) %MON trAdv_CFL_v_max              =   1.9239926473941E-02
(PID.TID 0000.0001) %MON trAdv_CFL_w_max              =   9.7562499118398E-02
(PID.TID 0000.0001) %MON advcfl_uvel_max              =   2.0750142513681E-02
(PID.TID 0000.0001) %MON advcfl_vvel_max              =   1.9177928096889E-02
(PID.TID 0000.0001) %MON advcfl_wvel_max              =   9.1887081983243E-02
(PID.TID 0000.0001) %MON advcfl_W_hf_max              =   9.7562499118398E-02
(PID.TID 0000.0001) %MON pe_b_mean                    =   2.1900914853049E-03
(PID.TID 0000.0001) %MON ke_max                       =   2.1821968066099E+00
(PID.TID 0000.0001) %MON ke_mean                      =   3.3571293929484E-03
(PID.TID 0000.0001) %MON ke_vol                       =   1.3350064351420E+18
(PID.TID 0000.0001) %MON vort_r_min                   =  -7.1822642816281E-05
(PID.TID 0000.0001) %MON vort_r_max                   =   7.3629174529177E-05
(PID.TID 0000.0001) %MON vort_a_mean                  =  -1.9725076949130E-05
(PID.TID 0000.0001) %MON vort_a_sd                    =   7.4544766794668E-05
(PID.TID 0000.0001) %MON vort_p_mean                  =  -2.1669081916069E-05
(PID.TID 0000.0001) %MON vort_p_sd                    =   9.3621585760227E-05
(PID.TID 0000.0001) %MON surfExpan_theta_mean         =  -3.6954441685007E-05
(PID.TID 0000.0001) %MON surfExpan_salt_mean          =  -7.6650966233199E-05
(PID.TID 0000.0001) // =======================================================
(PID.TID 0000.0001) // End MONITOR dynamic field statistics
(PID.TID 0000.0001) // =======================================================
(PID.TID 0000.0001) // =======================================================
(PID.TID 0000.0001) // Begin MONITOR SEAICE statistics
(PID.TID 0000.0001) // =======================================================
(PID.TID 0000.0001) %MON seaice_tsnumber              =                174944
(PID.TID 0000.0001) %MON seaice_time_sec              =   7.8724800000000E+07
(PID.TID 0000.0001) %MON seaice_uice_max              =   1.2833017874039E+00
(PID.TID 0000.0001) %MON seaice_uice_min              =  -1.1736670433438E+00
(PID.TID 0000.0001) %MON seaice_uice_mean             =   8.4608913676849E-03
(PID.TID 0000.0001) %MON seaice_uice_sd               =   1.5021242671867E-01
(PID.TID 0000.0001) %MON seaice_uice_del2             =   3.9997735438907E-04
(PID.TID 0000.0001) %MON seaice_vice_max              =   1.1322126920614E+00
(PID.TID 0000.0001) %MON seaice_vice_min              =  -1.5423186294456E+00
(PID.TID 0000.0001) %MON seaice_vice_mean             =  -2.1431665660169E-02
(PID.TID 0000.0001) %MON seaice_vice_sd               =   1.6644275425194E-01
(PID.TID 0000.0001) %MON seaice_vice_del2             =   3.9106576037403E-04
(PID.TID 0000.0001) %MON seaice_area_max              =   1.0010013743325E+00
(PID.TID 0000.0001) %MON seaice_area_min              =   0.0000000000000E+00
(PID.TID 0000.0001) %MON seaice_area_mean             =   5.7805373431142E-02
(PID.TID 0000.0001) %MON seaice_area_sd               =   2.2076708861088E-01
(PID.TID 0000.0001) %MON seaice_area_del2             =   2.8246908728999E-04
(PID.TID 0000.0001) %MON seaice_heff_max              =   9.9471128852739E+00
(PID.TID 0000.0001) %MON seaice_heff_min              =   0.0000000000000E+00
(PID.TID 0000.0001) %MON seaice_heff_mean             =   1.4914222861767E-01
(PID.TID 0000.0001) %MON seaice_heff_sd               =   7.1872231894403E-01
(PID.TID 0000.0001) %MON seaice_heff_del2             =   1.2949589877155E-03
(PID.TID 0000.0001) %MON seaice_hsnow_max             =   3.2855518193094E+00
(PID.TID 0000.0001) %MON seaice_hsnow_min             =   0.0000000000000E+00
(PID.TID 0000.0001) %MON seaice_hsnow_mean            =   1.2554019527577E-02
(PID.TID 0000.0001) %MON seaice_hsnow_sd              =   6.6931722860573E-02
(PID.TID 0000.0001) %MON seaice_hsnow_del2            =   3.3992155421790E-04
(PID.TID 0000.0001) // =======================================================
(PID.TID 0000.0001) // End MONITOR SEAICE statistics
(PID.TID 0000.0001) // =======================================================
(PID.TID 0000.0001) // =======================================================
(PID.TID 0000.0001) // Begin MONITOR dynamic field statistics
(PID.TID 0000.0001) // =======================================================
(PID.TID 0000.0001) %MON time_tsnumber                =                174945
(PID.TID 0000.0001) %MON time_secondsf                =   7.8725250000000E+07
(PID.TID 0000.0001) %MON dynstat_eta_max              =   2.9527281840189E+00
(PID.TID 0000.0001) %MON dynstat_eta_min              =  -1.0628262508375E+01
(PID.TID 0000.0001) %MON dynstat_eta_mean             =   6.4069535632277E-02
(PID.TID 0000.0001) %MON dynstat_eta_sd               =   1.0852752907359E+00
(PID.TID 0000.0001) %MON dynstat_eta_del2             =   2.0125478900009E-03
(PID.TID 0000.0001) %MON dynstat_uvel_max             =   1.5733554890699E+00
(PID.TID 0000.0001) %MON dynstat_uvel_min             =  -2.3354693468188E+00
(PID.TID 0000.0001) %MON dynstat_uvel_mean            =   6.8878286301830E-03
(PID.TID 0000.0001) %MON dynstat_uvel_sd              =   5.7515424154347E-02
(PID.TID 0000.0001) %MON dynstat_uvel_del2            =   4.9941430699617E-05
(PID.TID 0000.0001) %MON dynstat_vvel_max             =   2.0512685449440E+00
(PID.TID 0000.0001) %MON dynstat_vvel_min             =  -1.6695442918600E+00
(PID.TID 0000.0001) %MON dynstat_vvel_mean            =   1.3957584605851E-03
(PID.TID 0000.0001) %MON dynstat_vvel_sd              =   6.0603908039837E-02
(PID.TID 0000.0001) %MON dynstat_vvel_del2            =   4.8732029621688E-05
(PID.TID 0000.0001) %MON dynstat_wvel_max             =   1.3909061155890E-02
(PID.TID 0000.0001) %MON dynstat_wvel_min             =  -1.1731656803529E-02
(PID.TID 0000.0001) %MON dynstat_wvel_mean            =  -1.0207353540337E-06
(PID.TID 0000.0001) %MON dynstat_wvel_sd              =   2.1832305419588E-04
(PID.TID 0000.0001) %MON dynstat_wvel_del2            =   4.3406591670156E-07
(PID.TID 0000.0001) %MON dynstat_theta_max            =   3.2355784808906E+01
(PID.TID 0000.0001) %MON dynstat_theta_min            =  -2.0304497641007E+00
(PID.TID 0000.0001) %MON dynstat_theta_mean           =   3.5918243661073E+00
(PID.TID 0000.0001) %MON dynstat_theta_sd             =   4.4415231313956E+00
(PID.TID 0000.0001) %MON dynstat_theta_del2           =   1.3201833644230E-04
(PID.TID 0000.0001) %MON dynstat_salt_max             =   4.0655989274297E+01
(PID.TID 0000.0001) %MON dynstat_salt_min             =   1.5903024898983E+01
(PID.TID 0000.0001) %MON dynstat_salt_mean            =   3.4724781330194E+01
(PID.TID 0000.0001) %MON dynstat_salt_sd              =   3.7980962956104E-01
(PID.TID 0000.0001) %MON dynstat_salt_del2            =   6.1663692394921E-05
(PID.TID 0000.0001) %MON dynstat_sst_max              =   3.2355784808906E+01
(PID.TID 0000.0001) %MON dynstat_sst_min              =  -2.0304497641007E+00
(PID.TID 0000.0001) %MON dynstat_sst_mean             =   1.8178314014799E+01
(PID.TID 0000.0001) %MON dynstat_sst_sd               =   1.0218496807817E+01
(PID.TID 0000.0001) %MON dynstat_sst_del2             =   1.0930802092705E-03
(PID.TID 0000.0001) %MON dynstat_sss_max              =   3.9469241282841E+01
(PID.TID 0000.0001) %MON dynstat_sss_min              =   1.5903024898983E+01
(PID.TID 0000.0001) %MON dynstat_sss_mean             =   3.4640276667248E+01
(PID.TID 0000.0001) %MON dynstat_sss_sd               =   1.3056342931215E+00
(PID.TID 0000.0001) %MON dynstat_sss_del2             =   1.4792863319541E-03
(PID.TID 0000.0001) %MON forcing_qnet_max             =   1.6791712646484E+03
(PID.TID 0000.0001) %MON forcing_qnet_min             =  -2.5770426454658E+03
(PID.TID 0000.0001) %MON forcing_qnet_mean            =  -2.7594557213749E+01
(PID.TID 0000.0001) %MON forcing_qnet_sd              =   2.2343264089502E+02
(PID.TID 0000.0001) %MON forcing_qnet_del2            =   4.4456410539983E-01
(PID.TID 0000.0001) %MON forcing_qsw_max              =   0.0000000000000E+00
(PID.TID 0000.0001) %MON forcing_qsw_min              =  -1.1169087838587E+02
(PID.TID 0000.0001) %MON forcing_qsw_mean             =  -2.3283676973122E+01
(PID.TID 0000.0001) %MON forcing_qsw_sd               =   3.2905748111973E+01
(PID.TID 0000.0001) %MON forcing_qsw_del2             =   2.0683112081201E-02
(PID.TID 0000.0001) %MON forcing_empmr_max            =   2.3468568921089E-02
(PID.TID 0000.0001) %MON forcing_empmr_min            =  -1.1287786066532E-01
(PID.TID 0000.0001) %MON forcing_empmr_mean           =  -2.5982894322671E-06
(PID.TID 0000.0001) %MON forcing_empmr_sd             =   4.5024678684377E-04
(PID.TID 0000.0001) %MON forcing_empmr_del2           =   5.2576342471907E-06
(PID.TID 0000.0001) %MON forcing_fu_max               =   8.9724843321662E-01
(PID.TID 0000.0001) %MON forcing_fu_min               =  -1.2030750757778E+00
(PID.TID 0000.0001) %MON forcing_fu_mean              =   1.0280534854760E-02
(PID.TID 0000.0001) %MON forcing_fu_sd                =   1.2569052501075E-01
(PID.TID 0000.0001) %MON forcing_fu_del2              =   1.6546503385828E-04
(PID.TID 0000.0001) %MON forcing_fv_max               =   1.0828886628151E+00
(PID.TID 0000.0001) %MON forcing_fv_min               =  -1.2411416172981E+00
(PID.TID 0000.0001) %MON forcing_fv_mean              =   1.1218810321011E-03
(PID.TID 0000.0001) %MON forcing_fv_sd                =   1.2380491891310E-01
(PID.TID 0000.0001) %MON forcing_fv_del2              =   1.6628920239365E-04
(PID.TID 0000.0001) %MON trAdv_CFL_u_max              =   2.0425486714035E-02
(PID.TID 0000.0001) %MON trAdv_CFL_v_max              =   1.9263030862465E-02
(PID.TID 0000.0001) %MON trAdv_CFL_w_max              =   9.7301698025309E-02
(PID.TID 0000.0001) %MON advcfl_uvel_max              =   2.0698706051651E-02
(PID.TID 0000.0001) %MON advcfl_vvel_max              =   1.9200958034265E-02
(PID.TID 0000.0001) %MON advcfl_wvel_max              =   9.1643415603021E-02
(PID.TID 0000.0001) %MON advcfl_W_hf_max              =   9.7301698025309E-02
(PID.TID 0000.0001) %MON pe_b_mean                    =   2.1674802774756E-03
(PID.TID 0000.0001) %MON ke_max                       =   2.1845142291075E+00
(PID.TID 0000.0001) %MON ke_mean                      =   3.3899288697233E-03
(PID.TID 0000.0001) %MON ke_vol                       =   1.3350064351420E+18
(PID.TID 0000.0001) %MON vort_r_min                   =  -7.1834770995360E-05
(PID.TID 0000.0001) %MON vort_r_max                   =   7.3430284497834E-05
(PID.TID 0000.0001) %MON vort_a_mean                  =  -1.9725076907803E-05
(PID.TID 0000.0001) %MON vort_a_sd                    =   7.4544832049237E-05
(PID.TID 0000.0001) %MON vort_p_mean                  =  -2.1669081870670E-05
(PID.TID 0000.0001) %MON vort_p_sd                    =   9.3621616669544E-05
(PID.TID 0000.0001) %MON surfExpan_theta_mean         =  -3.8045788112911E-05
(PID.TID 0000.0001) %MON surfExpan_salt_mean          =  -7.7128772835487E-05
(PID.TID 0000.0001) // =======================================================
(PID.TID 0000.0001) // End MONITOR dynamic field statistics
(PID.TID 0000.0001) // =======================================================
(PID.TID 0000.0001) // =======================================================
(PID.TID 0000.0001) // Begin MONITOR SEAICE statistics
(PID.TID 0000.0001) // =======================================================
(PID.TID 0000.0001) %MON seaice_tsnumber              =                174945
(PID.TID 0000.0001) %MON seaice_time_sec              =   7.8725250000000E+07
(PID.TID 0000.0001) %MON seaice_uice_max              =   1.2858780690658E+00
(PID.TID 0000.0001) %MON seaice_uice_min              =  -1.1694108974850E+00
(PID.TID 0000.0001) %MON seaice_uice_mean             =   8.4479678210039E-03
(PID.TID 0000.0001) %MON seaice_uice_sd               =   1.5026429992751E-01
(PID.TID 0000.0001) %MON seaice_uice_del2             =   4.0056075460440E-04
(PID.TID 0000.0001) %MON seaice_vice_max              =   1.1503988174050E+00
(PID.TID 0000.0001) %MON seaice_vice_min              =  -1.5434478421640E+00
(PID.TID 0000.0001) %MON seaice_vice_mean             =  -2.1489792358483E-02
(PID.TID 0000.0001) %MON seaice_vice_sd               =   1.6662391249328E-01
(PID.TID 0000.0001) %MON seaice_vice_del2             =   3.9154569995932E-04
(PID.TID 0000.0001) %MON seaice_area_max              =   1.0010006411111E+00
(PID.TID 0000.0001) %MON seaice_area_min              =   0.0000000000000E+00
(PID.TID 0000.0001) %MON seaice_area_mean             =   5.7809701124193E-02
(PID.TID 0000.0001) %MON seaice_area_sd               =   2.2076836757787E-01
(PID.TID 0000.0001) %MON seaice_area_del2             =   2.8250801134673E-04
(PID.TID 0000.0001) %MON seaice_heff_max              =   9.9471148082243E+00
(PID.TID 0000.0001) %MON seaice_heff_min              =   0.0000000000000E+00
(PID.TID 0000.0001) %MON seaice_heff_mean             =   1.4913914200676E-01
(PID.TID 0000.0001) %MON seaice_heff_sd               =   7.1870919894002E-01
(PID.TID 0000.0001) %MON seaice_heff_del2             =   1.2943909384489E-03
(PID.TID 0000.0001) %MON seaice_hsnow_max             =   3.2855523180638E+00
(PID.TID 0000.0001) %MON seaice_hsnow_min             =   0.0000000000000E+00
(PID.TID 0000.0001) %MON seaice_hsnow_mean            =   1.2553415893850E-02
(PID.TID 0000.0001) %MON seaice_hsnow_sd              =   6.6920948585190E-02
(PID.TID 0000.0001) %MON seaice_hsnow_del2            =   3.3965964153820E-04
(PID.TID 0000.0001) // =======================================================
(PID.TID 0000.0001) // End MONITOR SEAICE statistics
(PID.TID 0000.0001) // =======================================================
(PID.TID 0000.0001) // =======================================================
(PID.TID 0000.0001) // Begin MONITOR dynamic field statistics
(PID.TID 0000.0001) // =======================================================
(PID.TID 0000.0001) %MON time_tsnumber                =                174946
(PID.TID 0000.0001) %MON time_secondsf                =   7.8725700000000E+07
(PID.TID 0000.0001) %MON dynstat_eta_max              =   2.9561367492578E+00
(PID.TID 0000.0001) %MON dynstat_eta_min              =  -1.0631846908001E+01
(PID.TID 0000.0001) %MON dynstat_eta_mean             =   6.3076590545839E-02
(PID.TID 0000.0001) %MON dynstat_eta_sd               =   1.0872286258031E+00
(PID.TID 0000.0001) %MON dynstat_eta_del2             =   2.0125483159015E-03
(PID.TID 0000.0001) %MON dynstat_uvel_max             =   1.5819244368525E+00
(PID.TID 0000.0001) %MON dynstat_uvel_min             =  -2.3341439956100E+00
(PID.TID 0000.0001) %MON dynstat_uvel_mean            =   6.8995053353027E-03
(PID.TID 0000.0001) %MON dynstat_uvel_sd              =   5.7776958259509E-02
(PID.TID 0000.0001) %MON dynstat_uvel_del2            =   5.0078634720999E-05
(PID.TID 0000.0001) %MON dynstat_vvel_max             =   2.0562713344780E+00
(PID.TID 0000.0001) %MON dynstat_vvel_min             =  -1.6655877201475E+00
(PID.TID 0000.0001) %MON dynstat_vvel_mean            =   1.3887028335698E-03
(PID.TID 0000.0001) %MON dynstat_vvel_sd              =   6.0917498999171E-02
(PID.TID 0000.0001) %MON dynstat_vvel_del2            =   4.8868512657731E-05
(PID.TID 0000.0001) %MON dynstat_wvel_max             =   1.3964823231446E-02
(PID.TID 0000.0001) %MON dynstat_wvel_min             =  -1.1793647898938E-02
(PID.TID 0000.0001) %MON dynstat_wvel_mean            =  -1.0302992423840E-06
(PID.TID 0000.0001) %MON dynstat_wvel_sd              =   2.1898532348534E-04
(PID.TID 0000.0001) %MON dynstat_wvel_del2            =   4.3494745104384E-07
(PID.TID 0000.0001) %MON dynstat_theta_max            =   3.2355096506476E+01
(PID.TID 0000.0001) %MON dynstat_theta_min            =  -2.0299768975370E+00
(PID.TID 0000.0001) %MON dynstat_theta_mean           =   3.5918297176877E+00
(PID.TID 0000.0001) %MON dynstat_theta_sd             =   4.4415376212632E+00
(PID.TID 0000.0001) %MON dynstat_theta_del2           =   1.3208543187767E-04
(PID.TID 0000.0001) %MON dynstat_salt_max             =   4.0655989274086E+01
(PID.TID 0000.0001) %MON dynstat_salt_min             =   1.5902604528291E+01
(PID.TID 0000.0001) %MON dynstat_salt_mean            =   3.4724781454292E+01
(PID.TID 0000.0001) %MON dynstat_salt_sd              =   3.7981081495538E-01
(PID.TID 0000.0001) %MON dynstat_salt_del2            =   6.1650172951193E-05
(PID.TID 0000.0001) %MON dynstat_sst_max              =   3.2355096506476E+01
(PID.TID 0000.0001) %MON dynstat_sst_min              =  -2.0299768975370E+00
(PID.TID 0000.0001) %MON dynstat_sst_mean             =   1.8178558449381E+01
(PID.TID 0000.0001) %MON dynstat_sst_sd               =   1.0218846533137E+01
(PID.TID 0000.0001) %MON dynstat_sst_del2             =   1.0931335913776E-03
(PID.TID 0000.0001) %MON dynstat_sss_max              =   3.9469142854347E+01
(PID.TID 0000.0001) %MON dynstat_sss_min              =   1.5902604528291E+01
(PID.TID 0000.0001) %MON dynstat_sss_mean             =   3.4640262903297E+01
(PID.TID 0000.0001) %MON dynstat_sss_sd               =   1.3056745174988E+00
(PID.TID 0000.0001) %MON dynstat_sss_del2             =   1.4797426215640E-03
(PID.TID 0000.0001) %MON forcing_qnet_max             =   1.7511833496094E+03
(PID.TID 0000.0001) %MON forcing_qnet_min             =  -2.3840066648215E+03
(PID.TID 0000.0001) %MON forcing_qnet_mean            =  -2.8037268234181E+01
(PID.TID 0000.0001) %MON forcing_qnet_sd              =   2.2373978708246E+02
(PID.TID 0000.0001) %MON forcing_qnet_del2            =   4.2851011027047E-01
(PID.TID 0000.0001) %MON forcing_qsw_max              =   0.0000000000000E+00
(PID.TID 0000.0001) %MON forcing_qsw_min              =  -1.1172113195935E+02
(PID.TID 0000.0001) %MON forcing_qsw_mean             =  -2.3369690167943E+01
(PID.TID 0000.0001) %MON forcing_qsw_sd               =   3.2934722045853E+01
(PID.TID 0000.0001) %MON forcing_qsw_del2             =   2.0697068293082E-02
(PID.TID 0000.0001) %MON forcing_empmr_max            =   2.2736970335245E-02
(PID.TID 0000.0001) %MON forcing_empmr_min            =  -1.1326567828655E-01
(PID.TID 0000.0001) %MON forcing_empmr_mean           =  -2.9500899721290E-06
(PID.TID 0000.0001) %MON forcing_empmr_sd             =   4.4367707476856E-04
(PID.TID 0000.0001) %MON forcing_empmr_del2           =   5.0438450367484E-06
(PID.TID 0000.0001) %MON forcing_fu_max               =   9.0849043213504E-01
(PID.TID 0000.0001) %MON forcing_fu_min               =  -1.1982851164250E+00
(PID.TID 0000.0001) %MON forcing_fu_mean              =   1.0239039572397E-02
(PID.TID 0000.0001) %MON forcing_fu_sd                =   1.2567620226905E-01
(PID.TID 0000.0001) %MON forcing_fu_del2              =   1.6555808110310E-04
(PID.TID 0000.0001) %MON forcing_fv_max               =   1.0854268074036E+00
(PID.TID 0000.0001) %MON forcing_fv_min               =  -1.2339810729027E+00
(PID.TID 0000.0001) %MON forcing_fv_mean              =   1.1500173951334E-03
(PID.TID 0000.0001) %MON forcing_fv_sd                =   1.2380977051332E-01
(PID.TID 0000.0001) %MON forcing_fv_del2              =   1.6626593124602E-04
(PID.TID 0000.0001) %MON trAdv_CFL_u_max              =   2.0375149950702E-02
(PID.TID 0000.0001) %MON trAdv_CFL_v_max              =   1.9291429357563E-02
(PID.TID 0000.0001) %MON trAdv_CFL_w_max              =   9.7016697777280E-02
(PID.TID 0000.0001) %MON advcfl_uvel_max              =   2.0647695963989E-02
(PID.TID 0000.0001) %MON advcfl_vvel_max              =   1.9229265018588E-02
(PID.TID 0000.0001) %MON advcfl_wvel_max              =   9.1376801083837E-02
(PID.TID 0000.0001) %MON advcfl_W_hf_max              =   9.7016697777280E-02
(PID.TID 0000.0001) %MON pe_b_mean                    =   2.1447877166833E-03
(PID.TID 0000.0001) %MON ke_max                       =   2.1866625301946E+00
(PID.TID 0000.0001) %MON ke_mean                      =   3.4229121716318E-03
(PID.TID 0000.0001) %MON ke_vol                       =   1.3350064351420E+18
(PID.TID 0000.0001) %MON vort_r_min                   =  -7.1844586122615E-05
(PID.TID 0000.0001) %MON vort_r_max                   =   7.3233171943512E-05
(PID.TID 0000.0001) %MON vort_a_mean                  =  -1.9725076862556E-05
(PID.TID 0000.0001) %MON vort_a_sd                    =   7.4544897503662E-05
(PID.TID 0000.0001) %MON vort_p_mean                  =  -2.1669081820963E-05
(PID.TID 0000.0001) %MON vort_p_sd                    =   9.3621646142206E-05
(PID.TID 0000.0001) %MON surfExpan_theta_mean         =  -3.9066071985463E-05
(PID.TID 0000.0001) %MON surfExpan_salt_mean          =  -7.7560713283214E-05
(PID.TID 0000.0001) // =======================================================
(PID.TID 0000.0001) // End MONITOR dynamic field statistics
(PID.TID 0000.0001) // =======================================================
(PID.TID 0000.0001) // =======================================================
(PID.TID 0000.0001) // Begin MONITOR SEAICE statistics
(PID.TID 0000.0001) // =======================================================
(PID.TID 0000.0001) %MON seaice_tsnumber              =                174946
(PID.TID 0000.0001) %MON seaice_time_sec              =   7.8725700000000E+07
(PID.TID 0000.0001) %MON seaice_uice_max              =   1.2880457610679E+00
(PID.TID 0000.0001) %MON seaice_uice_min              =  -1.1657031861123E+00
(PID.TID 0000.0001) %MON seaice_uice_mean             =   8.4366625872725E-03
(PID.TID 0000.0001) %MON seaice_uice_sd               =   1.5032117952387E-01
(PID.TID 0000.0001) %MON seaice_uice_del2             =   4.0116236567761E-04
(PID.TID 0000.0001) %MON seaice_vice_max              =   1.1681359571996E+00
(PID.TID 0000.0001) %MON seaice_vice_min              =  -1.5445572876830E+00
(PID.TID 0000.0001) %MON seaice_vice_mean             =  -2.1539374529472E-02
(PID.TID 0000.0001) %MON seaice_vice_sd               =   1.6680663693056E-01
(PID.TID 0000.0001) %MON seaice_vice_del2             =   3.9201651931767E-04
(PID.TID 0000.0001) %MON seaice_area_max              =   1.0010000183194E+00
(PID.TID 0000.0001) %MON seaice_area_min              =   0.0000000000000E+00
(PID.TID 0000.0001) %MON seaice_area_mean             =   5.7814047838001E-02
(PID.TID 0000.0001) %MON seaice_area_sd               =   2.2076966213696E-01
(PID.TID 0000.0001) %MON seaice_area_del2             =   2.8254938114675E-04
(PID.TID 0000.0001) %MON seaice_heff_max              =   9.9471195920654E+00
(PID.TID 0000.0001) %MON seaice_heff_min              =   0.0000000000000E+00
(PID.TID 0000.0001) %MON seaice_heff_mean             =   1.4913605993159E-01
(PID.TID 0000.0001) %MON seaice_heff_sd               =   7.1869610674947E-01
(PID.TID 0000.0001) %MON seaice_heff_del2             =   1.2938280532438E-03
(PID.TID 0000.0001) %MON seaice_hsnow_max             =   3.2855537978166E+00
(PID.TID 0000.0001) %MON seaice_hsnow_min             =   0.0000000000000E+00
(PID.TID 0000.0001) %MON seaice_hsnow_mean            =   1.2552832995197E-02
(PID.TID 0000.0001) %MON seaice_hsnow_sd              =   6.6910261264068E-02
(PID.TID 0000.0001) %MON seaice_hsnow_del2            =   3.3939875279831E-04
(PID.TID 0000.0001) // =======================================================
(PID.TID 0000.0001) // End MONITOR SEAICE statistics
(PID.TID 0000.0001) // =======================================================
(PID.TID 0000.0001) // =======================================================
(PID.TID 0000.0001) // Begin MONITOR dynamic field statistics
(PID.TID 0000.0001) // =======================================================
(PID.TID 0000.0001) %MON time_tsnumber                =                174947
(PID.TID 0000.0001) %MON time_secondsf                =   7.8726150000000E+07
(PID.TID 0000.0001) %MON dynstat_eta_max              =   2.9582533003483E+00
(PID.TID 0000.0001) %MON dynstat_eta_min              =  -1.0634211635571E+01
(PID.TID 0000.0001) %MON dynstat_eta_mean             =   6.2080722493441E-02
(PID.TID 0000.0001) %MON dynstat_eta_sd               =   1.0891813220095E+00
(PID.TID 0000.0001) %MON dynstat_eta_del2             =   2.0125468385315E-03
(PID.TID 0000.0001) %MON dynstat_uvel_max             =   1.5903730511788E+00
(PID.TID 0000.0001) %MON dynstat_uvel_min             =  -2.3326945863590E+00
(PID.TID 0000.0001) %MON dynstat_uvel_mean            =   6.9096600001322E-03
(PID.TID 0000.0001) %MON dynstat_uvel_sd              =   5.8039039405227E-02
(PID.TID 0000.0001) %MON dynstat_uvel_del2            =   5.0215976964566E-05
(PID.TID 0000.0001) %MON dynstat_vvel_max             =   2.0612418321584E+00
(PID.TID 0000.0001) %MON dynstat_vvel_min             =  -1.6615180250022E+00
(PID.TID 0000.0001) %MON dynstat_vvel_mean            =   1.3828250319998E-03
(PID.TID 0000.0001) %MON dynstat_vvel_sd              =   6.1231006863793E-02
(PID.TID 0000.0001) %MON dynstat_vvel_del2            =   4.9005245399120E-05
(PID.TID 0000.0001) %MON dynstat_wvel_max             =   1.4019152699369E-02
(PID.TID 0000.0001) %MON dynstat_wvel_min             =  -1.1855352173518E-02
(PID.TID 0000.0001) %MON dynstat_wvel_mean            =  -1.0384826154548E-06
(PID.TID 0000.0001) %MON dynstat_wvel_sd              =   2.1964510327096E-04
(PID.TID 0000.0001) %MON dynstat_wvel_del2            =   4.3582439264290E-07
(PID.TID 0000.0001) %MON dynstat_theta_max            =   3.2354403891015E+01
(PID.TID 0000.0001) %MON dynstat_theta_min            =  -2.0294783174005E+00
(PID.TID 0000.0001) %MON dynstat_theta_mean           =   3.5918351873458E+00
(PID.TID 0000.0001) %MON dynstat_theta_sd             =   4.4415523928168E+00
(PID.TID 0000.0001) %MON dynstat_theta_del2           =   1.3215335534419E-04
(PID.TID 0000.0001) %MON dynstat_salt_max             =   4.0655989273874E+01
(PID.TID 0000.0001) %MON dynstat_salt_min             =   1.5902174886303E+01
(PID.TID 0000.0001) %MON dynstat_salt_mean            =   3.4724781594772E+01
(PID.TID 0000.0001) %MON dynstat_salt_sd              =   3.7981201547030E-01
(PID.TID 0000.0001) %MON dynstat_salt_del2            =   6.1637964595604E-05
(PID.TID 0000.0001) %MON dynstat_sst_max              =   3.2354403891015E+01
(PID.TID 0000.0001) %MON dynstat_sst_min              =  -2.0294783174005E+00
(PID.TID 0000.0001) %MON dynstat_sst_mean             =   1.8178802765325E+01
(PID.TID 0000.0001) %MON dynstat_sst_sd               =   1.0219194981301E+01
(PID.TID 0000.0001) %MON dynstat_sst_del2             =   1.0933186305418E-03
(PID.TID 0000.0001) %MON dynstat_sss_max              =   3.9469042591833E+01
(PID.TID 0000.0001) %MON dynstat_sss_min              =   1.5902174886303E+01
(PID.TID 0000.0001) %MON dynstat_sss_mean             =   3.4640250581683E+01
(PID.TID 0000.0001) %MON dynstat_sss_sd               =   1.3057135305162E+00
(PID.TID 0000.0001) %MON dynstat_sss_del2             =   1.4802850302863E-03
(PID.TID 0000.0001) %MON forcing_qnet_max             =   2.3466796875000E+03
(PID.TID 0000.0001) %MON forcing_qnet_min             =  -2.2220674202259E+03
(PID.TID 0000.0001) %MON forcing_qnet_mean            =  -2.8300574790504E+01
(PID.TID 0000.0001) %MON forcing_qnet_sd              =   2.2449660515219E+02
(PID.TID 0000.0001) %MON forcing_qnet_del2            =   4.3480658077487E-01
(PID.TID 0000.0001) %MON forcing_qsw_max              =   0.0000000000000E+00
(PID.TID 0000.0001) %MON forcing_qsw_min              =  -1.1167446525052E+02
(PID.TID 0000.0001) %MON forcing_qsw_mean             =  -2.3438098601286E+01
(PID.TID 0000.0001) %MON forcing_qsw_sd               =   3.2949644437728E+01
(PID.TID 0000.0001) %MON forcing_qsw_del2             =   2.0706880698028E-02
(PID.TID 0000.0001) %MON forcing_empmr_max            =   2.2456364706159E-02
(PID.TID 0000.0001) %MON forcing_empmr_min            =  -1.1163560301065E-01
(PID.TID 0000.0001) %MON forcing_empmr_mean           =  -2.8790851868692E-06
(PID.TID 0000.0001) %MON forcing_empmr_sd             =   4.3971083563474E-04
(PID.TID 0000.0001) %MON forcing_empmr_del2           =   5.0056994873062E-06
(PID.TID 0000.0001) %MON forcing_fu_max               =   9.1238032987074E-01
(PID.TID 0000.0001) %MON forcing_fu_min               =  -1.1960275215601E+00
(PID.TID 0000.0001) %MON forcing_fu_mean              =   1.0202939370690E-02
(PID.TID 0000.0001) %MON forcing_fu_sd                =   1.2566800535919E-01
(PID.TID 0000.0001) %MON forcing_fu_del2              =   1.6560335925889E-04
(PID.TID 0000.0001) %MON forcing_fv_max               =   1.0802510976791E+00
(PID.TID 0000.0001) %MON forcing_fv_min               =  -1.2307312488556E+00
(PID.TID 0000.0001) %MON forcing_fv_mean              =   1.1770117706196E-03
(PID.TID 0000.0001) %MON forcing_fv_sd                =   1.2383516499017E-01
(PID.TID 0000.0001) %MON forcing_fv_del2              =   1.6640260882861E-04
(PID.TID 0000.0001) %MON trAdv_CFL_u_max              =   2.0325344011970E-02
(PID.TID 0000.0001) %MON trAdv_CFL_v_max              =   1.9324958735646E-02
(PID.TID 0000.0001) %MON trAdv_CFL_w_max              =   9.6704828235833E-02
(PID.TID 0000.0001) %MON advcfl_uvel_max              =   2.0597223801447E-02
(PID.TID 0000.0001) %MON advcfl_vvel_max              =   1.9262686352233E-02
(PID.TID 0000.0001) %MON advcfl_wvel_max              =   9.1084416662585E-02
(PID.TID 0000.0001) %MON advcfl_W_hf_max              =   9.6704828235833E-02
(PID.TID 0000.0001) %MON pe_b_mean                    =   2.1220391758273E-03
(PID.TID 0000.0001) %MON ke_max                       =   2.1886324404506E+00
(PID.TID 0000.0001) %MON ke_mean                      =   3.4560735921749E-03
(PID.TID 0000.0001) %MON ke_vol                       =   1.3350064351420E+18
(PID.TID 0000.0001) %MON vort_r_min                   =  -7.1852099698766E-05
(PID.TID 0000.0001) %MON vort_r_max                   =   7.3038298867570E-05
(PID.TID 0000.0001) %MON vort_a_mean                  =  -1.9725076812922E-05
(PID.TID 0000.0001) %MON vort_a_sd                    =   7.4544963122674E-05
(PID.TID 0000.0001) %MON vort_p_mean                  =  -2.1669081766438E-05
(PID.TID 0000.0001) %MON vort_p_sd                    =   9.3621674596528E-05
(PID.TID 0000.0001) %MON surfExpan_theta_mean         =  -3.9998070871525E-05
(PID.TID 0000.0001) %MON surfExpan_salt_mean          =  -7.7920293860349E-05
(PID.TID 0000.0001) // =======================================================
(PID.TID 0000.0001) // End MONITOR dynamic field statistics
(PID.TID 0000.0001) // =======================================================
(PID.TID 0000.0001) // =======================================================
(PID.TID 0000.0001) // Begin MONITOR SEAICE statistics
(PID.TID 0000.0001) // =======================================================
(PID.TID 0000.0001) %MON seaice_tsnumber              =                174947
(PID.TID 0000.0001) %MON seaice_time_sec              =   7.8726150000000E+07
(PID.TID 0000.0001) %MON seaice_uice_max              =   1.2898049079443E+00
(PID.TID 0000.0001) %MON seaice_uice_min              =  -1.1625412662389E+00
(PID.TID 0000.0001) %MON seaice_uice_mean             =   8.4242399754416E-03
(PID.TID 0000.0001) %MON seaice_uice_sd               =   1.5037819100521E-01
(PID.TID 0000.0001) %MON seaice_uice_del2             =   4.0174382200072E-04
(PID.TID 0000.0001) %MON seaice_vice_max              =   1.1853249014651E+00
(PID.TID 0000.0001) %MON seaice_vice_min              =  -1.5456499291169E+00
(PID.TID 0000.0001) %MON seaice_vice_mean             =  -2.1581235551108E-02
(PID.TID 0000.0001) %MON seaice_vice_sd               =   1.6699293265247E-01
(PID.TID 0000.0001) %MON seaice_vice_del2             =   3.9249931553472E-04
(PID.TID 0000.0001) %MON seaice_area_max              =   1.0009997076461E+00
(PID.TID 0000.0001) %MON seaice_area_min              =   0.0000000000000E+00
(PID.TID 0000.0001) %MON seaice_area_mean             =   5.7818439985909E-02
(PID.TID 0000.0001) %MON seaice_area_sd               =   2.2077107291462E-01
(PID.TID 0000.0001) %MON seaice_area_del2             =   2.8259495285415E-04
(PID.TID 0000.0001) %MON seaice_heff_max              =   9.9471234223555E+00
(PID.TID 0000.0001) %MON seaice_heff_min              =   0.0000000000000E+00
(PID.TID 0000.0001) %MON seaice_heff_mean             =   1.4913297880714E-01
(PID.TID 0000.0001) %MON seaice_heff_sd               =   7.1868302480838E-01
(PID.TID 0000.0001) %MON seaice_heff_del2             =   1.2932708111675E-03
(PID.TID 0000.0001) %MON seaice_hsnow_max             =   3.2855552705035E+00
(PID.TID 0000.0001) %MON seaice_hsnow_min             =   0.0000000000000E+00
(PID.TID 0000.0001) %MON seaice_hsnow_mean            =   1.2552250360045E-02
(PID.TID 0000.0001) %MON seaice_hsnow_sd              =   6.6899573787213E-02
(PID.TID 0000.0001) %MON seaice_hsnow_del2            =   3.3913903919209E-04
(PID.TID 0000.0001) // =======================================================
(PID.TID 0000.0001) // End MONITOR SEAICE statistics
(PID.TID 0000.0001) // =======================================================
(PID.TID 0000.0001) // =======================================================
(PID.TID 0000.0001) // Begin MONITOR dynamic field statistics
(PID.TID 0000.0001) // =======================================================
(PID.TID 0000.0001) %MON time_tsnumber                =                174948
(PID.TID 0000.0001) %MON time_secondsf                =   7.8726600000000E+07
(PID.TID 0000.0001) %MON dynstat_eta_max              =   2.9590239871014E+00
(PID.TID 0000.0001) %MON dynstat_eta_min              =  -1.0635291468286E+01
(PID.TID 0000.0001) %MON dynstat_eta_mean             =   6.1082640256870E-02
(PID.TID 0000.0001) %MON dynstat_eta_sd               =   1.0911354530867E+00
(PID.TID 0000.0001) %MON dynstat_eta_del2             =   2.0125465010604E-03
(PID.TID 0000.0001) %MON dynstat_uvel_max             =   1.5986982887413E+00
(PID.TID 0000.0001) %MON dynstat_uvel_min             =  -2.3311186185577E+00
(PID.TID 0000.0001) %MON dynstat_uvel_mean            =   6.9182147360801E-03
(PID.TID 0000.0001) %MON dynstat_uvel_sd              =   5.8301665770886E-02
(PID.TID 0000.0001) %MON dynstat_uvel_del2            =   5.0353358404387E-05
(PID.TID 0000.0001) %MON dynstat_vvel_max             =   2.0661756018580E+00
(PID.TID 0000.0001) %MON dynstat_vvel_min             =  -1.6573362601822E+00
(PID.TID 0000.0001) %MON dynstat_vvel_mean            =   1.3780843054050E-03
(PID.TID 0000.0001) %MON dynstat_vvel_sd              =   6.1544385421119E-02
(PID.TID 0000.0001) %MON dynstat_vvel_del2            =   4.9142205541000E-05
(PID.TID 0000.0001) %MON dynstat_wvel_max             =   1.4072038497032E-02
(PID.TID 0000.0001) %MON dynstat_wvel_min             =  -1.1916741553037E-02
(PID.TID 0000.0001) %MON dynstat_wvel_mean            =  -1.0452810164494E-06
(PID.TID 0000.0001) %MON dynstat_wvel_sd              =   2.2030231063060E-04
(PID.TID 0000.0001) %MON dynstat_wvel_del2            =   4.3669665452771E-07
(PID.TID 0000.0001) %MON dynstat_theta_max            =   3.2353699017085E+01
(PID.TID 0000.0001) %MON dynstat_theta_min            =  -2.0289478166838E+00
(PID.TID 0000.0001) %MON dynstat_theta_mean           =   3.5918407711714E+00
(PID.TID 0000.0001) %MON dynstat_theta_sd             =   4.4415674711012E+00
(PID.TID 0000.0001) %MON dynstat_theta_del2           =   1.3222194520206E-04
(PID.TID 0000.0001) %MON dynstat_salt_max             =   4.0655989273662E+01
(PID.TID 0000.0001) %MON dynstat_salt_min             =   1.5901734098905E+01
(PID.TID 0000.0001) %MON dynstat_salt_mean            =   3.4724781752980E+01
(PID.TID 0000.0001) %MON dynstat_salt_sd              =   3.7981321505224E-01
(PID.TID 0000.0001) %MON dynstat_salt_del2            =   6.1629450540841E-05
(PID.TID 0000.0001) %MON dynstat_sst_max              =   3.2353699017085E+01
(PID.TID 0000.0001) %MON dynstat_sst_min              =  -2.0289478166838E+00
(PID.TID 0000.0001) %MON dynstat_sst_mean             =   1.8179049039753E+01
(PID.TID 0000.0001) %MON dynstat_sst_sd               =   1.0219547134579E+01
(PID.TID 0000.0001) %MON dynstat_sst_del2             =   1.0935814358271E-03
(PID.TID 0000.0001) %MON dynstat_sss_max              =   3.9468939532870E+01
(PID.TID 0000.0001) %MON dynstat_sss_min              =   1.5901734098905E+01
(PID.TID 0000.0001) %MON dynstat_sss_mean             =   3.4640237966818E+01
(PID.TID 0000.0001) %MON dynstat_sss_sd               =   1.3057526063770E+00
(PID.TID 0000.0001) %MON dynstat_sss_del2             =   1.4809887454708E-03
(PID.TID 0000.0001) %MON forcing_qnet_max             =   3.2046660156250E+03
(PID.TID 0000.0001) %MON forcing_qnet_min             =  -1.9424616651871E+03
(PID.TID 0000.0001) %MON forcing_qnet_mean            =  -2.8709875097266E+01
(PID.TID 0000.0001) %MON forcing_qnet_sd              =   2.2563989920805E+02
(PID.TID 0000.0001) %MON forcing_qnet_del2            =   4.6426456843281E-01
(PID.TID 0000.0001) %MON forcing_qsw_max              =   0.0000000000000E+00
(PID.TID 0000.0001) %MON forcing_qsw_min              =  -1.1160168501835E+02
(PID.TID 0000.0001) %MON forcing_qsw_mean             =  -2.3488816695251E+01
(PID.TID 0000.0001) %MON forcing_qsw_sd               =   3.2950347559725E+01
(PID.TID 0000.0001) %MON forcing_qsw_del2             =   2.0712357079099E-02
(PID.TID 0000.0001) %MON forcing_empmr_max            =   1.7539884895086E-02
(PID.TID 0000.0001) %MON forcing_empmr_min            =  -1.1328104883432E-01
(PID.TID 0000.0001) %MON forcing_empmr_mean           =  -2.3402634423726E-06
(PID.TID 0000.0001) %MON forcing_empmr_sd             =   4.4087699189293E-04
(PID.TID 0000.0001) %MON forcing_empmr_del2           =   5.0305640060064E-06
(PID.TID 0000.0001) %MON forcing_fu_max               =   9.1606125734410E-01
(PID.TID 0000.0001) %MON forcing_fu_min               =  -1.1940719095982E+00
(PID.TID 0000.0001) %MON forcing_fu_mean              =   1.0173127753448E-02
(PID.TID 0000.0001) %MON forcing_fu_sd                =   1.2570644887407E-01
(PID.TID 0000.0001) %MON forcing_fu_del2              =   1.6562661461030E-04
(PID.TID 0000.0001) %MON forcing_fv_max               =   1.0738970637321E+00
(PID.TID 0000.0001) %MON forcing_fv_min               =  -1.2248458266258E+00
(PID.TID 0000.0001) %MON forcing_fv_mean              =   1.1986436674368E-03
(PID.TID 0000.0001) %MON forcing_fv_sd                =   1.2381319898262E-01
(PID.TID 0000.0001) %MON forcing_fv_del2              =   1.6644268847164E-04
(PID.TID 0000.0001) %MON trAdv_CFL_u_max              =   2.0276087384748E-02
(PID.TID 0000.0001) %MON trAdv_CFL_v_max              =   1.9363416969752E-02
(PID.TID 0000.0001) %MON trAdv_CFL_w_max              =   9.6366903196228E-02
(PID.TID 0000.0001) %MON advcfl_uvel_max              =   2.0547308298221E-02
(PID.TID 0000.0001) %MON advcfl_vvel_max              =   1.9301020659250E-02
(PID.TID 0000.0001) %MON advcfl_wvel_max              =   9.0767098738750E-02
(PID.TID 0000.0001) %MON advcfl_W_hf_max              =   9.6366903196228E-02
(PID.TID 0000.0001) %MON pe_b_mean                    =   2.0992605656853E-03
(PID.TID 0000.0001) %MON ke_max                       =   2.1904210327405E+00
(PID.TID 0000.0001) %MON ke_mean                      =   3.4894099865529E-03
(PID.TID 0000.0001) %MON ke_vol                       =   1.3350064351420E+18
(PID.TID 0000.0001) %MON vort_r_min                   =  -7.1857315328640E-05
(PID.TID 0000.0001) %MON vort_r_max                   =   7.2845889356904E-05
(PID.TID 0000.0001) %MON vort_a_mean                  =  -1.9725076758676E-05
(PID.TID 0000.0001) %MON vort_a_sd                    =   7.4545028878140E-05
(PID.TID 0000.0001) %MON vort_p_mean                  =  -2.1669081706846E-05
(PID.TID 0000.0001) %MON vort_p_sd                    =   9.3621701645644E-05
(PID.TID 0000.0001) %MON surfExpan_theta_mean         =  -4.0845147097760E-05
(PID.TID 0000.0001) %MON surfExpan_salt_mean          =  -7.8205146093771E-05
(PID.TID 0000.0001) // =======================================================
(PID.TID 0000.0001) // End MONITOR dynamic field statistics
(PID.TID 0000.0001) // =======================================================
(PID.TID 0000.0001) // =======================================================
(PID.TID 0000.0001) // Begin MONITOR SEAICE statistics
(PID.TID 0000.0001) // =======================================================
(PID.TID 0000.0001) %MON seaice_tsnumber              =                174948
(PID.TID 0000.0001) %MON seaice_time_sec              =   7.8726600000000E+07
(PID.TID 0000.0001) %MON seaice_uice_max              =   1.2911345941661E+00
(PID.TID 0000.0001) %MON seaice_uice_min              =  -1.1599204381660E+00
(PID.TID 0000.0001) %MON seaice_uice_mean             =   8.4145439143060E-03
(PID.TID 0000.0001) %MON seaice_uice_sd               =   1.5043600399284E-01
(PID.TID 0000.0001) %MON seaice_uice_del2             =   4.0234597335436E-04
(PID.TID 0000.0001) %MON seaice_vice_max              =   1.2018833870390E+00
(PID.TID 0000.0001) %MON seaice_vice_min              =  -1.5467254817791E+00
(PID.TID 0000.0001) %MON seaice_vice_mean             =  -2.1617349595896E-02
(PID.TID 0000.0001) %MON seaice_vice_sd               =   1.6718215554082E-01
(PID.TID 0000.0001) %MON seaice_vice_del2             =   3.9310792159979E-04
(PID.TID 0000.0001) %MON seaice_area_max              =   1.0009993443723E+00
(PID.TID 0000.0001) %MON seaice_area_min              =   0.0000000000000E+00
(PID.TID 0000.0001) %MON seaice_area_mean             =   5.7822830407468E-02
(PID.TID 0000.0001) %MON seaice_area_sd               =   2.2077244041219E-01
(PID.TID 0000.0001) %MON seaice_area_del2             =   2.8264104710319E-04
(PID.TID 0000.0001) %MON seaice_heff_max              =   9.9471215308567E+00
(PID.TID 0000.0001) %MON seaice_heff_min              =   0.0000000000000E+00
(PID.TID 0000.0001) %MON seaice_heff_mean             =   1.4912989809855E-01
(PID.TID 0000.0001) %MON seaice_heff_sd               =   7.1866995449322E-01
(PID.TID 0000.0001) %MON seaice_heff_del2             =   1.2927179753642E-03
(PID.TID 0000.0001) %MON seaice_hsnow_max             =   3.2855547711322E+00
(PID.TID 0000.0001) %MON seaice_hsnow_min             =   0.0000000000000E+00
(PID.TID 0000.0001) %MON seaice_hsnow_mean            =   1.2551676856691E-02
(PID.TID 0000.0001) %MON seaice_hsnow_sd              =   6.6888928350486E-02
(PID.TID 0000.0001) %MON seaice_hsnow_del2            =   3.3888056513076E-04
(PID.TID 0000.0001) // =======================================================
(PID.TID 0000.0001) // End MONITOR SEAICE statistics
(PID.TID 0000.0001) // =======================================================
(PID.TID 0000.0001) // =======================================================
(PID.TID 0000.0001) // Begin MONITOR dynamic field statistics
(PID.TID 0000.0001) // =======================================================
(PID.TID 0000.0001) %MON time_tsnumber                =                174949
(PID.TID 0000.0001) %MON time_secondsf                =   7.8727050000000E+07
(PID.TID 0000.0001) %MON dynstat_eta_max              =   2.9584004150561E+00
(PID.TID 0000.0001) %MON dynstat_eta_min              =  -1.0635090800816E+01
(PID.TID 0000.0001) %MON dynstat_eta_mean             =   6.0083283644713E-02
(PID.TID 0000.0001) %MON dynstat_eta_sd               =   1.0930939140750E+00
(PID.TID 0000.0001) %MON dynstat_eta_del2             =   2.0125451833601E-03
(PID.TID 0000.0001) %MON dynstat_uvel_max             =   1.6068978630731E+00
(PID.TID 0000.0001) %MON dynstat_uvel_min             =  -2.3294129530198E+00
(PID.TID 0000.0001) %MON dynstat_uvel_mean            =   6.9251098331211E-03
(PID.TID 0000.0001) %MON dynstat_uvel_sd              =   5.8564836800561E-02
(PID.TID 0000.0001) %MON dynstat_uvel_del2            =   5.0490922441520E-05
(PID.TID 0000.0001) %MON dynstat_vvel_max             =   2.0710673304818E+00
(PID.TID 0000.0001) %MON dynstat_vvel_min             =  -1.6530451940292E+00
(PID.TID 0000.0001) %MON dynstat_vvel_mean            =   1.3744332946264E-03
(PID.TID 0000.0001) %MON dynstat_vvel_sd              =   6.1857549894831E-02
(PID.TID 0000.0001) %MON dynstat_vvel_del2            =   4.9279404998323E-05
(PID.TID 0000.0001) %MON dynstat_wvel_max             =   1.4123489521396E-02
(PID.TID 0000.0001) %MON dynstat_wvel_min             =  -1.1977786964975E-02
(PID.TID 0000.0001) %MON dynstat_wvel_mean            =  -1.0511064049160E-06
(PID.TID 0000.0001) %MON dynstat_wvel_sd              =   2.2095674813336E-04
(PID.TID 0000.0001) %MON dynstat_wvel_del2            =   4.3756422131512E-07
(PID.TID 0000.0001) %MON dynstat_theta_max            =   3.2352990305267E+01
(PID.TID 0000.0001) %MON dynstat_theta_min            =  -2.0283901013700E+00
(PID.TID 0000.0001) %MON dynstat_theta_mean           =   3.5918465208229E+00
(PID.TID 0000.0001) %MON dynstat_theta_sd             =   4.4415831038242E+00
(PID.TID 0000.0001) %MON dynstat_theta_del2           =   1.3229013931968E-04
(PID.TID 0000.0001) %MON dynstat_salt_max             =   4.0655989273450E+01
(PID.TID 0000.0001) %MON dynstat_salt_min             =   1.5901280758372E+01
(PID.TID 0000.0001) %MON dynstat_salt_mean            =   3.4724781927678E+01
(PID.TID 0000.0001) %MON dynstat_salt_sd              =   3.7981440669951E-01
(PID.TID 0000.0001) %MON dynstat_salt_del2            =   6.1617433921026E-05
(PID.TID 0000.0001) %MON dynstat_sst_max              =   3.2352990305267E+01
(PID.TID 0000.0001) %MON dynstat_sst_min              =  -2.0283901013700E+00
(PID.TID 0000.0001) %MON dynstat_sst_mean             =   1.8179292542611E+01
(PID.TID 0000.0001) %MON dynstat_sst_sd               =   1.0219897502421E+01
(PID.TID 0000.0001) %MON dynstat_sst_del2             =   1.0937589922727E-03
(PID.TID 0000.0001) %MON dynstat_sss_max              =   3.9468833385981E+01
(PID.TID 0000.0001) %MON dynstat_sss_min              =   1.5901280758372E+01
(PID.TID 0000.0001) %MON dynstat_sss_mean             =   3.4640225037937E+01
(PID.TID 0000.0001) %MON dynstat_sss_sd               =   1.3057892711958E+00
(PID.TID 0000.0001) %MON dynstat_sss_del2             =   1.4815057757000E-03
(PID.TID 0000.0001) %MON forcing_qnet_max             =   2.5646434951352E+03
(PID.TID 0000.0001) %MON forcing_qnet_min             =  -2.6143806152344E+03
(PID.TID 0000.0001) %MON forcing_qnet_mean            =  -3.1290517452406E+01
(PID.TID 0000.0001) %MON forcing_qnet_sd              =   2.2571075542485E+02
(PID.TID 0000.0001) %MON forcing_qnet_del2            =   4.7730444487025E-01
(PID.TID 0000.0001) %MON forcing_qsw_max              =   0.0000000000000E+00
(PID.TID 0000.0001) %MON forcing_qsw_min              =  -1.1160206697549E+02
(PID.TID 0000.0001) %MON forcing_qsw_mean             =  -2.3898175822144E+01
(PID.TID 0000.0001) %MON forcing_qsw_sd               =   3.3156250121685E+01
(PID.TID 0000.0001) %MON forcing_qsw_del2             =   2.0585096284159E-02
(PID.TID 0000.0001) %MON forcing_empmr_max            =   1.9226346164942E-02
(PID.TID 0000.0001) %MON forcing_empmr_min            =  -1.1142725497484E-01
(PID.TID 0000.0001) %MON forcing_empmr_mean           =  -2.3839532392068E-06
(PID.TID 0000.0001) %MON forcing_empmr_sd             =   4.3233114038158E-04
(PID.TID 0000.0001) %MON forcing_empmr_del2           =   4.9445025624947E-06
(PID.TID 0000.0001) %MON forcing_fu_max               =   9.2667940384288E-01
(PID.TID 0000.0001) %MON forcing_fu_min               =  -1.1897519689403E+00
(PID.TID 0000.0001) %MON forcing_fu_mean              =   1.0142873661692E-02
(PID.TID 0000.0001) %MON forcing_fu_sd                =   1.2574073111120E-01
(PID.TID 0000.0001) %MON forcing_fu_del2              =   1.6565001227332E-04
(PID.TID 0000.0001) %MON forcing_fv_max               =   1.0740732550621E+00
(PID.TID 0000.0001) %MON forcing_fv_min               =  -1.2200185060501E+00
(PID.TID 0000.0001) %MON forcing_fv_mean              =   1.2206435068564E-03
(PID.TID 0000.0001) %MON forcing_fv_sd                =   1.2383642577768E-01
(PID.TID 0000.0001) %MON forcing_fv_del2              =   1.6664976539466E-04
(PID.TID 0000.0001) %MON trAdv_CFL_u_max              =   2.0227469857804E-02
(PID.TID 0000.0001) %MON trAdv_CFL_v_max              =   1.9406566496868E-02
(PID.TID 0000.0001) %MON trAdv_CFL_w_max              =   9.6001848474128E-02
(PID.TID 0000.0001) %MON advcfl_uvel_max              =   2.0498040444129E-02
(PID.TID 0000.0001) %MON advcfl_vvel_max              =   1.9344031142141E-02
(PID.TID 0000.0001) %MON advcfl_wvel_max              =   9.0423607971755E-02
(PID.TID 0000.0001) %MON advcfl_W_hf_max              =   9.6001848474128E-02
(PID.TID 0000.0001) %MON pe_b_mean                    =   2.0764863088907E-03
(PID.TID 0000.0001) %MON ke_max                       =   2.1920228744130E+00
(PID.TID 0000.0001) %MON ke_mean                      =   3.5229160455159E-03
(PID.TID 0000.0001) %MON ke_vol                       =   1.3350064351420E+18
(PID.TID 0000.0001) %MON vort_r_min                   =  -7.1860235956203E-05
(PID.TID 0000.0001) %MON vort_r_max                   =   7.2656367831661E-05
(PID.TID 0000.0001) %MON vort_a_mean                  =  -1.9725076699791E-05
(PID.TID 0000.0001) %MON vort_a_sd                    =   7.4545094744565E-05
(PID.TID 0000.0001) %MON vort_p_mean                  =  -2.1669081642157E-05
(PID.TID 0000.0001) %MON vort_p_sd                    =   9.3621727492921E-05
(PID.TID 0000.0001) %MON surfExpan_theta_mean         =  -4.1606547014437E-05
(PID.TID 0000.0001) %MON surfExpan_salt_mean          =  -7.8431876788466E-05
(PID.TID 0000.0001) // =======================================================
(PID.TID 0000.0001) // End MONITOR dynamic field statistics
(PID.TID 0000.0001) // =======================================================
(PID.TID 0000.0001) // =======================================================
(PID.TID 0000.0001) // Begin MONITOR SEAICE statistics
(PID.TID 0000.0001) // =======================================================
(PID.TID 0000.0001) %MON seaice_tsnumber              =                174949
(PID.TID 0000.0001) %MON seaice_time_sec              =   7.8727050000000E+07
(PID.TID 0000.0001) %MON seaice_uice_max              =   1.2920269497670E+00
(PID.TID 0000.0001) %MON seaice_uice_min              =  -1.1578322558814E+00
(PID.TID 0000.0001) %MON seaice_uice_mean             =   8.4021288590199E-03
(PID.TID 0000.0001) %MON seaice_uice_sd               =   1.5049681374428E-01
(PID.TID 0000.0001) %MON seaice_uice_del2             =   4.0290217771580E-04
(PID.TID 0000.0001) %MON seaice_vice_max              =   1.2177323862423E+00
(PID.TID 0000.0001) %MON seaice_vice_min              =  -1.5477933289749E+00
(PID.TID 0000.0001) %MON seaice_vice_mean             =  -2.1643813796026E-02
(PID.TID 0000.0001) %MON seaice_vice_sd               =   1.6737296622513E-01
(PID.TID 0000.0001) %MON seaice_vice_del2             =   3.9359192744387E-04
(PID.TID 0000.0001) %MON seaice_area_max              =   1.0009993035095E+00
(PID.TID 0000.0001) %MON seaice_area_min              =   0.0000000000000E+00
(PID.TID 0000.0001) %MON seaice_area_mean             =   5.7827245374125E-02
(PID.TID 0000.0001) %MON seaice_area_sd               =   2.2077385052257E-01
(PID.TID 0000.0001) %MON seaice_area_del2             =   2.8269062024437E-04
(PID.TID 0000.0001) %MON seaice_heff_max              =   9.9471310827521E+00
(PID.TID 0000.0001) %MON seaice_heff_min              =   0.0000000000000E+00
(PID.TID 0000.0001) %MON seaice_heff_mean             =   1.4912682705696E-01
(PID.TID 0000.0001) %MON seaice_heff_sd               =   7.1865692967939E-01
(PID.TID 0000.0001) %MON seaice_heff_del2             =   1.2921701723096E-03
(PID.TID 0000.0001) %MON seaice_hsnow_max             =   3.2855577346432E+00
(PID.TID 0000.0001) %MON seaice_hsnow_min             =   0.0000000000000E+00
(PID.TID 0000.0001) %MON seaice_hsnow_mean            =   1.2551137978464E-02
(PID.TID 0000.0001) %MON seaice_hsnow_sd              =   6.6878356071669E-02
(PID.TID 0000.0001) %MON seaice_hsnow_del2            =   3.3862306462234E-04
(PID.TID 0000.0001) // =======================================================
(PID.TID 0000.0001) // End MONITOR SEAICE statistics
(PID.TID 0000.0001) // =======================================================
(PID.TID 0000.0001) // =======================================================
(PID.TID 0000.0001) // Begin MONITOR dynamic field statistics
(PID.TID 0000.0001) // =======================================================
(PID.TID 0000.0001) %MON time_tsnumber                =                174950
(PID.TID 0000.0001) %MON time_secondsf                =   7.8727500000000E+07
(PID.TID 0000.0001) %MON dynstat_eta_max              =   2.9563409811576E+00
(PID.TID 0000.0001) %MON dynstat_eta_min              =  -1.0633621599656E+01
(PID.TID 0000.0001) %MON dynstat_eta_mean             =   5.9083209699033E-02
(PID.TID 0000.0001) %MON dynstat_eta_sd               =   1.0950591731685E+00
(PID.TID 0000.0001) %MON dynstat_eta_del2             =   2.0125410299685E-03
(PID.TID 0000.0001) %MON dynstat_uvel_max             =   1.6149705016269E+00
(PID.TID 0000.0001) %MON dynstat_uvel_min             =  -2.3275774184284E+00
(PID.TID 0000.0001) %MON dynstat_uvel_mean            =   6.9302942691754E-03
(PID.TID 0000.0001) %MON dynstat_uvel_sd              =   5.8828595290020E-02
(PID.TID 0000.0001) %MON dynstat_uvel_del2            =   5.0628617903434E-05
(PID.TID 0000.0001) %MON dynstat_vvel_max             =   2.0759115102631E+00
(PID.TID 0000.0001) %MON dynstat_vvel_min             =  -1.6486467837645E+00
(PID.TID 0000.0001) %MON dynstat_vvel_mean            =   1.3718201832025E-03
(PID.TID 0000.0001) %MON dynstat_vvel_sd              =   6.2170520842885E-02
(PID.TID 0000.0001) %MON dynstat_vvel_del2            =   4.9416873575202E-05
(PID.TID 0000.0001) %MON dynstat_wvel_max             =   1.4173504726361E-02
(PID.TID 0000.0001) %MON dynstat_wvel_min             =  -1.2038487275711E-02
(PID.TID 0000.0001) %MON dynstat_wvel_mean            =  -1.0559029642988E-06
(PID.TID 0000.0001) %MON dynstat_wvel_sd              =   2.2160904095507E-04
(PID.TID 0000.0001) %MON dynstat_wvel_del2            =   4.3842793017998E-07
(PID.TID 0000.0001) %MON dynstat_theta_max            =   3.2352271945454E+01
(PID.TID 0000.0001) %MON dynstat_theta_min            =  -2.0278034320623E+00
(PID.TID 0000.0001) %MON dynstat_theta_mean           =   3.5918523831212E+00
(PID.TID 0000.0001) %MON dynstat_theta_sd             =   4.4415990937630E+00
(PID.TID 0000.0001) %MON dynstat_theta_del2           =   1.3235819664222E-04
(PID.TID 0000.0001) %MON dynstat_salt_max             =   4.0655989273237E+01
(PID.TID 0000.0001) %MON dynstat_salt_min             =   1.5900813065429E+01
(PID.TID 0000.0001) %MON dynstat_salt_mean            =   3.4724782118587E+01
(PID.TID 0000.0001) %MON dynstat_salt_sd              =   3.7981560258299E-01
(PID.TID 0000.0001) %MON dynstat_salt_del2            =   6.1605340183238E-05
(PID.TID 0000.0001) %MON dynstat_sst_max              =   3.2352271945454E+01
(PID.TID 0000.0001) %MON dynstat_sst_min              =  -2.0278034320623E+00
(PID.TID 0000.0001) %MON dynstat_sst_mean             =   1.8179551555460E+01
(PID.TID 0000.0001) %MON dynstat_sst_sd               =   1.0220262356046E+01
(PID.TID 0000.0001) %MON dynstat_sst_del2             =   1.0938786869487E-03
(PID.TID 0000.0001) %MON dynstat_sss_max              =   3.9468725291901E+01
(PID.TID 0000.0001) %MON dynstat_sss_min              =   1.5900813065429E+01
(PID.TID 0000.0001) %MON dynstat_sss_mean             =   3.4640212532302E+01
(PID.TID 0000.0001) %MON dynstat_sss_sd               =   1.3058270486904E+00
(PID.TID 0000.0001) %MON dynstat_sss_del2             =   1.4819861506953E-03
(PID.TID 0000.0001) %MON forcing_qnet_max             =   1.1771853027344E+03
(PID.TID 0000.0001) %MON forcing_qnet_min             =  -1.9984616699219E+03
(PID.TID 0000.0001) %MON forcing_qnet_mean            =  -3.2431270470346E+01
(PID.TID 0000.0001) %MON forcing_qnet_sd              =   2.2570065789819E+02
(PID.TID 0000.0001) %MON forcing_qnet_del2            =   4.3561257351912E-01
(PID.TID 0000.0001) %MON forcing_qsw_max              =   0.0000000000000E+00
(PID.TID 0000.0001) %MON forcing_qsw_min              =  -1.1170138450752E+02
(PID.TID 0000.0001) %MON forcing_qsw_mean             =  -2.4007015860839E+01
(PID.TID 0000.0001) %MON forcing_qsw_sd               =   3.3211325055537E+01
(PID.TID 0000.0001) %MON forcing_qsw_del2             =   2.0659559822616E-02
(PID.TID 0000.0001) %MON forcing_empmr_max            =   2.1699219942093E-02
(PID.TID 0000.0001) %MON forcing_empmr_min            =  -1.1162026971579E-01
(PID.TID 0000.0001) %MON forcing_empmr_mean           =  -2.3336652096341E-06
(PID.TID 0000.0001) %MON forcing_empmr_sd             =   4.2870977307180E-04
(PID.TID 0000.0001) %MON forcing_empmr_del2           =   4.9057683100859E-06
(PID.TID 0000.0001) %MON forcing_fu_max               =   9.4041093387068E-01
(PID.TID 0000.0001) %MON forcing_fu_min               =  -1.1950619816780E+00
(PID.TID 0000.0001) %MON forcing_fu_mean              =   1.0104645196107E-02
(PID.TID 0000.0001) %MON forcing_fu_sd                =   1.2579606276296E-01
(PID.TID 0000.0001) %MON forcing_fu_del2              =   1.6582202188661E-04
(PID.TID 0000.0001) %MON forcing_fv_max               =   1.0732987523079E+00
(PID.TID 0000.0001) %MON forcing_fv_min               =  -1.2203528881073E+00
(PID.TID 0000.0001) %MON forcing_fv_mean              =   1.2490957257296E-03
(PID.TID 0000.0001) %MON forcing_fv_sd                =   1.2388123906877E-01
(PID.TID 0000.0001) %MON forcing_fv_del2              =   1.6685146016773E-04
(PID.TID 0000.0001) %MON trAdv_CFL_u_max              =   2.0179570218966E-02
(PID.TID 0000.0001) %MON trAdv_CFL_v_max              =   1.9454129184007E-02
(PID.TID 0000.0001) %MON trAdv_CFL_w_max              =   9.5607293581089E-02
(PID.TID 0000.0001) %MON advcfl_uvel_max              =   2.0449500080897E-02
(PID.TID 0000.0001) %MON advcfl_vvel_max              =   1.9391440564172E-02
(PID.TID 0000.0001) %MON advcfl_wvel_max              =   9.0051316691312E-02
(PID.TID 0000.0001) %MON advcfl_W_hf_max              =   9.5607293581089E-02
(PID.TID 0000.0001) %MON pe_b_mean                    =   2.0537392455603E-03
(PID.TID 0000.0001) %MON ke_max                       =   2.1934325898185E+00
(PID.TID 0000.0001) %MON ke_mean                      =   3.5565951959591E-03
(PID.TID 0000.0001) %MON ke_vol                       =   1.3350064351420E+18
(PID.TID 0000.0001) %MON vort_r_min                   =  -7.1860860784966E-05
(PID.TID 0000.0001) %MON vort_r_max                   =   7.2470080054732E-05
(PID.TID 0000.0001) %MON vort_a_mean                  =  -1.9725076635950E-05
(PID.TID 0000.0001) %MON vort_a_sd                    =   7.4545160694206E-05
(PID.TID 0000.0001) %MON vort_p_mean                  =  -2.1669081572024E-05
(PID.TID 0000.0001) %MON vort_p_sd                    =   9.3621752039316E-05
(PID.TID 0000.0001) %MON surfExpan_theta_mean         =  -4.2270068492200E-05
(PID.TID 0000.0001) %MON surfExpan_salt_mean          =  -7.8605713815223E-05
(PID.TID 0000.0001) // =======================================================
(PID.TID 0000.0001) // End MONITOR dynamic field statistics
(PID.TID 0000.0001) // =======================================================
(PID.TID 0000.0001) // =======================================================
(PID.TID 0000.0001) // Begin MONITOR SEAICE statistics
(PID.TID 0000.0001) // =======================================================
(PID.TID 0000.0001) %MON seaice_tsnumber              =                174950
(PID.TID 0000.0001) %MON seaice_time_sec              =   7.8727500000000E+07
(PID.TID 0000.0001) %MON seaice_uice_max              =   1.2924630686306E+00
(PID.TID 0000.0001) %MON seaice_uice_min              =  -1.1562657892260E+00
(PID.TID 0000.0001) %MON seaice_uice_mean             =   8.3984001294451E-03
(PID.TID 0000.0001) %MON seaice_uice_sd               =   1.5056160433634E-01
(PID.TID 0000.0001) %MON seaice_uice_del2             =   4.0348531194623E-04
(PID.TID 0000.0001) %MON seaice_vice_max              =   1.2327908673609E+00
(PID.TID 0000.0001) %MON seaice_vice_min              =  -1.5488537096100E+00
(PID.TID 0000.0001) %MON seaice_vice_mean             =  -2.1655369323472E-02
(PID.TID 0000.0001) %MON seaice_vice_sd               =   1.6756137181176E-01
(PID.TID 0000.0001) %MON seaice_vice_del2             =   3.9408628956837E-04
(PID.TID 0000.0001) %MON seaice_area_max              =   1.0009984776783E+00
(PID.TID 0000.0001) %MON seaice_area_min              =   0.0000000000000E+00
(PID.TID 0000.0001) %MON seaice_area_mean             =   5.7831693991094E-02
(PID.TID 0000.0001) %MON seaice_area_sd               =   2.2077538132258E-01
(PID.TID 0000.0001) %MON seaice_area_del2             =   2.8274708205593E-04
(PID.TID 0000.0001) %MON seaice_heff_max              =   9.9471310973413E+00
(PID.TID 0000.0001) %MON seaice_heff_min              =   0.0000000000000E+00
(PID.TID 0000.0001) %MON seaice_heff_mean             =   1.4912376496512E-01
(PID.TID 0000.0001) %MON seaice_heff_sd               =   7.1864396282521E-01
(PID.TID 0000.0001) %MON seaice_heff_del2             =   1.2916273696487E-03
(PID.TID 0000.0001) %MON seaice_hsnow_max             =   3.2855577337416E+00
(PID.TID 0000.0001) %MON seaice_hsnow_min             =   0.0000000000000E+00
(PID.TID 0000.0001) %MON seaice_hsnow_mean            =   1.2550599297837E-02
(PID.TID 0000.0001) %MON seaice_hsnow_sd              =   6.6867805090005E-02
(PID.TID 0000.0001) %MON seaice_hsnow_del2            =   3.3836659122824E-04
(PID.TID 0000.0001) // =======================================================
(PID.TID 0000.0001) // End MONITOR SEAICE statistics
(PID.TID 0000.0001) // =======================================================
(PID.TID 0000.0001) // =======================================================
(PID.TID 0000.0001) // Begin MONITOR dynamic field statistics
(PID.TID 0000.0001) // =======================================================
(PID.TID 0000.0001) %MON time_tsnumber                =                174951
(PID.TID 0000.0001) %MON time_secondsf                =   7.8727950000000E+07
(PID.TID 0000.0001) %MON dynstat_eta_max              =   2.9528106330974E+00
(PID.TID 0000.0001) %MON dynstat_eta_min              =  -1.0630913634259E+01
(PID.TID 0000.0001) %MON dynstat_eta_mean             =   5.8082692265915E-02
(PID.TID 0000.0001) %MON dynstat_eta_sd               =   1.0970331498993E+00
(PID.TID 0000.0001) %MON dynstat_eta_del2             =   2.0125352096081E-03
(PID.TID 0000.0001) %MON dynstat_uvel_max             =   1.6229144166864E+00
(PID.TID 0000.0001) %MON dynstat_uvel_min             =  -2.3256115212960E+00
(PID.TID 0000.0001) %MON dynstat_uvel_mean            =   6.9337110802011E-03
(PID.TID 0000.0001) %MON dynstat_uvel_sd              =   5.9092911693052E-02
(PID.TID 0000.0001) %MON dynstat_uvel_del2            =   5.0766283503844E-05
(PID.TID 0000.0001) %MON dynstat_vvel_max             =   2.0807047178840E+00
(PID.TID 0000.0001) %MON dynstat_vvel_min             =  -1.6441470733627E+00
(PID.TID 0000.0001) %MON dynstat_vvel_mean            =   1.3701898643369E-03
(PID.TID 0000.0001) %MON dynstat_vvel_sd              =   6.2483184001735E-02
(PID.TID 0000.0001) %MON dynstat_vvel_del2            =   4.9554538808960E-05
(PID.TID 0000.0001) %MON dynstat_wvel_max             =   1.4222103262518E-02
(PID.TID 0000.0001) %MON dynstat_wvel_min             =  -1.2098804728764E-02
(PID.TID 0000.0001) %MON dynstat_wvel_mean            =  -1.0599420364793E-06
(PID.TID 0000.0001) %MON dynstat_wvel_sd              =   2.2225894397806E-04
(PID.TID 0000.0001) %MON dynstat_wvel_del2            =   4.3928768472506E-07
(PID.TID 0000.0001) %MON dynstat_theta_max            =   3.2351540348879E+01
(PID.TID 0000.0001) %MON dynstat_theta_min            =  -2.0271854119589E+00
(PID.TID 0000.0001) %MON dynstat_theta_mean           =   3.5918583270062E+00
(PID.TID 0000.0001) %MON dynstat_theta_sd             =   4.4416153049424E+00
(PID.TID 0000.0001) %MON dynstat_theta_del2           =   1.3242719130223E-04
(PID.TID 0000.0001) %MON dynstat_salt_max             =   4.0655989273025E+01
(PID.TID 0000.0001) %MON dynstat_salt_min             =   1.5900329714549E+01
(PID.TID 0000.0001) %MON dynstat_salt_mean            =   3.4724782321371E+01
(PID.TID 0000.0001) %MON dynstat_salt_sd              =   3.7981680627911E-01
(PID.TID 0000.0001) %MON dynstat_salt_del2            =   6.1594882313787E-05
(PID.TID 0000.0001) %MON dynstat_sst_max              =   3.2351540348879E+01
(PID.TID 0000.0001) %MON dynstat_sst_min              =  -2.0271854119589E+00
(PID.TID 0000.0001) %MON dynstat_sst_mean             =   1.8179807588745E+01
(PID.TID 0000.0001) %MON dynstat_sst_sd               =   1.0220625041013E+01
(PID.TID 0000.0001) %MON dynstat_sst_del2             =   1.0941318576126E-03
(PID.TID 0000.0001) %MON dynstat_sss_max              =   3.9468616736359E+01
(PID.TID 0000.0001) %MON dynstat_sss_min              =   1.5900329714549E+01
(PID.TID 0000.0001) %MON dynstat_sss_mean             =   3.4640200613558E+01
(PID.TID 0000.0001) %MON dynstat_sss_sd               =   1.3058619592711E+00
(PID.TID 0000.0001) %MON dynstat_sss_del2             =   1.4825763787450E-03
(PID.TID 0000.0001) %MON forcing_qnet_max             =   3.5416464843750E+03
(PID.TID 0000.0001) %MON forcing_qnet_min             =  -3.7693291015625E+03
(PID.TID 0000.0001) %MON forcing_qnet_mean            =  -3.2823154151709E+01
(PID.TID 0000.0001) %MON forcing_qnet_sd              =   2.2916481507987E+02
(PID.TID 0000.0001) %MON forcing_qnet_del2            =   5.8720317372884E-01
(PID.TID 0000.0001) %MON forcing_qsw_max              =   0.0000000000000E+00
(PID.TID 0000.0001) %MON forcing_qsw_min              =  -1.1168318387403E+02
(PID.TID 0000.0001) %MON forcing_qsw_mean             =  -2.4096494864377E+01
(PID.TID 0000.0001) %MON forcing_qsw_sd               =   3.3253230522516E+01
(PID.TID 0000.0001) %MON forcing_qsw_del2             =   2.0730479552196E-02
(PID.TID 0000.0001) %MON forcing_empmr_max            =   2.4984516203403E-02
(PID.TID 0000.0001) %MON forcing_empmr_min            =  -1.1029892414808E-01
(PID.TID 0000.0001) %MON forcing_empmr_mean           =  -2.1527109558525E-06
(PID.TID 0000.0001) %MON forcing_empmr_sd             =   4.3034244182537E-04
(PID.TID 0000.0001) %MON forcing_empmr_del2           =   4.9414818728869E-06
(PID.TID 0000.0001) %MON forcing_fu_max               =   9.4396411343972E-01
(PID.TID 0000.0001) %MON forcing_fu_min               =  -1.1911181807518E+00
(PID.TID 0000.0001) %MON forcing_fu_mean              =   1.0064597358158E-02
(PID.TID 0000.0001) %MON forcing_fu_sd                =   1.2584417897533E-01
(PID.TID 0000.0001) %MON forcing_fu_del2              =   1.6580933389901E-04
(PID.TID 0000.0001) %MON forcing_fv_max               =   1.0742506980896E+00
(PID.TID 0000.0001) %MON forcing_fv_min               =  -1.2213007211685E+00
(PID.TID 0000.0001) %MON forcing_fv_mean              =   1.2777744527351E-03
(PID.TID 0000.0001) %MON forcing_fv_sd                =   1.2388502754514E-01
(PID.TID 0000.0001) %MON forcing_fv_del2              =   1.6700968000061E-04
(PID.TID 0000.0001) %MON trAdv_CFL_u_max              =   2.0132371340664E-02
(PID.TID 0000.0001) %MON trAdv_CFL_v_max              =   1.9505793579926E-02
(PID.TID 0000.0001) %MON trAdv_CFL_w_max              =   9.5180804468850E-02
(PID.TID 0000.0001) %MON advcfl_uvel_max              =   2.0401669851850E-02
(PID.TID 0000.0001) %MON advcfl_vvel_max              =   1.9442938477714E-02
(PID.TID 0000.0001) %MON advcfl_wvel_max              =   8.9647525493766E-02
(PID.TID 0000.0001) %MON advcfl_W_hf_max              =   9.5180804468850E-02
(PID.TID 0000.0001) %MON pe_b_mean                    =   2.0310326689828E-03
(PID.TID 0000.0001) %MON ke_max                       =   2.1946549476330E+00
(PID.TID 0000.0001) %MON ke_mean                      =   3.5904386537404E-03
(PID.TID 0000.0001) %MON ke_vol                       =   1.3350064351420E+18
(PID.TID 0000.0001) %MON vort_r_min                   =  -7.1859187084024E-05
(PID.TID 0000.0001) %MON vort_r_max                   =   7.2287115031826E-05
(PID.TID 0000.0001) %MON vort_a_mean                  =  -1.9725076567009E-05
(PID.TID 0000.0001) %MON vort_a_sd                    =   7.4545226692470E-05
(PID.TID 0000.0001) %MON vort_p_mean                  =  -2.1669081496288E-05
(PID.TID 0000.0001) %MON vort_p_sd                    =   9.3621775348385E-05
(PID.TID 0000.0001) %MON surfExpan_theta_mean         =  -4.2849490363865E-05
(PID.TID 0000.0001) %MON surfExpan_salt_mean          =  -7.8747164095467E-05
(PID.TID 0000.0001) // =======================================================
(PID.TID 0000.0001) // End MONITOR dynamic field statistics
(PID.TID 0000.0001) // =======================================================
(PID.TID 0000.0001) // =======================================================
(PID.TID 0000.0001) // Begin MONITOR SEAICE statistics
(PID.TID 0000.0001) // =======================================================
(PID.TID 0000.0001) %MON seaice_tsnumber              =                174951
(PID.TID 0000.0001) %MON seaice_time_sec              =   7.8727950000000E+07
(PID.TID 0000.0001) %MON seaice_uice_max              =   1.2924823248319E+00
(PID.TID 0000.0001) %MON seaice_uice_min              =  -1.1552080444423E+00
(PID.TID 0000.0001) %MON seaice_uice_mean             =   8.3884727215607E-03
(PID.TID 0000.0001) %MON seaice_uice_sd               =   1.5062850366170E-01
(PID.TID 0000.0001) %MON seaice_uice_del2             =   4.0413205416880E-04
(PID.TID 0000.0001) %MON seaice_vice_max              =   1.2470044472161E+00
(PID.TID 0000.0001) %MON seaice_vice_min              =  -1.5499007785409E+00
(PID.TID 0000.0001) %MON seaice_vice_mean             =  -2.1667490718797E-02
(PID.TID 0000.0001) %MON seaice_vice_sd               =   1.6776097552871E-01
(PID.TID 0000.0001) %MON seaice_vice_del2             =   3.9459873227104E-04
(PID.TID 0000.0001) %MON seaice_area_max              =   1.0009982009180E+00
(PID.TID 0000.0001) %MON seaice_area_min              =   0.0000000000000E+00
(PID.TID 0000.0001) %MON seaice_area_mean             =   5.7836167295130E-02
(PID.TID 0000.0001) %MON seaice_area_sd               =   2.2077695099927E-01
(PID.TID 0000.0001) %MON seaice_area_del2             =   2.8280797039171E-04
(PID.TID 0000.0001) %MON seaice_heff_max              =   9.9471282505898E+00
(PID.TID 0000.0001) %MON seaice_heff_min              =   0.0000000000000E+00
(PID.TID 0000.0001) %MON seaice_heff_mean             =   1.4912070888653E-01
(PID.TID 0000.0001) %MON seaice_heff_sd               =   7.1863103506719E-01
(PID.TID 0000.0001) %MON seaice_heff_del2             =   1.2910889817388E-03
(PID.TID 0000.0001) %MON seaice_hsnow_max             =   3.2855569881999E+00
(PID.TID 0000.0001) %MON seaice_hsnow_min             =   0.0000000000000E+00
(PID.TID 0000.0001) %MON seaice_hsnow_mean            =   1.2550073603472E-02
(PID.TID 0000.0001) %MON seaice_hsnow_sd              =   6.6857321622123E-02
(PID.TID 0000.0001) %MON seaice_hsnow_del2            =   3.3811101081568E-04
(PID.TID 0000.0001) // =======================================================
(PID.TID 0000.0001) // End MONITOR SEAICE statistics
(PID.TID 0000.0001) // =======================================================
(PID.TID 0000.0001) // =======================================================
(PID.TID 0000.0001) // Begin MONITOR dynamic field statistics
(PID.TID 0000.0001) // =======================================================
(PID.TID 0000.0001) %MON time_tsnumber                =                174952
(PID.TID 0000.0001) %MON time_secondsf                =   7.8728400000000E+07
(PID.TID 0000.0001) %MON dynstat_eta_max              =   2.9477816199309E+00
(PID.TID 0000.0001) %MON dynstat_eta_min              =  -1.0626942911499E+01
(PID.TID 0000.0001) %MON dynstat_eta_mean             =   5.7082134210584E-02
(PID.TID 0000.0001) %MON dynstat_eta_sd               =   1.0990181609465E+00
(PID.TID 0000.0001) %MON dynstat_eta_del2             =   2.0125283171988E-03
(PID.TID 0000.0001) %MON dynstat_uvel_max             =   1.6307268305542E+00
(PID.TID 0000.0001) %MON dynstat_uvel_min             =  -2.3235153768698E+00
(PID.TID 0000.0001) %MON dynstat_uvel_mean            =   6.9353196877498E-03
(PID.TID 0000.0001) %MON dynstat_uvel_sd              =   5.9357809680269E-02
(PID.TID 0000.0001) %MON dynstat_uvel_del2            =   5.0904156551284E-05
(PID.TID 0000.0001) %MON dynstat_vvel_max             =   2.0854446591262E+00
(PID.TID 0000.0001) %MON dynstat_vvel_min             =  -1.6395516915915E+00
(PID.TID 0000.0001) %MON dynstat_vvel_mean            =   1.3694848886070E-03
(PID.TID 0000.0001) %MON dynstat_vvel_sd              =   6.2795530469992E-02
(PID.TID 0000.0001) %MON dynstat_vvel_del2            =   4.9692440264401E-05
(PID.TID 0000.0001) %MON dynstat_wvel_max             =   1.4269320899137E-02
(PID.TID 0000.0001) %MON dynstat_wvel_min             =  -1.2158700014962E-02
(PID.TID 0000.0001) %MON dynstat_wvel_mean            =  -1.0632727302697E-06
(PID.TID 0000.0001) %MON dynstat_wvel_sd              =   2.2290591707555E-04
(PID.TID 0000.0001) %MON dynstat_wvel_del2            =   4.4014340730571E-07
(PID.TID 0000.0001) %MON dynstat_theta_max            =   3.2350794868845E+01
(PID.TID 0000.0001) %MON dynstat_theta_min            =  -2.0265346065701E+00
(PID.TID 0000.0001) %MON dynstat_theta_mean           =   3.5918643458333E+00
(PID.TID 0000.0001) %MON dynstat_theta_sd             =   4.4416317441334E+00
(PID.TID 0000.0001) %MON dynstat_theta_del2           =   1.3249696704310E-04
(PID.TID 0000.0001) %MON dynstat_salt_max             =   4.0655989272812E+01
(PID.TID 0000.0001) %MON dynstat_salt_min             =   1.5899828857381E+01
(PID.TID 0000.0001) %MON dynstat_salt_mean            =   3.4724782536341E+01
(PID.TID 0000.0001) %MON dynstat_salt_sd              =   3.7981802119134E-01
(PID.TID 0000.0001) %MON dynstat_salt_del2            =   6.1582973576661E-05
(PID.TID 0000.0001) %MON dynstat_sst_max              =   3.2350794868845E+01
(PID.TID 0000.0001) %MON dynstat_sst_min              =  -2.0265346065701E+00
(PID.TID 0000.0001) %MON dynstat_sst_mean             =   1.8180068573586E+01
(PID.TID 0000.0001) %MON dynstat_sst_sd               =   1.0220994753728E+01
(PID.TID 0000.0001) %MON dynstat_sst_del2             =   1.0944729604448E-03
(PID.TID 0000.0001) %MON dynstat_sss_max              =   3.9468507359135E+01
(PID.TID 0000.0001) %MON dynstat_sss_min              =   1.5899828857381E+01
(PID.TID 0000.0001) %MON dynstat_sss_mean             =   3.4640187901458E+01
(PID.TID 0000.0001) %MON dynstat_sss_sd               =   1.3058982141739E+00
(PID.TID 0000.0001) %MON dynstat_sss_del2             =   1.4830520781466E-03
(PID.TID 0000.0001) %MON forcing_qnet_max             =   5.2507280273438E+03
(PID.TID 0000.0001) %MON forcing_qnet_min             =  -3.0890498046875E+03
(PID.TID 0000.0001) %MON forcing_qnet_mean            =  -3.3347236505397E+01
(PID.TID 0000.0001) %MON forcing_qnet_sd              =   2.2931581223247E+02
(PID.TID 0000.0001) %MON forcing_qnet_del2            =   5.3322549731738E-01
(PID.TID 0000.0001) %MON forcing_qsw_max              =   0.0000000000000E+00
(PID.TID 0000.0001) %MON forcing_qsw_min              =  -1.1154752634883E+02
(PID.TID 0000.0001) %MON forcing_qsw_mean             =  -2.4166663903433E+01
(PID.TID 0000.0001) %MON forcing_qsw_sd               =   3.3281738604896E+01
(PID.TID 0000.0001) %MON forcing_qsw_del2             =   2.0797802366994E-02
(PID.TID 0000.0001) %MON forcing_empmr_max            =   2.6108048856258E-02
(PID.TID 0000.0001) %MON forcing_empmr_min            =  -1.0872191935778E-01
(PID.TID 0000.0001) %MON forcing_empmr_mean           =  -2.0582160513292E-06
(PID.TID 0000.0001) %MON forcing_empmr_sd             =   4.1691343695702E-04
(PID.TID 0000.0001) %MON forcing_empmr_del2           =   4.8101401042130E-06
(PID.TID 0000.0001) %MON forcing_fu_max               =   9.4812046775904E-01
(PID.TID 0000.0001) %MON forcing_fu_min               =  -1.1812496016482E+00
(PID.TID 0000.0001) %MON forcing_fu_mean              =   1.0033281586285E-02
(PID.TID 0000.0001) %MON forcing_fu_sd                =   1.2588743525875E-01
(PID.TID 0000.0001) %MON forcing_fu_del2              =   1.6600165974947E-04
(PID.TID 0000.0001) %MON forcing_fv_max               =   1.0703954696655E+00
(PID.TID 0000.0001) %MON forcing_fv_min               =  -1.2095277905464E+00
(PID.TID 0000.0001) %MON forcing_fv_mean              =   1.3134142757411E-03
(PID.TID 0000.0001) %MON forcing_fv_sd                =   1.2393196214930E-01
(PID.TID 0000.0001) %MON forcing_fv_del2              =   1.6713550478014E-04
(PID.TID 0000.0001) %MON trAdv_CFL_u_max              =   2.0085966102374E-02
(PID.TID 0000.0001) %MON trAdv_CFL_v_max              =   1.9561216821328E-02
(PID.TID 0000.0001) %MON trAdv_CFL_w_max              =   9.4726435402739E-02
(PID.TID 0000.0001) %MON advcfl_uvel_max              =   2.0354643878855E-02
(PID.TID 0000.0001) %MON advcfl_vvel_max              =   1.9498183124305E-02
(PID.TID 0000.0001) %MON advcfl_wvel_max              =   8.9216431371724E-02
(PID.TID 0000.0001) %MON advcfl_W_hf_max              =   9.4726435402739E-02
(PID.TID 0000.0001) %MON pe_b_mean                    =   2.0083853880446E-03
(PID.TID 0000.0001) %MON ke_max                       =   2.1956877456452E+00
(PID.TID 0000.0001) %MON ke_mean                      =   3.6244470132104E-03
(PID.TID 0000.0001) %MON ke_vol                       =   1.3350064351420E+18
(PID.TID 0000.0001) %MON vort_r_min                   =  -7.1855214279293E-05
(PID.TID 0000.0001) %MON vort_r_max                   =   7.2107851370271E-05
(PID.TID 0000.0001) %MON vort_a_mean                  =  -1.9725076493231E-05
(PID.TID 0000.0001) %MON vort_a_sd                    =   7.4545292720547E-05
(PID.TID 0000.0001) %MON vort_p_mean                  =  -2.1669081415239E-05
(PID.TID 0000.0001) %MON vort_p_sd                    =   9.3621797331971E-05
(PID.TID 0000.0001) %MON surfExpan_theta_mean         =  -4.3342460074972E-05
(PID.TID 0000.0001) %MON surfExpan_salt_mean          =  -7.8853388661877E-05
(PID.TID 0000.0001) // =======================================================
(PID.TID 0000.0001) // End MONITOR dynamic field statistics
(PID.TID 0000.0001) // =======================================================
(PID.TID 0000.0001) // =======================================================
(PID.TID 0000.0001) // Begin MONITOR SEAICE statistics
(PID.TID 0000.0001) // =======================================================
(PID.TID 0000.0001) %MON seaice_tsnumber              =                174952
(PID.TID 0000.0001) %MON seaice_time_sec              =   7.8728400000000E+07
(PID.TID 0000.0001) %MON seaice_uice_max              =   1.2920918125223E+00
(PID.TID 0000.0001) %MON seaice_uice_min              =  -1.1546432599647E+00
(PID.TID 0000.0001) %MON seaice_uice_mean             =   8.3808567528807E-03
(PID.TID 0000.0001) %MON seaice_uice_sd               =   1.5069411533492E-01
(PID.TID 0000.0001) %MON seaice_uice_del2             =   4.0469431750723E-04
(PID.TID 0000.0001) %MON seaice_vice_max              =   1.2603219312068E+00
(PID.TID 0000.0001) %MON seaice_vice_min              =  -1.5509383597444E+00
(PID.TID 0000.0001) %MON seaice_vice_mean             =  -2.1671640507562E-02
(PID.TID 0000.0001) %MON seaice_vice_sd               =   1.6796080173003E-01
(PID.TID 0000.0001) %MON seaice_vice_del2             =   3.9508952833824E-04
(PID.TID 0000.0001) %MON seaice_area_max              =   1.0009979878274E+00
(PID.TID 0000.0001) %MON seaice_area_min              =   0.0000000000000E+00
(PID.TID 0000.0001) %MON seaice_area_mean             =   5.7840610437254E-02
(PID.TID 0000.0001) %MON seaice_area_sd               =   2.2077836184075E-01
(PID.TID 0000.0001) %MON seaice_area_del2             =   2.8285702511071E-04
(PID.TID 0000.0001) %MON seaice_heff_max              =   9.9471273114253E+00
(PID.TID 0000.0001) %MON seaice_heff_min              =   0.0000000000000E+00
(PID.TID 0000.0001) %MON seaice_heff_mean             =   1.4911765238549E-01
(PID.TID 0000.0001) %MON seaice_heff_sd               =   7.1861813936983E-01
(PID.TID 0000.0001) %MON seaice_heff_del2             =   1.2905548453966E-03
(PID.TID 0000.0001) %MON seaice_hsnow_max             =   3.2855564950835E+00
(PID.TID 0000.0001) %MON seaice_hsnow_min             =   0.0000000000000E+00
(PID.TID 0000.0001) %MON seaice_hsnow_mean            =   1.2549552987421E-02
(PID.TID 0000.0001) %MON seaice_hsnow_sd              =   6.6846857062281E-02
(PID.TID 0000.0001) %MON seaice_hsnow_del2            =   3.3785645016728E-04
(PID.TID 0000.0001) // =======================================================
(PID.TID 0000.0001) // End MONITOR SEAICE statistics
(PID.TID 0000.0001) // =======================================================
(PID.TID 0000.0001) // =======================================================
(PID.TID 0000.0001) // Begin MONITOR dynamic field statistics
(PID.TID 0000.0001) // =======================================================
(PID.TID 0000.0001) %MON time_tsnumber                =                174953
(PID.TID 0000.0001) %MON time_secondsf                =   7.8728850000000E+07
(PID.TID 0000.0001) %MON dynstat_eta_max              =   2.9412332972698E+00
(PID.TID 0000.0001) %MON dynstat_eta_min              =  -1.0621752737327E+01
(PID.TID 0000.0001) %MON dynstat_eta_mean             =   5.6081995972058E-02
(PID.TID 0000.0001) %MON dynstat_eta_sd               =   1.1010163290199E+00
(PID.TID 0000.0001) %MON dynstat_eta_del2             =   2.0125268087560E-03
(PID.TID 0000.0001) %MON dynstat_uvel_max             =   1.6384033019386E+00
(PID.TID 0000.0001) %MON dynstat_uvel_min             =  -2.3212856775524E+00
(PID.TID 0000.0001) %MON dynstat_uvel_mean            =   6.9351105516873E-03
(PID.TID 0000.0001) %MON dynstat_uvel_sd              =   5.9623277144445E-02
(PID.TID 0000.0001) %MON dynstat_uvel_del2            =   5.1042023681465E-05
(PID.TID 0000.0001) %MON dynstat_vvel_max             =   2.0901280974674E+00
(PID.TID 0000.0001) %MON dynstat_vvel_min             =  -1.6348674930710E+00
(PID.TID 0000.0001) %MON dynstat_vvel_mean            =   1.3696539442974E-03
(PID.TID 0000.0001) %MON dynstat_vvel_sd              =   6.3107521602459E-02
(PID.TID 0000.0001) %MON dynstat_vvel_del2            =   4.9830479966136E-05
(PID.TID 0000.0001) %MON dynstat_wvel_max             =   1.4315177536372E-02
(PID.TID 0000.0001) %MON dynstat_wvel_min             =  -1.2218153242518E-02
(PID.TID 0000.0001) %MON dynstat_wvel_mean            =  -1.0654364824045E-06
(PID.TID 0000.0001) %MON dynstat_wvel_sd              =   2.2355065940920E-04
(PID.TID 0000.0001) %MON dynstat_wvel_del2            =   4.4099561649768E-07
(PID.TID 0000.0001) %MON dynstat_theta_max            =   3.2350055298096E+01
(PID.TID 0000.0001) %MON dynstat_theta_min            =  -2.0258492316061E+00
(PID.TID 0000.0001) %MON dynstat_theta_mean           =   3.5918704323019E+00
(PID.TID 0000.0001) %MON dynstat_theta_sd             =   4.4416484280822E+00
(PID.TID 0000.0001) %MON dynstat_theta_del2           =   1.3256642551503E-04
(PID.TID 0000.0001) %MON dynstat_salt_max             =   4.0655989272599E+01
(PID.TID 0000.0001) %MON dynstat_salt_min             =   1.5899309100915E+01
(PID.TID 0000.0001) %MON dynstat_salt_mean            =   3.4724782767366E+01
(PID.TID 0000.0001) %MON dynstat_salt_sd              =   3.7981922770955E-01
(PID.TID 0000.0001) %MON dynstat_salt_del2            =   6.1571123032759E-05
(PID.TID 0000.0001) %MON dynstat_sst_max              =   3.2350055298096E+01
(PID.TID 0000.0001) %MON dynstat_sst_min              =  -2.0258492316061E+00
(PID.TID 0000.0001) %MON dynstat_sst_mean             =   1.8180333518987E+01
(PID.TID 0000.0001) %MON dynstat_sst_sd               =   1.0221371865518E+01
(PID.TID 0000.0001) %MON dynstat_sst_del2             =   1.0947234818789E-03
(PID.TID 0000.0001) %MON dynstat_sss_max              =   3.9468399184219E+01
(PID.TID 0000.0001) %MON dynstat_sss_min              =   1.5899309100915E+01
(PID.TID 0000.0001) %MON dynstat_sss_mean             =   3.4640177858300E+01
(PID.TID 0000.0001) %MON dynstat_sss_sd               =   1.3059304053952E+00
(PID.TID 0000.0001) %MON dynstat_sss_del2             =   1.4835288125817E-03
(PID.TID 0000.0001) %MON forcing_qnet_max             =   2.9181796875000E+03
(PID.TID 0000.0001) %MON forcing_qnet_min             =  -4.6816147460938E+03
(PID.TID 0000.0001) %MON forcing_qnet_mean            =  -3.3981199846014E+01
(PID.TID 0000.0001) %MON forcing_qnet_sd              =   2.2856456463914E+02
(PID.TID 0000.0001) %MON forcing_qnet_del2            =   4.9313229463289E-01
(PID.TID 0000.0001) %MON forcing_qsw_max              =   0.0000000000000E+00
(PID.TID 0000.0001) %MON forcing_qsw_min              =  -1.1134366178504E+02
(PID.TID 0000.0001) %MON forcing_qsw_mean             =  -2.4217236456122E+01
(PID.TID 0000.0001) %MON forcing_qsw_sd               =   3.3296904948868E+01
(PID.TID 0000.0001) %MON forcing_qsw_del2             =   2.0861430748029E-02
(PID.TID 0000.0001) %MON forcing_empmr_max            =   2.4819878861308E-02
(PID.TID 0000.0001) %MON forcing_empmr_min            =  -1.0911742597818E-01
(PID.TID 0000.0001) %MON forcing_empmr_mean           =  -1.5949970318502E-06
(PID.TID 0000.0001) %MON forcing_empmr_sd             =   4.1149220438073E-04
(PID.TID 0000.0001) %MON forcing_empmr_del2           =   4.6446993283120E-06
(PID.TID 0000.0001) %MON forcing_fu_max               =   9.5881007776780E-01
(PID.TID 0000.0001) %MON forcing_fu_min               =  -1.1770835493956E+00
(PID.TID 0000.0001) %MON forcing_fu_mean              =   9.9877511325665E-03
(PID.TID 0000.0001) %MON forcing_fu_sd                =   1.2589074118477E-01
(PID.TID 0000.0001) %MON forcing_fu_del2              =   1.6610719261474E-04
(PID.TID 0000.0001) %MON forcing_fv_max               =   1.0720160007477E+00
(PID.TID 0000.0001) %MON forcing_fv_min               =  -1.2030452489853E+00
(PID.TID 0000.0001) %MON forcing_fv_mean              =   1.3349573390620E-03
(PID.TID 0000.0001) %MON forcing_fv_sd                =   1.2388081567912E-01
(PID.TID 0000.0001) %MON forcing_fv_del2              =   1.6729972603109E-04
(PID.TID 0000.0001) %MON trAdv_CFL_u_max              =   2.0040354269721E-02
(PID.TID 0000.0001) %MON trAdv_CFL_v_max              =   1.9620026165532E-02
(PID.TID 0000.0001) %MON trAdv_CFL_w_max              =   9.4252822054659E-02
(PID.TID 0000.0001) %MON advcfl_uvel_max              =   2.0308421924403E-02
(PID.TID 0000.0001) %MON advcfl_vvel_max              =   1.9556802962385E-02
(PID.TID 0000.0001) %MON advcfl_wvel_max              =   8.8767017581611E-02
(PID.TID 0000.0001) %MON advcfl_W_hf_max              =   9.4252822054659E-02
(PID.TID 0000.0001) %MON pe_b_mean                    =   1.9858155869459E-03
(PID.TID 0000.0001) %MON ke_max                       =   2.1965222083297E+00
(PID.TID 0000.0001) %MON ke_mean                      =   3.6586172434942E-03
(PID.TID 0000.0001) %MON ke_vol                       =   1.3350064351420E+18
(PID.TID 0000.0001) %MON vort_r_min                   =  -7.1848941995846E-05
(PID.TID 0000.0001) %MON vort_r_max                   =   7.1932393958610E-05
(PID.TID 0000.0001) %MON vort_a_mean                  =  -1.9725076415105E-05
(PID.TID 0000.0001) %MON vort_a_sd                    =   7.4545358753585E-05
(PID.TID 0000.0001) %MON vort_p_mean                  =  -2.1669081329414E-05
(PID.TID 0000.0001) %MON vort_p_sd                    =   9.3621818014164E-05
(PID.TID 0000.0001) %MON surfExpan_theta_mean         =  -4.3729781441537E-05
(PID.TID 0000.0001) %MON surfExpan_salt_mean          =  -7.8904621354863E-05
(PID.TID 0000.0001) // =======================================================
(PID.TID 0000.0001) // End MONITOR dynamic field statistics
(PID.TID 0000.0001) // =======================================================
(PID.TID 0000.0001) // =======================================================
(PID.TID 0000.0001) // Begin MONITOR SEAICE statistics
(PID.TID 0000.0001) // =======================================================
(PID.TID 0000.0001) %MON seaice_tsnumber              =                174953
(PID.TID 0000.0001) %MON seaice_time_sec              =   7.8728850000000E+07
(PID.TID 0000.0001) %MON seaice_uice_max              =   1.2912762152698E+00
(PID.TID 0000.0001) %MON seaice_uice_min              =  -1.1545529526838E+00
(PID.TID 0000.0001) %MON seaice_uice_mean             =   8.3669804812931E-03
(PID.TID 0000.0001) %MON seaice_uice_sd               =   1.5076417676250E-01
(PID.TID 0000.0001) %MON seaice_uice_del2             =   4.0540924194873E-04
(PID.TID 0000.0001) %MON seaice_vice_max              =   1.2726568278571E+00
(PID.TID 0000.0001) %MON seaice_vice_min              =  -1.5519626347501E+00
(PID.TID 0000.0001) %MON seaice_vice_mean             =  -2.1670710119763E-02
(PID.TID 0000.0001) %MON seaice_vice_sd               =   1.6816581184040E-01
(PID.TID 0000.0001) %MON seaice_vice_del2             =   3.9546234777519E-04
(PID.TID 0000.0001) %MON seaice_area_max              =   1.0009976545293E+00
(PID.TID 0000.0001) %MON seaice_area_min              =   0.0000000000000E+00
(PID.TID 0000.0001) %MON seaice_area_mean             =   5.7845057432147E-02
(PID.TID 0000.0001) %MON seaice_area_sd               =   2.2077977610299E-01
(PID.TID 0000.0001) %MON seaice_area_del2             =   2.8290752073751E-04
(PID.TID 0000.0001) %MON seaice_heff_max              =   9.9471254181003E+00
(PID.TID 0000.0001) %MON seaice_heff_min              =   0.0000000000000E+00
(PID.TID 0000.0001) %MON seaice_heff_mean             =   1.4911459955790E-01
(PID.TID 0000.0001) %MON seaice_heff_sd               =   7.1860531289579E-01
(PID.TID 0000.0001) %MON seaice_heff_del2             =   1.2900258292683E-03
(PID.TID 0000.0001) %MON seaice_hsnow_max             =   3.2855557497193E+00
(PID.TID 0000.0001) %MON seaice_hsnow_min             =   0.0000000000000E+00
(PID.TID 0000.0001) %MON seaice_hsnow_mean            =   1.2549035546130E-02
(PID.TID 0000.0001) %MON seaice_hsnow_sd              =   6.6836434540775E-02
(PID.TID 0000.0001) %MON seaice_hsnow_del2            =   3.3760288289775E-04
(PID.TID 0000.0001) // =======================================================
(PID.TID 0000.0001) // End MONITOR SEAICE statistics
(PID.TID 0000.0001) // =======================================================
(PID.TID 0000.0001) // =======================================================
(PID.TID 0000.0001) // Begin MONITOR dynamic field statistics
(PID.TID 0000.0001) // =======================================================
(PID.TID 0000.0001) %MON time_tsnumber                =                174954
(PID.TID 0000.0001) %MON time_secondsf                =   7.8729300000000E+07
(PID.TID 0000.0001) %MON dynstat_eta_max              =   2.9331520788072E+00
(PID.TID 0000.0001) %MON dynstat_eta_min              =  -1.0615399920932E+01
(PID.TID 0000.0001) %MON dynstat_eta_mean             =   5.5083088133083E-02
(PID.TID 0000.0001) %MON dynstat_eta_sd               =   1.1030300239123E+00
(PID.TID 0000.0001) %MON dynstat_eta_del2             =   2.0125282046183E-03
(PID.TID 0000.0001) %MON dynstat_uvel_max             =   1.6459423313568E+00
(PID.TID 0000.0001) %MON dynstat_uvel_min             =  -2.3189234787371E+00
(PID.TID 0000.0001) %MON dynstat_uvel_mean            =   6.9330872516514E-03
(PID.TID 0000.0001) %MON dynstat_uvel_sd              =   5.9889354195906E-02
(PID.TID 0000.0001) %MON dynstat_uvel_del2            =   5.1179897312637E-05
(PID.TID 0000.0001) %MON dynstat_vvel_max             =   2.0947508510791E+00
(PID.TID 0000.0001) %MON dynstat_vvel_min             =  -1.6301012008546E+00
(PID.TID 0000.0001) %MON dynstat_vvel_mean            =   1.3706490654963E-03
(PID.TID 0000.0001) %MON dynstat_vvel_sd              =   6.3419125426180E-02
(PID.TID 0000.0001) %MON dynstat_vvel_del2            =   4.9968693109519E-05
(PID.TID 0000.0001) %MON dynstat_wvel_max             =   1.4359716705889E-02
(PID.TID 0000.0001) %MON dynstat_wvel_min             =  -1.2277101950951E-02
(PID.TID 0000.0001) %MON dynstat_wvel_mean            =  -1.0664033466719E-06
(PID.TID 0000.0001) %MON dynstat_wvel_sd              =   2.2419312170735E-04
(PID.TID 0000.0001) %MON dynstat_wvel_del2            =   4.4184413075491E-07
(PID.TID 0000.0001) %MON dynstat_theta_max            =   3.2349311948473E+01
(PID.TID 0000.0001) %MON dynstat_theta_min            =  -2.0251257309582E+00
(PID.TID 0000.0001) %MON dynstat_theta_mean           =   3.5918765578292E+00
(PID.TID 0000.0001) %MON dynstat_theta_sd             =   4.4416652368685E+00
(PID.TID 0000.0001) %MON dynstat_theta_del2           =   1.3263590291957E-04
(PID.TID 0000.0001) %MON dynstat_salt_max             =   4.0655989272385E+01
(PID.TID 0000.0001) %MON dynstat_salt_min             =   1.5898768779667E+01
(PID.TID 0000.0001) %MON dynstat_salt_mean            =   3.4724783006951E+01
(PID.TID 0000.0001) %MON dynstat_salt_sd              =   3.7982045348198E-01
(PID.TID 0000.0001) %MON dynstat_salt_del2            =   6.1558136648996E-05
(PID.TID 0000.0001) %MON dynstat_sst_max              =   3.2349311948473E+01
(PID.TID 0000.0001) %MON dynstat_sst_min              =  -2.0251257309582E+00
(PID.TID 0000.0001) %MON dynstat_sst_mean             =   1.8180596942707E+01
(PID.TID 0000.0001) %MON dynstat_sst_sd               =   1.0221750142726E+01
(PID.TID 0000.0001) %MON dynstat_sst_del2             =   1.0949147904832E-03
(PID.TID 0000.0001) %MON dynstat_sss_max              =   3.9468292836608E+01
(PID.TID 0000.0001) %MON dynstat_sss_min              =   1.5898768779667E+01
(PID.TID 0000.0001) %MON dynstat_sss_mean             =   3.4640166108184E+01
(PID.TID 0000.0001) %MON dynstat_sss_sd               =   1.3059656559227E+00
(PID.TID 0000.0001) %MON dynstat_sss_del2             =   1.4839167455941E-03
(PID.TID 0000.0001) %MON forcing_qnet_max             =   2.9486550292969E+03
(PID.TID 0000.0001) %MON forcing_qnet_min             =  -2.3570540000547E+03
(PID.TID 0000.0001) %MON forcing_qnet_mean            =  -3.4134795951657E+01
(PID.TID 0000.0001) %MON forcing_qnet_sd              =   2.2826107874790E+02
(PID.TID 0000.0001) %MON forcing_qnet_del2            =   4.8093453435553E-01
(PID.TID 0000.0001) %MON forcing_qsw_max              =   0.0000000000000E+00
(PID.TID 0000.0001) %MON forcing_qsw_min              =  -1.1116122633480E+02
(PID.TID 0000.0001) %MON forcing_qsw_mean             =  -2.4247677246304E+01
(PID.TID 0000.0001) %MON forcing_qsw_sd               =   3.3299021201913E+01
(PID.TID 0000.0001) %MON forcing_qsw_del2             =   2.0921343166057E-02
(PID.TID 0000.0001) %MON forcing_empmr_max            =   1.7423503100872E-02
(PID.TID 0000.0001) %MON forcing_empmr_min            =  -1.1120469123125E-01
(PID.TID 0000.0001) %MON forcing_empmr_mean           =  -1.5871304357248E-06
(PID.TID 0000.0001) %MON forcing_empmr_sd             =   4.0818082057634E-04
(PID.TID 0000.0001) %MON forcing_empmr_del2           =   4.5073664861685E-06
(PID.TID 0000.0001) %MON forcing_fu_max               =   9.6521546847448E-01
(PID.TID 0000.0001) %MON forcing_fu_min               =  -1.1737957334035E+00
(PID.TID 0000.0001) %MON forcing_fu_mean              =   9.9423384650771E-03
(PID.TID 0000.0001) %MON forcing_fu_sd                =   1.2589597306334E-01
(PID.TID 0000.0001) %MON forcing_fu_del2              =   1.6622826321032E-04
(PID.TID 0000.0001) %MON forcing_fv_max               =   1.0647014975548E+00
(PID.TID 0000.0001) %MON forcing_fv_min               =  -1.1960318088532E+00
(PID.TID 0000.0001) %MON forcing_fv_mean              =   1.3688563374805E-03
(PID.TID 0000.0001) %MON forcing_fv_sd                =   1.2391382432440E-01
(PID.TID 0000.0001) %MON forcing_fv_del2              =   1.6743813314260E-04
(PID.TID 0000.0001) %MON trAdv_CFL_u_max              =   1.9995593868128E-02
(PID.TID 0000.0001) %MON trAdv_CFL_v_max              =   1.9681825604459E-02
(PID.TID 0000.0001) %MON trAdv_CFL_w_max              =   9.3762132979512E-02
(PID.TID 0000.0001) %MON advcfl_uvel_max              =   2.0263062790087E-02
(PID.TID 0000.0001) %MON advcfl_vvel_max              =   1.9618403259963E-02
(PID.TID 0000.0001) %MON advcfl_wvel_max              =   8.8301300928188E-02
(PID.TID 0000.0001) %MON advcfl_W_hf_max              =   9.3762132979512E-02
(PID.TID 0000.0001) %MON pe_b_mean                    =   1.9633529988080E-03
(PID.TID 0000.0001) %MON ke_max                       =   2.1971596501530E+00
(PID.TID 0000.0001) %MON ke_mean                      =   3.6929497836852E-03
(PID.TID 0000.0001) %MON ke_vol                       =   1.3350064351420E+18
(PID.TID 0000.0001) %MON vort_r_min                   =  -7.1840359499507E-05
(PID.TID 0000.0001) %MON vort_r_max                   =   7.1760983107266E-05
(PID.TID 0000.0001) %MON vort_a_mean                  =  -1.9725076333205E-05
(PID.TID 0000.0001) %MON vort_a_sd                    =   7.4545424773150E-05
(PID.TID 0000.0001) %MON vort_p_mean                  =  -2.1669081239442E-05
(PID.TID 0000.0001) %MON vort_p_sd                    =   9.3621837310239E-05
(PID.TID 0000.0001) %MON surfExpan_theta_mean         =  -4.4005018318376E-05
(PID.TID 0000.0001) %MON surfExpan_salt_mean          =  -7.8900362669510E-05
(PID.TID 0000.0001) // =======================================================
(PID.TID 0000.0001) // End MONITOR dynamic field statistics
(PID.TID 0000.0001) // =======================================================
(PID.TID 0000.0001) // =======================================================
(PID.TID 0000.0001) // Begin MONITOR SEAICE statistics
(PID.TID 0000.0001) // =======================================================
(PID.TID 0000.0001) %MON seaice_tsnumber              =                174954
(PID.TID 0000.0001) %MON seaice_time_sec              =   7.8729300000000E+07
(PID.TID 0000.0001) %MON seaice_uice_max              =   1.2900488127171E+00
(PID.TID 0000.0001) %MON seaice_uice_min              =  -1.1549173569378E+00
(PID.TID 0000.0001) %MON seaice_uice_mean             =   8.3542742656202E-03
(PID.TID 0000.0001) %MON seaice_uice_sd               =   1.5083549701122E-01
(PID.TID 0000.0001) %MON seaice_uice_del2             =   4.0602811315057E-04
(PID.TID 0000.0001) %MON seaice_vice_max              =   1.2839753467878E+00
(PID.TID 0000.0001) %MON seaice_vice_min              =  -1.5529797345069E+00
(PID.TID 0000.0001) %MON seaice_vice_mean             =  -2.1664736999378E-02
(PID.TID 0000.0001) %MON seaice_vice_sd               =   1.6837877152029E-01
(PID.TID 0000.0001) %MON seaice_vice_del2             =   3.9598701639563E-04
(PID.TID 0000.0001) %MON seaice_area_max              =   1.0009968762845E+00
(PID.TID 0000.0001) %MON seaice_area_min              =   0.0000000000000E+00
(PID.TID 0000.0001) %MON seaice_area_mean             =   5.7849506399215E-02
(PID.TID 0000.0001) %MON seaice_area_sd               =   2.2078117581508E-01
(PID.TID 0000.0001) %MON seaice_area_del2             =   2.8296063377393E-04
(PID.TID 0000.0001) %MON seaice_heff_max              =   9.9471225706996E+00
(PID.TID 0000.0001) %MON seaice_heff_min              =   0.0000000000000E+00
(PID.TID 0000.0001) %MON seaice_heff_mean             =   1.4911154554221E-01
(PID.TID 0000.0001) %MON seaice_heff_sd               =   7.1859251412912E-01
(PID.TID 0000.0001) %MON seaice_heff_del2             =   1.2895016415299E-03
(PID.TID 0000.0001) %MON seaice_hsnow_max             =   3.2855547577605E+00
(PID.TID 0000.0001) %MON seaice_hsnow_min             =   0.0000000000000E+00
(PID.TID 0000.0001) %MON seaice_hsnow_mean            =   1.2548531652083E-02
(PID.TID 0000.0001) %MON seaice_hsnow_sd              =   6.6826110123080E-02
(PID.TID 0000.0001) %MON seaice_hsnow_del2            =   3.3735023910783E-04
(PID.TID 0000.0001) // =======================================================
(PID.TID 0000.0001) // End MONITOR SEAICE statistics
(PID.TID 0000.0001) // =======================================================
(PID.TID 0000.0001) // =======================================================
(PID.TID 0000.0001) // Begin MONITOR dynamic field statistics
(PID.TID 0000.0001) // =======================================================
(PID.TID 0000.0001) %MON time_tsnumber                =                174955
(PID.TID 0000.0001) %MON time_secondsf                =   7.8729750000000E+07
(PID.TID 0000.0001) %MON dynstat_eta_max              =   2.9235325597172E+00
(PID.TID 0000.0001) %MON dynstat_eta_min              =  -1.0607928777248E+01
(PID.TID 0000.0001) %MON dynstat_eta_mean             =   5.4086013765920E-02
(PID.TID 0000.0001) %MON dynstat_eta_sd               =   1.1050614683552E+00
(PID.TID 0000.0001) %MON dynstat_eta_del2             =   2.0125338507476E-03
(PID.TID 0000.0001) %MON dynstat_uvel_max             =   1.6533440769011E+00
(PID.TID 0000.0001) %MON dynstat_uvel_min             =  -2.3164320822991E+00
(PID.TID 0000.0001) %MON dynstat_uvel_mean            =   6.9292537896493E-03
(PID.TID 0000.0001) %MON dynstat_uvel_sd              =   6.0156062894691E-02
(PID.TID 0000.0001) %MON dynstat_uvel_del2            =   5.1317822677026E-05
(PID.TID 0000.0001) %MON dynstat_vvel_max             =   2.0993123178368E+00
(PID.TID 0000.0001) %MON dynstat_vvel_min             =  -1.6252589955434E+00
(PID.TID 0000.0001) %MON dynstat_vvel_mean            =   1.3724296925338E-03
(PID.TID 0000.0001) %MON dynstat_vvel_sd              =   6.3730312213786E-02
(PID.TID 0000.0001) %MON dynstat_vvel_del2            =   5.0107074749550E-05
(PID.TID 0000.0001) %MON dynstat_wvel_max             =   1.4402972750093E-02
(PID.TID 0000.0001) %MON dynstat_wvel_min             =  -1.2335489413866E-02
(PID.TID 0000.0001) %MON dynstat_wvel_mean            =  -1.0664548984885E-06
(PID.TID 0000.0001) %MON dynstat_wvel_sd              =   2.2483333167230E-04
(PID.TID 0000.0001) %MON dynstat_wvel_del2            =   4.4268968782652E-07
(PID.TID 0000.0001) %MON dynstat_theta_max            =   3.2348564224701E+01
(PID.TID 0000.0001) %MON dynstat_theta_min            =  -2.0243717524895E+00
(PID.TID 0000.0001) %MON dynstat_theta_mean           =   3.5918827062186E+00
(PID.TID 0000.0001) %MON dynstat_theta_sd             =   4.4416821323476E+00
(PID.TID 0000.0001) %MON dynstat_theta_del2           =   1.3270550335267E-04
(PID.TID 0000.0001) %MON dynstat_salt_max             =   4.0655989272172E+01
(PID.TID 0000.0001) %MON dynstat_salt_min             =   1.5898206513651E+01
(PID.TID 0000.0001) %MON dynstat_salt_mean            =   3.4724783255694E+01
(PID.TID 0000.0001) %MON dynstat_salt_sd              =   3.7982168942288E-01
(PID.TID 0000.0001) %MON dynstat_salt_del2            =   6.1544264046882E-05
(PID.TID 0000.0001) %MON dynstat_sst_max              =   3.2348564224701E+01
(PID.TID 0000.0001) %MON dynstat_sst_min              =  -2.0243717524895E+00
(PID.TID 0000.0001) %MON dynstat_sst_mean             =   1.8180859148716E+01
(PID.TID 0000.0001) %MON dynstat_sst_sd               =   1.0222129690773E+01
(PID.TID 0000.0001) %MON dynstat_sst_del2             =   1.0950770508915E-03
(PID.TID 0000.0001) %MON dynstat_sss_max              =   3.9468187974638E+01
(PID.TID 0000.0001) %MON dynstat_sss_min              =   1.5898206513651E+01
(PID.TID 0000.0001) %MON dynstat_sss_mean             =   3.4640155068951E+01
(PID.TID 0000.0001) %MON dynstat_sss_sd               =   1.3059987332456E+00
(PID.TID 0000.0001) %MON dynstat_sss_del2             =   1.4842508825014E-03
(PID.TID 0000.0001) %MON forcing_qnet_max             =   4.0422136230469E+03
(PID.TID 0000.0001) %MON forcing_qnet_min             =  -2.0470477262280E+03
(PID.TID 0000.0001) %MON forcing_qnet_mean            =  -3.4223983399255E+01
(PID.TID 0000.0001) %MON forcing_qnet_sd              =   2.2859311782167E+02
(PID.TID 0000.0001) %MON forcing_qnet_del2            =   4.9328627269207E-01
(PID.TID 0000.0001) %MON forcing_qsw_max              =   0.0000000000000E+00
(PID.TID 0000.0001) %MON forcing_qsw_min              =  -1.1126594663415E+02
(PID.TID 0000.0001) %MON forcing_qsw_mean             =  -2.4257506008494E+01
(PID.TID 0000.0001) %MON forcing_qsw_sd               =   3.3288369521907E+01
(PID.TID 0000.0001) %MON forcing_qsw_del2             =   2.0977533901439E-02
(PID.TID 0000.0001) %MON forcing_empmr_max            =   1.5174201689661E-02
(PID.TID 0000.0001) %MON forcing_empmr_min            =  -1.0873654484749E-01
(PID.TID 0000.0001) %MON forcing_empmr_mean           =  -1.8839219059917E-06
(PID.TID 0000.0001) %MON forcing_empmr_sd             =   4.0257136411637E-04
(PID.TID 0000.0001) %MON forcing_empmr_del2           =   4.4030774526796E-06
(PID.TID 0000.0001) %MON forcing_fu_max               =   9.7529679576160E-01
(PID.TID 0000.0001) %MON forcing_fu_min               =  -1.1723089560602E+00
(PID.TID 0000.0001) %MON forcing_fu_mean              =   9.9028130975049E-03
(PID.TID 0000.0001) %MON forcing_fu_sd                =   1.2595631482273E-01
(PID.TID 0000.0001) %MON forcing_fu_del2              =   1.6647636687028E-04
(PID.TID 0000.0001) %MON forcing_fv_max               =   1.0697098970413E+00
(PID.TID 0000.0001) %MON forcing_fv_min               =  -1.1919016838074E+00
(PID.TID 0000.0001) %MON forcing_fv_mean              =   1.4057019540209E-03
(PID.TID 0000.0001) %MON forcing_fv_sd                =   1.2396258616421E-01
(PID.TID 0000.0001) %MON forcing_fv_del2              =   1.6747581669200E-04
(PID.TID 0000.0001) %MON trAdv_CFL_u_max              =   1.9951676597863E-02
(PID.TID 0000.0001) %MON trAdv_CFL_v_max              =   1.9746197438499E-02
(PID.TID 0000.0001) %MON trAdv_CFL_w_max              =   9.3251736616014E-02
(PID.TID 0000.0001) %MON advcfl_uvel_max              =   2.0218558065156E-02
(PID.TID 0000.0001) %MON advcfl_vvel_max              =   1.9682567663416E-02
(PID.TID 0000.0001) %MON advcfl_wvel_max              =   8.7816246513088E-02
(PID.TID 0000.0001) %MON advcfl_W_hf_max              =   9.3251736616014E-02
(PID.TID 0000.0001) %MON pe_b_mean                    =   1.9410203523663E-03
(PID.TID 0000.0001) %MON ke_max                       =   2.1976079212396E+00
(PID.TID 0000.0001) %MON ke_mean                      =   3.7274441920416E-03
(PID.TID 0000.0001) %MON ke_vol                       =   1.3350064351420E+18
(PID.TID 0000.0001) %MON vort_r_min                   =  -7.1829464806616E-05
(PID.TID 0000.0001) %MON vort_r_max                   =   7.1593665321153E-05
(PID.TID 0000.0001) %MON vort_a_mean                  =  -1.9725076248121E-05
(PID.TID 0000.0001) %MON vort_a_sd                    =   7.4545490759003E-05
(PID.TID 0000.0001) %MON vort_p_mean                  =  -2.1669081145972E-05
(PID.TID 0000.0001) %MON vort_p_sd                    =   9.3621855244843E-05
(PID.TID 0000.0001) %MON surfExpan_theta_mean         =  -4.4169737481025E-05
(PID.TID 0000.0001) %MON surfExpan_salt_mean          =  -7.8850956708741E-05
(PID.TID 0000.0001) // =======================================================
(PID.TID 0000.0001) // End MONITOR dynamic field statistics
(PID.TID 0000.0001) // =======================================================
(PID.TID 0000.0001) // =======================================================
(PID.TID 0000.0001) // Begin MONITOR SEAICE statistics
(PID.TID 0000.0001) // =======================================================
(PID.TID 0000.0001) %MON seaice_tsnumber              =                174955
(PID.TID 0000.0001) %MON seaice_time_sec              =   7.8729750000000E+07
(PID.TID 0000.0001) %MON seaice_uice_max              =   1.2884327013319E+00
(PID.TID 0000.0001) %MON seaice_uice_min              =  -1.1557140136179E+00
(PID.TID 0000.0001) %MON seaice_uice_mean             =   8.3405558489165E-03
(PID.TID 0000.0001) %MON seaice_uice_sd               =   1.5090684279917E-01
(PID.TID 0000.0001) %MON seaice_uice_del2             =   4.0655792399787E-04
(PID.TID 0000.0001) %MON seaice_vice_max              =   1.2942429113186E+00
(PID.TID 0000.0001) %MON seaice_vice_min              =  -1.5539893603954E+00
(PID.TID 0000.0001) %MON seaice_vice_mean             =  -2.1652988524907E-02
(PID.TID 0000.0001) %MON seaice_vice_sd               =   1.6859350088362E-01
(PID.TID 0000.0001) %MON seaice_vice_del2             =   3.9647041034707E-04
(PID.TID 0000.0001) %MON seaice_area_max              =   1.0009958523290E+00
(PID.TID 0000.0001) %MON seaice_area_min              =   0.0000000000000E+00
(PID.TID 0000.0001) %MON seaice_area_mean             =   5.7853958140741E-02
(PID.TID 0000.0001) %MON seaice_area_sd               =   2.2078255922547E-01
(PID.TID 0000.0001) %MON seaice_area_del2             =   2.8301510657647E-04
(PID.TID 0000.0001) %MON seaice_heff_max              =   9.9471197231321E+00
(PID.TID 0000.0001) %MON seaice_heff_min              =   0.0000000000000E+00
(PID.TID 0000.0001) %MON seaice_heff_mean             =   1.4910849266982E-01
(PID.TID 0000.0001) %MON seaice_heff_sd               =   7.1857974993843E-01
(PID.TID 0000.0001) %MON seaice_heff_del2             =   1.2889821941960E-03
(PID.TID 0000.0001) %MON seaice_hsnow_max             =   3.2855537610064E+00
(PID.TID 0000.0001) %MON seaice_hsnow_min             =   0.0000000000000E+00
(PID.TID 0000.0001) %MON seaice_hsnow_mean            =   1.2548022956999E-02
(PID.TID 0000.0001) %MON seaice_hsnow_sd              =   6.6815760187250E-02
(PID.TID 0000.0001) %MON seaice_hsnow_del2            =   3.3709858002105E-04
(PID.TID 0000.0001) // =======================================================
(PID.TID 0000.0001) // End MONITOR SEAICE statistics
(PID.TID 0000.0001) // =======================================================
(PID.TID 0000.0001) // =======================================================
(PID.TID 0000.0001) // Begin MONITOR dynamic field statistics
(PID.TID 0000.0001) // =======================================================
(PID.TID 0000.0001) %MON time_tsnumber                =                174956
(PID.TID 0000.0001) %MON time_secondsf                =   7.8730200000000E+07
(PID.TID 0000.0001) %MON dynstat_eta_max              =   2.9123760813787E+00
(PID.TID 0000.0001) %MON dynstat_eta_min              =  -1.0599371882580E+01
(PID.TID 0000.0001) %MON dynstat_eta_mean             =   5.3091082572079E-02
(PID.TID 0000.0001) %MON dynstat_eta_sd               =   1.1071119914190E+00
(PID.TID 0000.0001) %MON dynstat_eta_del2             =   2.0125437910508E-03
(PID.TID 0000.0001) %MON dynstat_uvel_max             =   1.6606052542951E+00
(PID.TID 0000.0001) %MON dynstat_uvel_min             =  -2.3138117387841E+00
(PID.TID 0000.0001) %MON dynstat_uvel_mean            =   6.9236322317542E-03
(PID.TID 0000.0001) %MON dynstat_uvel_sd              =   6.0423432109019E-02
(PID.TID 0000.0001) %MON dynstat_uvel_del2            =   5.1455860656180E-05
(PID.TID 0000.0001) %MON dynstat_vvel_max             =   2.1038110524391E+00
(PID.TID 0000.0001) %MON dynstat_vvel_min             =  -1.6203486512112E+00
(PID.TID 0000.0001) %MON dynstat_vvel_mean            =   1.3749279797165E-03
(PID.TID 0000.0001) %MON dynstat_vvel_sd              =   6.4041069584225E-02
(PID.TID 0000.0001) %MON dynstat_vvel_del2            =   5.0245527243588E-05
(PID.TID 0000.0001) %MON dynstat_wvel_max             =   1.4444973384428E-02
(PID.TID 0000.0001) %MON dynstat_wvel_min             =  -1.2393306860761E-02
(PID.TID 0000.0001) %MON dynstat_wvel_mean            =  -1.0654751475408E-06
(PID.TID 0000.0001) %MON dynstat_wvel_sd              =   2.2547121375707E-04
(PID.TID 0000.0001) %MON dynstat_wvel_del2            =   4.4353244695109E-07
(PID.TID 0000.0001) %MON dynstat_theta_max            =   3.2347811745117E+01
(PID.TID 0000.0001) %MON dynstat_theta_min            =  -2.0235760128634E+00
(PID.TID 0000.0001) %MON dynstat_theta_mean           =   3.5918888677951E+00
(PID.TID 0000.0001) %MON dynstat_theta_sd             =   4.4416991127202E+00
(PID.TID 0000.0001) %MON dynstat_theta_del2           =   1.3277540210413E-04
(PID.TID 0000.0001) %MON dynstat_salt_max             =   4.0655989271958E+01
(PID.TID 0000.0001) %MON dynstat_salt_min             =   1.5897621057186E+01
(PID.TID 0000.0001) %MON dynstat_salt_mean            =   3.4724783513840E+01
(PID.TID 0000.0001) %MON dynstat_salt_sd              =   3.7982292881817E-01
(PID.TID 0000.0001) %MON dynstat_salt_del2            =   6.1530494942334E-05
(PID.TID 0000.0001) %MON dynstat_sst_max              =   3.2347811745117E+01
(PID.TID 0000.0001) %MON dynstat_sst_min              =  -2.0235760128634E+00
(PID.TID 0000.0001) %MON dynstat_sst_mean             =   1.8181120822857E+01
(PID.TID 0000.0001) %MON dynstat_sst_sd               =   1.0222513908822E+01
(PID.TID 0000.0001) %MON dynstat_sst_del2             =   1.0952283409143E-03
(PID.TID 0000.0001) %MON dynstat_sss_max              =   3.9468083528123E+01
(PID.TID 0000.0001) %MON dynstat_sss_min              =   1.5897621057186E+01
(PID.TID 0000.0001) %MON dynstat_sss_mean             =   3.4640144286699E+01
(PID.TID 0000.0001) %MON dynstat_sss_sd               =   1.3060301873356E+00
(PID.TID 0000.0001) %MON dynstat_sss_del2             =   1.4845751944852E-03
(PID.TID 0000.0001) %MON forcing_qnet_max             =   2.4321579589844E+03
(PID.TID 0000.0001) %MON forcing_qnet_min             =  -2.0335636525256E+03
(PID.TID 0000.0001) %MON forcing_qnet_mean            =  -3.4331877225722E+01
(PID.TID 0000.0001) %MON forcing_qnet_sd              =   2.2846240076494E+02
(PID.TID 0000.0001) %MON forcing_qnet_del2            =   4.5583482444059E-01
(PID.TID 0000.0001) %MON forcing_qsw_max              =   0.0000000000000E+00
(PID.TID 0000.0001) %MON forcing_qsw_min              =  -1.1134995892285E+02
(PID.TID 0000.0001) %MON forcing_qsw_mean             =  -2.4246569595766E+01
(PID.TID 0000.0001) %MON forcing_qsw_sd               =   3.3265046565580E+01
(PID.TID 0000.0001) %MON forcing_qsw_del2             =   2.1029795535459E-02
(PID.TID 0000.0001) %MON forcing_empmr_max            =   1.6762593761086E-02
(PID.TID 0000.0001) %MON forcing_empmr_min            =  -1.0929666459560E-01
(PID.TID 0000.0001) %MON forcing_empmr_mean           =  -1.6092765912506E-06
(PID.TID 0000.0001) %MON forcing_empmr_sd             =   3.9993083277538E-04
(PID.TID 0000.0001) %MON forcing_empmr_del2           =   4.3960945450411E-06
(PID.TID 0000.0001) %MON forcing_fu_max               =   9.8010432502913E-01
(PID.TID 0000.0001) %MON forcing_fu_min               =  -1.1773270368576E+00
(PID.TID 0000.0001) %MON forcing_fu_mean              =   9.8634061873692E-03
(PID.TID 0000.0001) %MON forcing_fu_sd                =   1.2600371407861E-01
(PID.TID 0000.0001) %MON forcing_fu_del2              =   1.6677497167860E-04
(PID.TID 0000.0001) %MON forcing_fv_max               =   1.0732129812241E+00
(PID.TID 0000.0001) %MON forcing_fv_min               =  -1.1848348975182E+00
(PID.TID 0000.0001) %MON forcing_fv_mean              =   1.4324467640737E-03
(PID.TID 0000.0001) %MON forcing_fv_sd                =   1.2398628614989E-01
(PID.TID 0000.0001) %MON forcing_fv_del2              =   1.6748811582149E-04
(PID.TID 0000.0001) %MON trAdv_CFL_u_max              =   1.9908632287162E-02
(PID.TID 0000.0001) %MON trAdv_CFL_v_max              =   1.9812710533888E-02
(PID.TID 0000.0001) %MON trAdv_CFL_w_max              =   9.2723125672349E-02
(PID.TID 0000.0001) %MON advcfl_uvel_max              =   2.0174937976838E-02
(PID.TID 0000.0001) %MON advcfl_vvel_max              =   1.9748866428258E-02
(PID.TID 0000.0001) %MON advcfl_wvel_max              =   8.7313262219944E-02
(PID.TID 0000.0001) %MON advcfl_W_hf_max              =   9.2723125672349E-02
(PID.TID 0000.0001) %MON pe_b_mean                    =   1.9188299585297E-03
(PID.TID 0000.0001) %MON ke_max                       =   2.1978607392779E+00
(PID.TID 0000.0001) %MON ke_mean                      =   3.7621015789227E-03
(PID.TID 0000.0001) %MON ke_vol                       =   1.3350064351420E+18
(PID.TID 0000.0001) %MON vort_r_min                   =  -7.1816285538279E-05
(PID.TID 0000.0001) %MON vort_r_max                   =   7.1430599394598E-05
(PID.TID 0000.0001) %MON vort_a_mean                  =  -1.9725076160574E-05
(PID.TID 0000.0001) %MON vort_a_sd                    =   7.4545556697284E-05
(PID.TID 0000.0001) %MON vort_p_mean                  =  -2.1669081049798E-05
(PID.TID 0000.0001) %MON vort_p_sd                    =   9.3621871684555E-05
(PID.TID 0000.0001) %MON surfExpan_theta_mean         =  -4.4227156683911E-05
(PID.TID 0000.0001) %MON surfExpan_salt_mean          =  -7.8749526385686E-05
(PID.TID 0000.0001) // =======================================================
(PID.TID 0000.0001) // End MONITOR dynamic field statistics
(PID.TID 0000.0001) // =======================================================
(PID.TID 0000.0001) // =======================================================
(PID.TID 0000.0001) // Begin MONITOR SEAICE statistics
(PID.TID 0000.0001) // =======================================================
(PID.TID 0000.0001) %MON seaice_tsnumber              =                174956
(PID.TID 0000.0001) %MON seaice_time_sec              =   7.8730200000000E+07
(PID.TID 0000.0001) %MON seaice_uice_max              =   1.2864737580425E+00
(PID.TID 0000.0001) %MON seaice_uice_min              =  -1.1569170486107E+00
(PID.TID 0000.0001) %MON seaice_uice_mean             =   8.3240421579789E-03
(PID.TID 0000.0001) %MON seaice_uice_sd               =   1.5098033508633E-01
(PID.TID 0000.0001) %MON seaice_uice_del2             =   4.0709818108448E-04
(PID.TID 0000.0001) %MON seaice_vice_max              =   1.3034410616650E+00
(PID.TID 0000.0001) %MON seaice_vice_min              =  -1.5549873553656E+00
(PID.TID 0000.0001) %MON seaice_vice_mean             =  -2.1636684154088E-02
(PID.TID 0000.0001) %MON seaice_vice_sd               =   1.6881156585121E-01
(PID.TID 0000.0001) %MON seaice_vice_del2             =   3.9693921413964E-04
(PID.TID 0000.0001) %MON seaice_area_max              =   1.0009942764959E+00
(PID.TID 0000.0001) %MON seaice_area_min              =   0.0000000000000E+00
(PID.TID 0000.0001) %MON seaice_area_mean             =   5.7858388900874E-02
(PID.TID 0000.0001) %MON seaice_area_sd               =   2.2078385161641E-01
(PID.TID 0000.0001) %MON seaice_area_del2             =   2.8306717250757E-04
(PID.TID 0000.0001) %MON seaice_heff_max              =   9.9471159217101E+00
(PID.TID 0000.0001) %MON seaice_heff_min              =   0.0000000000000E+00
(PID.TID 0000.0001) %MON seaice_heff_mean             =   1.4910543948431E-01
(PID.TID 0000.0001) %MON seaice_heff_sd               =   7.1856702364490E-01
(PID.TID 0000.0001) %MON seaice_heff_del2             =   1.2884664244370E-03
(PID.TID 0000.0001) %MON seaice_hsnow_max             =   3.2855527606559E+00
(PID.TID 0000.0001) %MON seaice_hsnow_min             =   0.0000000000000E+00
(PID.TID 0000.0001) %MON seaice_hsnow_mean            =   1.2547513549224E-02
(PID.TID 0000.0001) %MON seaice_hsnow_sd              =   6.6805442285811E-02
(PID.TID 0000.0001) %MON seaice_hsnow_del2            =   3.3684774746992E-04
(PID.TID 0000.0001) // =======================================================
(PID.TID 0000.0001) // End MONITOR SEAICE statistics
(PID.TID 0000.0001) // =======================================================
(PID.TID 0000.0001) // =======================================================
(PID.TID 0000.0001) // Begin MONITOR dynamic field statistics
(PID.TID 0000.0001) // =======================================================
(PID.TID 0000.0001) %MON time_tsnumber                =                174957
(PID.TID 0000.0001) %MON time_secondsf                =   7.8730650000000E+07
(PID.TID 0000.0001) %MON dynstat_eta_max              =   2.8996910589207E+00
(PID.TID 0000.0001) %MON dynstat_eta_min              =  -1.0589867977790E+01
(PID.TID 0000.0001) %MON dynstat_eta_mean             =   5.2098757011575E-02
(PID.TID 0000.0001) %MON dynstat_eta_sd               =   1.1091835558113E+00
(PID.TID 0000.0001) %MON dynstat_eta_del2             =   2.0125563826936E-03
(PID.TID 0000.0001) %MON dynstat_uvel_max             =   1.6677241568346E+00
(PID.TID 0000.0001) %MON dynstat_uvel_min             =  -2.3110615004131E+00
(PID.TID 0000.0001) %MON dynstat_uvel_mean            =   6.9162628423430E-03
(PID.TID 0000.0001) %MON dynstat_uvel_sd              =   6.0691497239662E-02
(PID.TID 0000.0001) %MON dynstat_uvel_del2            =   5.1593957806881E-05
(PID.TID 0000.0001) %MON dynstat_vvel_max             =   2.1082433439607E+00
(PID.TID 0000.0001) %MON dynstat_vvel_min             =  -1.6153777632868E+00
(PID.TID 0000.0001) %MON dynstat_vvel_mean            =   1.3780866066718E-03
(PID.TID 0000.0001) %MON dynstat_vvel_sd              =   6.4351400017453E-02
(PID.TID 0000.0001) %MON dynstat_vvel_del2            =   5.0383946947109E-05
(PID.TID 0000.0001) %MON dynstat_wvel_max             =   1.4485757066542E-02
(PID.TID 0000.0001) %MON dynstat_wvel_min             =  -1.2450521385465E-02
(PID.TID 0000.0001) %MON dynstat_wvel_mean            =  -1.0636815651656E-06
(PID.TID 0000.0001) %MON dynstat_wvel_sd              =   2.2610753249412E-04
(PID.TID 0000.0001) %MON dynstat_wvel_del2            =   4.4437276504270E-07
(PID.TID 0000.0001) %MON dynstat_theta_max            =   3.2347070125868E+01
(PID.TID 0000.0001) %MON dynstat_theta_min            =  -2.0229284949424E+00
(PID.TID 0000.0001) %MON dynstat_theta_mean           =   3.5918950726027E+00
(PID.TID 0000.0001) %MON dynstat_theta_sd             =   4.4417163557108E+00
(PID.TID 0000.0001) %MON dynstat_theta_del2           =   1.3284505526226E-04
(PID.TID 0000.0001) %MON dynstat_salt_max             =   4.0655989271744E+01
(PID.TID 0000.0001) %MON dynstat_salt_min             =   1.5897011265641E+01
(PID.TID 0000.0001) %MON dynstat_salt_mean            =   3.4724783779320E+01
(PID.TID 0000.0001) %MON dynstat_salt_sd              =   3.7982417113321E-01
(PID.TID 0000.0001) %MON dynstat_salt_del2            =   6.1514208628361E-05
(PID.TID 0000.0001) %MON dynstat_sst_max              =   3.2347070125868E+01
(PID.TID 0000.0001) %MON dynstat_sst_min              =  -2.0229284949424E+00
(PID.TID 0000.0001) %MON dynstat_sst_mean             =   1.8181372435153E+01
(PID.TID 0000.0001) %MON dynstat_sst_sd               =   1.0222900431585E+01
(PID.TID 0000.0001) %MON dynstat_sst_del2             =   1.0952964211474E-03
(PID.TID 0000.0001) %MON dynstat_sss_max              =   3.9467975039395E+01
(PID.TID 0000.0001) %MON dynstat_sss_min              =   1.5897011265641E+01
(PID.TID 0000.0001) %MON dynstat_sss_mean             =   3.4640132325475E+01
(PID.TID 0000.0001) %MON dynstat_sss_sd               =   1.3060622016345E+00
(PID.TID 0000.0001) %MON dynstat_sss_del2             =   1.4847512149613E-03
(PID.TID 0000.0001) %MON forcing_qnet_max             =   1.6063854980469E+03
(PID.TID 0000.0001) %MON forcing_qnet_min             =  -1.9006255031631E+03
(PID.TID 0000.0001) %MON forcing_qnet_mean            =  -3.5879047698437E+01
(PID.TID 0000.0001) %MON forcing_qnet_sd              =   2.2760913686238E+02
(PID.TID 0000.0001) %MON forcing_qnet_del2            =   4.2216933046504E-01
(PID.TID 0000.0001) %MON forcing_qsw_max              =   0.0000000000000E+00
(PID.TID 0000.0001) %MON forcing_qsw_min              =  -1.1157171809516E+02
(PID.TID 0000.0001) %MON forcing_qsw_mean             =  -2.4390685558570E+01
(PID.TID 0000.0001) %MON forcing_qsw_sd               =   3.3390494810711E+01
(PID.TID 0000.0001) %MON forcing_qsw_del2             =   2.1370420601024E-02
(PID.TID 0000.0001) %MON forcing_empmr_max            =   1.3265267945826E-02
(PID.TID 0000.0001) %MON forcing_empmr_min            =  -1.0204318165779E-01
(PID.TID 0000.0001) %MON forcing_empmr_mean           =  -1.4828244026692E-06
(PID.TID 0000.0001) %MON forcing_empmr_sd             =   3.8435247146082E-04
(PID.TID 0000.0001) %MON forcing_empmr_del2           =   4.2485903701933E-06
(PID.TID 0000.0001) %MON forcing_fu_max               =   9.8278378813131E-01
(PID.TID 0000.0001) %MON forcing_fu_min               =  -1.1755187511444E+00
(PID.TID 0000.0001) %MON forcing_fu_mean              =   9.8255565353623E-03
(PID.TID 0000.0001) %MON forcing_fu_sd                =   1.2602529443320E-01
(PID.TID 0000.0001) %MON forcing_fu_del2              =   1.6709759523801E-04
(PID.TID 0000.0001) %MON forcing_fv_max               =   1.0746402144432E+00
(PID.TID 0000.0001) %MON forcing_fv_min               =  -1.1799058318138E+00
(PID.TID 0000.0001) %MON forcing_fv_mean              =   1.4639918228475E-03
(PID.TID 0000.0001) %MON forcing_fv_sd                =   1.2401117305738E-01
(PID.TID 0000.0001) %MON forcing_fv_del2              =   1.6750259078345E-04
(PID.TID 0000.0001) %MON trAdv_CFL_u_max              =   1.9866434323730E-02
(PID.TID 0000.0001) %MON trAdv_CFL_v_max              =   1.9880925912550E-02
(PID.TID 0000.0001) %MON trAdv_CFL_w_max              =   9.2181843564946E-02
(PID.TID 0000.0001) %MON advcfl_uvel_max              =   2.0132175556863E-02
(PID.TID 0000.0001) %MON advcfl_vvel_max              =   1.9816861990968E-02
(PID.TID 0000.0001) %MON advcfl_wvel_max              =   8.6798045958963E-02
(PID.TID 0000.0001) %MON advcfl_W_hf_max              =   9.2181843564946E-02
(PID.TID 0000.0001) %MON pe_b_mean                    =   1.8967993627927E-03
(PID.TID 0000.0001) %MON ke_max                       =   2.1979148456233E+00
(PID.TID 0000.0001) %MON ke_mean                      =   3.7969245212647E-03
(PID.TID 0000.0001) %MON ke_vol                       =   1.3350064351420E+18
(PID.TID 0000.0001) %MON vort_r_min                   =  -7.1800831367040E-05
(PID.TID 0000.0001) %MON vort_r_max                   =   7.1271783279528E-05
(PID.TID 0000.0001) %MON vort_a_mean                  =  -1.9725076071337E-05
(PID.TID 0000.0001) %MON vort_a_sd                    =   7.4545622568347E-05
(PID.TID 0000.0001) %MON vort_p_mean                  =  -2.1669080951766E-05
(PID.TID 0000.0001) %MON vort_p_sd                    =   9.3621886645917E-05
(PID.TID 0000.0001) %MON surfExpan_theta_mean         =  -4.4183526699825E-05
(PID.TID 0000.0001) %MON surfExpan_salt_mean          =  -7.8608400482447E-05
(PID.TID 0000.0001) // =======================================================
(PID.TID 0000.0001) // End MONITOR dynamic field statistics
(PID.TID 0000.0001) // =======================================================
(PID.TID 0000.0001) // =======================================================
(PID.TID 0000.0001) // Begin MONITOR SEAICE statistics
(PID.TID 0000.0001) // =======================================================
(PID.TID 0000.0001) %MON seaice_tsnumber              =                174957
(PID.TID 0000.0001) %MON seaice_time_sec              =   7.8730650000000E+07
(PID.TID 0000.0001) %MON seaice_uice_max              =   1.2842463491417E+00
(PID.TID 0000.0001) %MON seaice_uice_min              =  -1.1584994153856E+00
(PID.TID 0000.0001) %MON seaice_uice_mean             =   8.3074345739866E-03
(PID.TID 0000.0001) %MON seaice_uice_sd               =   1.5105434905292E-01
(PID.TID 0000.0001) %MON seaice_uice_del2             =   4.0760746635943E-04
(PID.TID 0000.0001) %MON seaice_vice_max              =   1.3115531312068E+00
(PID.TID 0000.0001) %MON seaice_vice_min              =  -1.5559760093072E+00
(PID.TID 0000.0001) %MON seaice_vice_mean             =  -2.1616337846560E-02
(PID.TID 0000.0001) %MON seaice_vice_sd               =   1.6903501169105E-01
(PID.TID 0000.0001) %MON seaice_vice_del2             =   3.9742320091140E-04
(PID.TID 0000.0001) %MON seaice_area_max              =   1.0009944724708E+00
(PID.TID 0000.0001) %MON seaice_area_min              =   0.0000000000000E+00
(PID.TID 0000.0001) %MON seaice_area_mean             =   5.7862801158242E-02
(PID.TID 0000.0001) %MON seaice_area_sd               =   2.2078506549418E-01
(PID.TID 0000.0001) %MON seaice_area_del2             =   2.8311529367848E-04
(PID.TID 0000.0001) %MON seaice_heff_max              =   9.9471159337640E+00
(PID.TID 0000.0001) %MON seaice_heff_min              =   0.0000000000000E+00
(PID.TID 0000.0001) %MON seaice_heff_mean             =   1.4910238659562E-01
(PID.TID 0000.0001) %MON seaice_heff_sd               =   7.1855434098373E-01
(PID.TID 0000.0001) %MON seaice_heff_del2             =   1.2879549873620E-03
(PID.TID 0000.0001) %MON seaice_hsnow_max             =   3.2855525133748E+00
(PID.TID 0000.0001) %MON seaice_hsnow_min             =   0.0000000000000E+00
(PID.TID 0000.0001) %MON seaice_hsnow_mean            =   1.2547013696441E-02
(PID.TID 0000.0001) %MON seaice_hsnow_sd              =   6.6795171089719E-02
(PID.TID 0000.0001) %MON seaice_hsnow_del2            =   3.3659775231008E-04
(PID.TID 0000.0001) // =======================================================
(PID.TID 0000.0001) // End MONITOR SEAICE statistics
(PID.TID 0000.0001) // =======================================================
(PID.TID 0000.0001) // =======================================================
(PID.TID 0000.0001) // Begin MONITOR dynamic field statistics
(PID.TID 0000.0001) // =======================================================
(PID.TID 0000.0001) %MON time_tsnumber                =                174958
(PID.TID 0000.0001) %MON time_secondsf                =   7.8731100000000E+07
(PID.TID 0000.0001) %MON dynstat_eta_max              =   2.8854933570072E+00
(PID.TID 0000.0001) %MON dynstat_eta_min              =  -1.0579439802337E+01
(PID.TID 0000.0001) %MON dynstat_eta_mean             =   5.1109459368378E-02
(PID.TID 0000.0001) %MON dynstat_eta_sd               =   1.1112778215694E+00
(PID.TID 0000.0001) %MON dynstat_eta_del2             =   2.0125699130173E-03
(PID.TID 0000.0001) %MON dynstat_uvel_max             =   1.6747002836300E+00
(PID.TID 0000.0001) %MON dynstat_uvel_min             =  -2.3081793473367E+00
(PID.TID 0000.0001) %MON dynstat_uvel_mean            =   6.9071930490763E-03
(PID.TID 0000.0001) %MON dynstat_uvel_sd              =   6.0960312632555E-02
(PID.TID 0000.0001) %MON dynstat_uvel_del2            =   5.1731954573004E-05
(PID.TID 0000.0001) %MON dynstat_vvel_max             =   2.1126045153397E+00
(PID.TID 0000.0001) %MON dynstat_vvel_min             =  -1.6103565555573E+00
(PID.TID 0000.0001) %MON dynstat_vvel_mean            =   1.3818617409319E-03
(PID.TID 0000.0001) %MON dynstat_vvel_sd              =   6.4661283186120E-02
(PID.TID 0000.0001) %MON dynstat_vvel_del2            =   5.0522246010407E-05
(PID.TID 0000.0001) %MON dynstat_wvel_max             =   1.4525379599463E-02
(PID.TID 0000.0001) %MON dynstat_wvel_min             =  -1.2507098394346E-02
(PID.TID 0000.0001) %MON dynstat_wvel_mean            =  -1.0609725576751E-06
(PID.TID 0000.0001) %MON dynstat_wvel_sd              =   2.2674155154614E-04
(PID.TID 0000.0001) %MON dynstat_wvel_del2            =   4.4521040082833E-07
(PID.TID 0000.0001) %MON dynstat_theta_max            =   3.2346328860202E+01
(PID.TID 0000.0001) %MON dynstat_theta_min            =  -2.0229159676592E+00
(PID.TID 0000.0001) %MON dynstat_theta_mean           =   3.5919012832093E+00
(PID.TID 0000.0001) %MON dynstat_theta_sd             =   4.4417337058355E+00
(PID.TID 0000.0001) %MON dynstat_theta_del2           =   1.3291553112210E-04
(PID.TID 0000.0001) %MON dynstat_salt_max             =   4.0655989271529E+01
(PID.TID 0000.0001) %MON dynstat_salt_min             =   1.5896376248441E+01
(PID.TID 0000.0001) %MON dynstat_salt_mean            =   3.4724784052568E+01
(PID.TID 0000.0001) %MON dynstat_salt_sd              =   3.7982540968913E-01
(PID.TID 0000.0001) %MON dynstat_salt_del2            =   6.1501032921429E-05
(PID.TID 0000.0001) %MON dynstat_sst_max              =   3.2346328860202E+01
(PID.TID 0000.0001) %MON dynstat_sst_min              =  -2.0229159676592E+00
(PID.TID 0000.0001) %MON dynstat_sst_mean             =   1.8181634109225E+01
(PID.TID 0000.0001) %MON dynstat_sst_sd               =   1.0223297285213E+01
(PID.TID 0000.0001) %MON dynstat_sst_del2             =   1.0954216445008E-03
(PID.TID 0000.0001) %MON dynstat_sss_max              =   3.9467852917045E+01
(PID.TID 0000.0001) %MON dynstat_sss_min              =   1.5896376248441E+01
(PID.TID 0000.0001) %MON dynstat_sss_mean             =   3.4640121253266E+01
(PID.TID 0000.0001) %MON dynstat_sss_sd               =   1.3060918060856E+00
(PID.TID 0000.0001) %MON dynstat_sss_del2             =   1.4850609553816E-03
(PID.TID 0000.0001) %MON forcing_qnet_max             =   2.6813989257812E+03
(PID.TID 0000.0001) %MON forcing_qnet_min             =  -1.6756877441406E+03
(PID.TID 0000.0001) %MON forcing_qnet_mean            =  -3.6540015775861E+01
(PID.TID 0000.0001) %MON forcing_qnet_sd              =   2.2812899342785E+02
(PID.TID 0000.0001) %MON forcing_qnet_del2            =   4.6574600816434E-01
(PID.TID 0000.0001) %MON forcing_qsw_max              =   0.0000000000000E+00
(PID.TID 0000.0001) %MON forcing_qsw_min              =  -1.1148252867530E+02
(PID.TID 0000.0001) %MON forcing_qsw_mean             =  -2.4426620855666E+01
(PID.TID 0000.0001) %MON forcing_qsw_sd               =   3.3426326987172E+01
(PID.TID 0000.0001) %MON forcing_qsw_del2             =   2.1486746626635E-02
(PID.TID 0000.0001) %MON forcing_empmr_max            =   1.2854515574872E-02
(PID.TID 0000.0001) %MON forcing_empmr_min            =  -9.7354635596275E-02
(PID.TID 0000.0001) %MON forcing_empmr_mean           =  -1.2815463182240E-06
(PID.TID 0000.0001) %MON forcing_empmr_sd             =   3.7644419368836E-04
(PID.TID 0000.0001) %MON forcing_empmr_del2           =   4.1560923196879E-06
(PID.TID 0000.0001) %MON forcing_fu_max               =   9.8562809634033E-01
(PID.TID 0000.0001) %MON forcing_fu_min               =  -1.1842192411423E+00
(PID.TID 0000.0001) %MON forcing_fu_mean              =   9.7912367141671E-03
(PID.TID 0000.0001) %MON forcing_fu_sd                =   1.2607532803736E-01
(PID.TID 0000.0001) %MON forcing_fu_del2              =   1.6722885013721E-04
(PID.TID 0000.0001) %MON forcing_fv_max               =   1.0726815462112E+00
(PID.TID 0000.0001) %MON forcing_fv_min               =  -1.1690607666969E+00
(PID.TID 0000.0001) %MON forcing_fv_mean              =   1.5077888763832E-03
(PID.TID 0000.0001) %MON forcing_fv_sd                =   1.2407075202797E-01
(PID.TID 0000.0001) %MON forcing_fv_del2              =   1.6753809847629E-04
(PID.TID 0000.0001) %MON trAdv_CFL_u_max              =   1.9825092225779E-02
(PID.TID 0000.0001) %MON trAdv_CFL_v_max              =   1.9950402201063E-02
(PID.TID 0000.0001) %MON trAdv_CFL_w_max              =   9.1632864407963E-02
(PID.TID 0000.0001) %MON advcfl_uvel_max              =   2.0090280450761E-02
(PID.TID 0000.0001) %MON advcfl_vvel_max              =   1.9886114400395E-02
(PID.TID 0000.0001) %MON advcfl_wvel_max              =   8.6275625901936E-02
(PID.TID 0000.0001) %MON advcfl_W_hf_max              =   9.1632864407963E-02
(PID.TID 0000.0001) %MON pe_b_mean                    =   1.8749440932171E-03
(PID.TID 0000.0001) %MON ke_max                       =   2.1977697060385E+00
(PID.TID 0000.0001) %MON ke_mean                      =   3.8319154028076E-03
(PID.TID 0000.0001) %MON ke_vol                       =   1.3350064351420E+18
(PID.TID 0000.0001) %MON vort_r_min                   =  -7.1783090759249E-05
(PID.TID 0000.0001) %MON vort_r_max                   =   7.1117260936515E-05
(PID.TID 0000.0001) %MON vort_a_mean                  =  -1.9725075981209E-05
(PID.TID 0000.0001) %MON vort_a_sd                    =   7.4545688358035E-05
(PID.TID 0000.0001) %MON vort_p_mean                  =  -2.1669080852755E-05
(PID.TID 0000.0001) %MON vort_p_sd                    =   9.3621900449750E-05
(PID.TID 0000.0001) %MON surfExpan_theta_mean         =  -4.4035962170497E-05
(PID.TID 0000.0001) %MON surfExpan_salt_mean          =  -7.8423005543718E-05
(PID.TID 0000.0001) // =======================================================
(PID.TID 0000.0001) // End MONITOR dynamic field statistics
(PID.TID 0000.0001) // =======================================================
(PID.TID 0000.0001) // =======================================================
(PID.TID 0000.0001) // Begin MONITOR SEAICE statistics
(PID.TID 0000.0001) // =======================================================
(PID.TID 0000.0001) %MON seaice_tsnumber              =                174958
(PID.TID 0000.0001) %MON seaice_time_sec              =   7.8731100000000E+07
(PID.TID 0000.0001) %MON seaice_uice_max              =   1.2820160279135E+00
(PID.TID 0000.0001) %MON seaice_uice_min              =  -1.1604328166608E+00
(PID.TID 0000.0001) %MON seaice_uice_mean             =   8.2927760164025E-03
(PID.TID 0000.0001) %MON seaice_uice_sd               =   1.5113593959627E-01
(PID.TID 0000.0001) %MON seaice_uice_del2             =   4.0808799183232E-04
(PID.TID 0000.0001) %MON seaice_vice_max              =   1.3186887232292E+00
(PID.TID 0000.0001) %MON seaice_vice_min              =  -1.5569569940312E+00
(PID.TID 0000.0001) %MON seaice_vice_mean             =  -2.1583314881185E-02
(PID.TID 0000.0001) %MON seaice_vice_sd               =   1.6926980278070E-01
(PID.TID 0000.0001) %MON seaice_vice_del2             =   3.9791620133959E-04
(PID.TID 0000.0001) %MON seaice_area_max              =   1.0010058343409E+00
(PID.TID 0000.0001) %MON seaice_area_min              =   0.0000000000000E+00
(PID.TID 0000.0001) %MON seaice_area_mean             =   5.7867198346974E-02
(PID.TID 0000.0001) %MON seaice_area_sd               =   2.2078625837750E-01
(PID.TID 0000.0001) %MON seaice_area_del2             =   2.8316150303736E-04
(PID.TID 0000.0001) %MON seaice_heff_max              =   9.9471121316091E+00
(PID.TID 0000.0001) %MON seaice_heff_min              =   0.0000000000000E+00
(PID.TID 0000.0001) %MON seaice_heff_mean             =   1.4909933442949E-01
(PID.TID 0000.0001) %MON seaice_heff_sd               =   7.1854171822927E-01
(PID.TID 0000.0001) %MON seaice_heff_del2             =   1.2874473382669E-03
(PID.TID 0000.0001) %MON seaice_hsnow_max             =   3.2855515140298E+00
(PID.TID 0000.0001) %MON seaice_hsnow_min             =   0.0000000000000E+00
(PID.TID 0000.0001) %MON seaice_hsnow_mean            =   1.2546519497358E-02
(PID.TID 0000.0001) %MON seaice_hsnow_sd              =   6.6784914093115E-02
(PID.TID 0000.0001) %MON seaice_hsnow_del2            =   3.3634865483035E-04
(PID.TID 0000.0001) // =======================================================
(PID.TID 0000.0001) // End MONITOR SEAICE statistics
(PID.TID 0000.0001) // =======================================================
(PID.TID 0000.0001) // =======================================================
(PID.TID 0000.0001) // Begin MONITOR dynamic field statistics
(PID.TID 0000.0001) // =======================================================
(PID.TID 0000.0001) %MON time_tsnumber                =                174959
(PID.TID 0000.0001) %MON time_secondsf                =   7.8731550000000E+07
(PID.TID 0000.0001) %MON dynstat_eta_max              =   2.8698047706337E+00
(PID.TID 0000.0001) %MON dynstat_eta_min              =  -1.0568145201812E+01
(PID.TID 0000.0001) %MON dynstat_eta_mean             =   5.0123616260266E-02
(PID.TID 0000.0001) %MON dynstat_eta_sd               =   1.1133961680484E+00
(PID.TID 0000.0001) %MON dynstat_eta_del2             =   2.0125861326075E-03
(PID.TID 0000.0001) %MON dynstat_uvel_max             =   1.6815320906910E+00
(PID.TID 0000.0001) %MON dynstat_uvel_min             =  -2.3051639190814E+00
(PID.TID 0000.0001) %MON dynstat_uvel_mean            =   6.8964830031658E-03
(PID.TID 0000.0001) %MON dynstat_uvel_sd              =   6.1229908191754E-02
(PID.TID 0000.0001) %MON dynstat_uvel_del2            =   5.1870130535319E-05
(PID.TID 0000.0001) %MON dynstat_vvel_max             =   2.1168902652292E+00
(PID.TID 0000.0001) %MON dynstat_vvel_min             =  -1.6052948824026E+00
(PID.TID 0000.0001) %MON dynstat_vvel_mean            =   1.3862023635429E-03
(PID.TID 0000.0001) %MON dynstat_vvel_sd              =   6.4970692791609E-02
(PID.TID 0000.0001) %MON dynstat_vvel_del2            =   5.0660680991024E-05
(PID.TID 0000.0001) %MON dynstat_wvel_max             =   1.4563906430566E-02
(PID.TID 0000.0001) %MON dynstat_wvel_min             =  -1.2563017760126E-02
(PID.TID 0000.0001) %MON dynstat_wvel_mean            =  -1.0573869987558E-06
(PID.TID 0000.0001) %MON dynstat_wvel_sd              =   2.2737352727461E-04
(PID.TID 0000.0001) %MON dynstat_wvel_del2            =   4.4604569231606E-07
(PID.TID 0000.0001) %MON dynstat_theta_max            =   3.2345588679355E+01
(PID.TID 0000.0001) %MON dynstat_theta_min            =  -2.0229023273021E+00
(PID.TID 0000.0001) %MON dynstat_theta_mean           =   3.5919074703659E+00
(PID.TID 0000.0001) %MON dynstat_theta_sd             =   4.4417510546892E+00
(PID.TID 0000.0001) %MON dynstat_theta_del2           =   1.3298568957946E-04
(PID.TID 0000.0001) %MON dynstat_salt_max             =   4.0655989271315E+01
(PID.TID 0000.0001) %MON dynstat_salt_min             =   1.5895716195887E+01
(PID.TID 0000.0001) %MON dynstat_salt_mean            =   3.4724784330793E+01
(PID.TID 0000.0001) %MON dynstat_salt_sd              =   3.7982666889789E-01
(PID.TID 0000.0001) %MON dynstat_salt_del2            =   6.1484311884070E-05
(PID.TID 0000.0001) %MON dynstat_sst_max              =   3.2345588679355E+01
(PID.TID 0000.0001) %MON dynstat_sst_min              =  -2.0229023273021E+00
(PID.TID 0000.0001) %MON dynstat_sst_mean             =   1.8181892046621E+01
(PID.TID 0000.0001) %MON dynstat_sst_sd               =   1.0223695631899E+01
(PID.TID 0000.0001) %MON dynstat_sst_del2             =   1.0954646036829E-03
(PID.TID 0000.0001) %MON dynstat_sss_max              =   3.9467696866746E+01
(PID.TID 0000.0001) %MON dynstat_sss_min              =   1.5895716195887E+01
(PID.TID 0000.0001) %MON dynstat_sss_mean             =   3.4640110269826E+01
(PID.TID 0000.0001) %MON dynstat_sss_sd               =   1.3061215697050E+00
(PID.TID 0000.0001) %MON dynstat_sss_del2             =   1.4851837780646E-03
(PID.TID 0000.0001) %MON forcing_qnet_max             =   1.4230760523304E+03
(PID.TID 0000.0001) %MON forcing_qnet_min             =  -1.7477041015625E+03
(PID.TID 0000.0001) %MON forcing_qnet_mean            =  -3.6581977309207E+01
(PID.TID 0000.0001) %MON forcing_qnet_sd              =   2.2798111917225E+02
(PID.TID 0000.0001) %MON forcing_qnet_del2            =   4.3899644232867E-01
(PID.TID 0000.0001) %MON forcing_qsw_max              =   0.0000000000000E+00
(PID.TID 0000.0001) %MON forcing_qsw_min              =  -1.1127586722484E+02
(PID.TID 0000.0001) %MON forcing_qsw_mean             =  -2.4441628174749E+01
(PID.TID 0000.0001) %MON forcing_qsw_sd               =   3.3449083442421E+01
(PID.TID 0000.0001) %MON forcing_qsw_del2             =   2.1598462716036E-02
(PID.TID 0000.0001) %MON forcing_empmr_max            =   1.2383897788823E-02
(PID.TID 0000.0001) %MON forcing_empmr_min            =  -9.6147529780865E-02
(PID.TID 0000.0001) %MON forcing_empmr_mean           =  -1.1934390276334E-06
(PID.TID 0000.0001) %MON forcing_empmr_sd             =   3.6693102092229E-04
(PID.TID 0000.0001) %MON forcing_empmr_del2           =   4.0297043916990E-06
(PID.TID 0000.0001) %MON forcing_fu_max               =   9.9675348879475E-01
(PID.TID 0000.0001) %MON forcing_fu_min               =  -1.1892996430397E+00
(PID.TID 0000.0001) %MON forcing_fu_mean              =   9.7583969616939E-03
(PID.TID 0000.0001) %MON forcing_fu_sd                =   1.2612651546350E-01
(PID.TID 0000.0001) %MON forcing_fu_del2              =   1.6742120056310E-04
(PID.TID 0000.0001) %MON forcing_fv_max               =   1.0810635685921E+00
(PID.TID 0000.0001) %MON forcing_fv_min               =  -1.1632881760597E+00
(PID.TID 0000.0001) %MON forcing_fv_mean              =   1.5354745316934E-03
(PID.TID 0000.0001) %MON forcing_fv_sd                =   1.2410624096139E-01
(PID.TID 0000.0001) %MON forcing_fv_del2              =   1.6778684276719E-04
(PID.TID 0000.0001) %MON trAdv_CFL_u_max              =   1.9784622989260E-02
(PID.TID 0000.0001) %MON trAdv_CFL_v_max              =   2.0020703314661E-02
(PID.TID 0000.0001) %MON trAdv_CFL_w_max              =   9.1077823543644E-02
(PID.TID 0000.0001) %MON advcfl_uvel_max              =   2.0049269881831E-02
(PID.TID 0000.0001) %MON advcfl_vvel_max              =   1.9956188977008E-02
(PID.TID 0000.0001) %MON advcfl_wvel_max              =   8.5747417057742E-02
(PID.TID 0000.0001) %MON advcfl_W_hf_max              =   9.1077823543644E-02
(PID.TID 0000.0001) %MON pe_b_mean                    =   1.8532802087014E-03
(PID.TID 0000.0001) %MON ke_max                       =   2.1974219135117E+00
(PID.TID 0000.0001) %MON ke_mean                      =   3.8670749065790E-03
(PID.TID 0000.0001) %MON ke_vol                       =   1.3350064351420E+18
(PID.TID 0000.0001) %MON vort_r_min                   =  -7.1763053971466E-05
(PID.TID 0000.0001) %MON vort_r_max                   =   7.0967082664963E-05
(PID.TID 0000.0001) %MON vort_a_mean                  =  -1.9725075890984E-05
(PID.TID 0000.0001) %MON vort_a_sd                    =   7.4545754058652E-05
(PID.TID 0000.0001) %MON vort_p_mean                  =  -2.1669080753638E-05
(PID.TID 0000.0001) %MON vort_p_sd                    =   9.3621912682486E-05
(PID.TID 0000.0001) %MON surfExpan_theta_mean         =  -4.3787669131448E-05
(PID.TID 0000.0001) %MON surfExpan_salt_mean          =  -7.8199672828327E-05
(PID.TID 0000.0001) // =======================================================
(PID.TID 0000.0001) // End MONITOR dynamic field statistics
(PID.TID 0000.0001) // =======================================================
(PID.TID 0000.0001) // =======================================================
(PID.TID 0000.0001) // Begin MONITOR SEAICE statistics
(PID.TID 0000.0001) // =======================================================
(PID.TID 0000.0001) %MON seaice_tsnumber              =                174959
(PID.TID 0000.0001) %MON seaice_time_sec              =   7.8731550000000E+07
(PID.TID 0000.0001) %MON seaice_uice_max              =   1.2796081849098E+00
(PID.TID 0000.0001) %MON seaice_uice_min              =  -1.1626859335618E+00
(PID.TID 0000.0001) %MON seaice_uice_mean             =   8.2752578463755E-03
(PID.TID 0000.0001) %MON seaice_uice_sd               =   1.5121595023976E-01
(PID.TID 0000.0001) %MON seaice_uice_del2             =   4.0864402492525E-04
(PID.TID 0000.0001) %MON seaice_vice_max              =   1.3247391032728E+00
(PID.TID 0000.0001) %MON seaice_vice_min              =  -1.5579247001025E+00
(PID.TID 0000.0001) %MON seaice_vice_mean             =  -2.1551708401206E-02
(PID.TID 0000.0001) %MON seaice_vice_sd               =   1.6950827159453E-01
(PID.TID 0000.0001) %MON seaice_vice_del2             =   3.9834995874000E-04
(PID.TID 0000.0001) %MON seaice_area_max              =   1.0010181794903E+00
(PID.TID 0000.0001) %MON seaice_area_min              =   0.0000000000000E+00
(PID.TID 0000.0001) %MON seaice_area_mean             =   5.7871595298575E-02
(PID.TID 0000.0001) %MON seaice_area_sd               =   2.2078744281099E-01
(PID.TID 0000.0001) %MON seaice_area_del2             =   2.8320642373818E-04
(PID.TID 0000.0001) %MON seaice_heff_max              =   9.9471064216045E+00
(PID.TID 0000.0001) %MON seaice_heff_min              =   0.0000000000000E+00
(PID.TID 0000.0001) %MON seaice_heff_mean             =   1.4909628355005E-01
(PID.TID 0000.0001) %MON seaice_heff_sd               =   7.1852915711575E-01
(PID.TID 0000.0001) %MON seaice_heff_del2             =   1.2869438368319E-03
(PID.TID 0000.0001) %MON seaice_hsnow_max             =   3.2855490732174E+00
(PID.TID 0000.0001) %MON seaice_hsnow_min             =   0.0000000000000E+00
(PID.TID 0000.0001) %MON seaice_hsnow_mean            =   1.2546031381824E-02
(PID.TID 0000.0001) %MON seaice_hsnow_sd              =   6.6774744809250E-02
(PID.TID 0000.0001) %MON seaice_hsnow_del2            =   3.3610045824998E-04
(PID.TID 0000.0001) // =======================================================
(PID.TID 0000.0001) // End MONITOR SEAICE statistics
(PID.TID 0000.0001) // =======================================================
(PID.TID 0000.0001) // =======================================================
(PID.TID 0000.0001) // Begin MONITOR dynamic field statistics
(PID.TID 0000.0001) // =======================================================
(PID.TID 0000.0001) %MON time_tsnumber                =                174960
(PID.TID 0000.0001) %MON time_secondsf                =   7.8732000000000E+07
(PID.TID 0000.0001) %MON dynstat_eta_max              =   2.8526534156759E+00
(PID.TID 0000.0001) %MON dynstat_eta_min              =  -1.0556523749786E+01
(PID.TID 0000.0001) %MON dynstat_eta_mean             =   4.9141167726936E-02
(PID.TID 0000.0001) %MON dynstat_eta_sd               =   1.1155402818903E+00
(PID.TID 0000.0001) %MON dynstat_eta_del2             =   2.0126055684125E-03
(PID.TID 0000.0001) %MON dynstat_uvel_max             =   1.6882171964163E+00
(PID.TID 0000.0001) %MON dynstat_uvel_min             =  -2.3020142889823E+00
(PID.TID 0000.0001) %MON dynstat_uvel_mean            =   6.8841919313119E-03
(PID.TID 0000.0001) %MON dynstat_uvel_sd              =   6.1500314062607E-02
(PID.TID 0000.0001) %MON dynstat_uvel_del2            =   5.2008278060219E-05
(PID.TID 0000.0001) %MON dynstat_vvel_max             =   2.1210978010713E+00
(PID.TID 0000.0001) %MON dynstat_vvel_min             =  -1.6002052123298E+00
(PID.TID 0000.0001) %MON dynstat_vvel_mean            =   1.3910532929503E-03
(PID.TID 0000.0001) %MON dynstat_vvel_sd              =   6.5279660186500E-02
(PID.TID 0000.0001) %MON dynstat_vvel_del2            =   5.0799137750338E-05
(PID.TID 0000.0001) %MON dynstat_wvel_max             =   1.4601390642418E-02
(PID.TID 0000.0001) %MON dynstat_wvel_min             =  -1.2618235484746E-02
(PID.TID 0000.0001) %MON dynstat_wvel_mean            =  -1.0538328709805E-06
(PID.TID 0000.0001) %MON dynstat_wvel_sd              =   2.2800399697200E-04
(PID.TID 0000.0001) %MON dynstat_wvel_del2            =   4.4687922779534E-07
(PID.TID 0000.0001) %MON dynstat_theta_max            =   3.2344851554794E+01
(PID.TID 0000.0001) %MON dynstat_theta_min            =  -2.0228875744777E+00
(PID.TID 0000.0001) %MON dynstat_theta_mean           =   3.5919136197719E+00
(PID.TID 0000.0001) %MON dynstat_theta_sd             =   4.4417683599149E+00
(PID.TID 0000.0001) %MON dynstat_theta_del2           =   1.3305613787540E-04
(PID.TID 0000.0001) %MON dynstat_salt_max             =   4.0655989271101E+01
(PID.TID 0000.0001) %MON dynstat_salt_min             =   1.5895053831779E+01
(PID.TID 0000.0001) %MON dynstat_salt_mean            =   3.4724784610058E+01
(PID.TID 0000.0001) %MON dynstat_salt_sd              =   3.7982795648278E-01
(PID.TID 0000.0001) %MON dynstat_salt_del2            =   6.1468620457208E-05
(PID.TID 0000.0001) %MON dynstat_sst_max              =   3.2344851554794E+01
(PID.TID 0000.0001) %MON dynstat_sst_min              =  -2.0228875744777E+00
(PID.TID 0000.0001) %MON dynstat_sst_mean             =   1.8182149235440E+01
(PID.TID 0000.0001) %MON dynstat_sst_sd               =   1.0224097010438E+01
(PID.TID 0000.0001) %MON dynstat_sst_del2             =   1.0954890968177E-03
(PID.TID 0000.0001) %MON dynstat_sss_max              =   3.9467474536412E+01
(PID.TID 0000.0001) %MON dynstat_sss_min              =   1.5895053831779E+01
(PID.TID 0000.0001) %MON dynstat_sss_mean             =   3.4640097706730E+01
(PID.TID 0000.0001) %MON dynstat_sss_sd               =   1.3061535401389E+00
(PID.TID 0000.0001) %MON dynstat_sss_del2             =   1.4853322258543E-03
(PID.TID 0000.0001) %MON forcing_qnet_max             =   3.4163337250773E+03
(PID.TID 0000.0001) %MON forcing_qnet_min             =  -1.2532544327671E+03
(PID.TID 0000.0001) %MON forcing_qnet_mean            =  -3.6546086301055E+01
(PID.TID 0000.0001) %MON forcing_qnet_sd              =   2.2831161864759E+02
(PID.TID 0000.0001) %MON forcing_qnet_del2            =   4.2133283341840E-01
(PID.TID 0000.0001) %MON forcing_qsw_max              =   0.0000000000000E+00
(PID.TID 0000.0001) %MON forcing_qsw_min              =  -1.1095187935853E+02
(PID.TID 0000.0001) %MON forcing_qsw_mean             =  -2.4436119643294E+01
(PID.TID 0000.0001) %MON forcing_qsw_sd               =   3.3458487348753E+01
(PID.TID 0000.0001) %MON forcing_qsw_del2             =   2.1705322934618E-02
(PID.TID 0000.0001) %MON forcing_empmr_max            =   1.2773166410625E-02
(PID.TID 0000.0001) %MON forcing_empmr_min            =  -9.4947360455990E-02
(PID.TID 0000.0001) %MON forcing_empmr_mean           =  -1.5710451085549E-06
(PID.TID 0000.0001) %MON forcing_empmr_sd             =   3.5894317196218E-04
(PID.TID 0000.0001) %MON forcing_empmr_del2           =   3.9412182227611E-06
(PID.TID 0000.0001) %MON forcing_fu_max               =   1.0006966469482E+00
(PID.TID 0000.0001) %MON forcing_fu_min               =  -1.1944544315338E+00
(PID.TID 0000.0001) %MON forcing_fu_mean              =   9.7193097437927E-03
(PID.TID 0000.0001) %MON forcing_fu_sd                =   1.2616704413352E-01
(PID.TID 0000.0001) %MON forcing_fu_del2              =   1.6765367649002E-04
(PID.TID 0000.0001) %MON forcing_fv_max               =   1.0837998986244E+00
(PID.TID 0000.0001) %MON forcing_fv_min               =  -1.1550247073174E+00
(PID.TID 0000.0001) %MON forcing_fv_mean              =   1.5776741071728E-03
(PID.TID 0000.0001) %MON forcing_fv_sd                =   1.2416369262726E-01
(PID.TID 0000.0001) %MON forcing_fv_del2              =   1.6799619678308E-04
(PID.TID 0000.0001) %MON trAdv_CFL_u_max              =   1.9745042852413E-02
(PID.TID 0000.0001) %MON trAdv_CFL_v_max              =   2.0091405897136E-02
(PID.TID 0000.0001) %MON trAdv_CFL_w_max              =   9.0513601502041E-02
(PID.TID 0000.0001) %MON advcfl_uvel_max              =   2.0009160305518E-02
(PID.TID 0000.0001) %MON advcfl_vvel_max              =   2.0026663728812E-02
(PID.TID 0000.0001) %MON advcfl_wvel_max              =   8.5209780966628E-02
(PID.TID 0000.0001) %MON advcfl_W_hf_max              =   9.0513601502041E-02
(PID.TID 0000.0001) %MON pe_b_mean                    =   1.8318104073431E-03
(PID.TID 0000.0001) %MON ke_max                       =   2.1968725179887E+00
(PID.TID 0000.0001) %MON ke_mean                      =   3.9024073557647E-03
(PID.TID 0000.0001) %MON ke_vol                       =   1.3350064351420E+18
(PID.TID 0000.0001) %MON vort_r_min                   =  -7.1740712174900E-05
(PID.TID 0000.0001) %MON vort_r_max                   =   7.0821272472967E-05
(PID.TID 0000.0001) %MON vort_a_mean                  =  -1.9725075801452E-05
(PID.TID 0000.0001) %MON vort_a_sd                    =   7.4545819658173E-05
(PID.TID 0000.0001) %MON vort_p_mean                  =  -2.1669080655282E-05
(PID.TID 0000.0001) %MON vort_p_sd                    =   9.3621923298370E-05
(PID.TID 0000.0001) %MON surfExpan_theta_mean         =  -4.3454322553749E-05
(PID.TID 0000.0001) %MON surfExpan_salt_mean          =  -7.7988034490125E-05
(PID.TID 0000.0001) // =======================================================
(PID.TID 0000.0001) // End MONITOR dynamic field statistics
(PID.TID 0000.0001) // =======================================================
(PID.TID 0000.0001) // =======================================================
(PID.TID 0000.0001) // Begin MONITOR SEAICE statistics
(PID.TID 0000.0001) // =======================================================
(PID.TID 0000.0001) %MON seaice_tsnumber              =                174960
(PID.TID 0000.0001) %MON seaice_time_sec              =   7.8732000000000E+07
(PID.TID 0000.0001) %MON seaice_uice_max              =   1.2770935280160E+00
(PID.TID 0000.0001) %MON seaice_uice_min              =  -1.1652265077074E+00
(PID.TID 0000.0001) %MON seaice_uice_mean             =   8.2557774346216E-03
(PID.TID 0000.0001) %MON seaice_uice_sd               =   1.5129759784088E-01
(PID.TID 0000.0001) %MON seaice_uice_del2             =   4.0918311483382E-04
(PID.TID 0000.0001) %MON seaice_vice_max              =   1.3297202020461E+00
(PID.TID 0000.0001) %MON seaice_vice_min              =  -1.5588907395374E+00
(PID.TID 0000.0001) %MON seaice_vice_mean             =  -2.1514297455841E-02
(PID.TID 0000.0001) %MON seaice_vice_sd               =   1.6975025394606E-01
(PID.TID 0000.0001) %MON seaice_vice_del2             =   3.9883788093199E-04
(PID.TID 0000.0001) %MON seaice_area_max              =   1.0010313226704E+00
(PID.TID 0000.0001) %MON seaice_area_min              =   0.0000000000000E+00
(PID.TID 0000.0001) %MON seaice_area_mean             =   5.7875989441592E-02
(PID.TID 0000.0001) %MON seaice_area_sd               =   2.2078862232015E-01
(PID.TID 0000.0001) %MON seaice_area_del2             =   2.8325018030303E-04
(PID.TID 0000.0001) %MON seaice_heff_max              =   9.9471016605061E+00
(PID.TID 0000.0001) %MON seaice_heff_min              =   0.0000000000000E+00
(PID.TID 0000.0001) %MON seaice_heff_mean             =   1.4909323048418E-01
(PID.TID 0000.0001) %MON seaice_heff_sd               =   7.1851663512555E-01
(PID.TID 0000.0001) %MON seaice_heff_del2             =   1.2864446239828E-03
(PID.TID 0000.0001) %MON seaice_hsnow_max             =   3.2855471085663E+00
(PID.TID 0000.0001) %MON seaice_hsnow_min             =   0.0000000000000E+00
(PID.TID 0000.0001) %MON seaice_hsnow_mean            =   1.2545541979150E-02
(PID.TID 0000.0001) %MON seaice_hsnow_sd              =   6.6764590723529E-02
(PID.TID 0000.0001) %MON seaice_hsnow_del2            =   3.3585321879893E-04
(PID.TID 0000.0001) // =======================================================
(PID.TID 0000.0001) // End MONITOR SEAICE statistics
(PID.TID 0000.0001) // =======================================================
(PID.TID 0000.0001) // =======================================================
(PID.TID 0000.0001) // Begin MONITOR dynamic field statistics
(PID.TID 0000.0001) // =======================================================
(PID.TID 0000.0001) %MON time_tsnumber                =                174961
(PID.TID 0000.0001) %MON time_secondsf                =   7.8732450000000E+07
(PID.TID 0000.0001) %MON dynstat_eta_max              =   2.8340734018890E+00
(PID.TID 0000.0001) %MON dynstat_eta_min              =  -1.0544529304263E+01
(PID.TID 0000.0001) %MON dynstat_eta_mean             =   4.8162034735452E-02
(PID.TID 0000.0001) %MON dynstat_eta_sd               =   1.1177110268567E+00
(PID.TID 0000.0001) %MON dynstat_eta_del2             =   2.0126268490122E-03
(PID.TID 0000.0001) %MON dynstat_uvel_max             =   1.6947527215852E+00
(PID.TID 0000.0001) %MON dynstat_uvel_min             =  -2.2987310115216E+00
(PID.TID 0000.0001) %MON dynstat_uvel_mean            =   6.8703987338604E-03
(PID.TID 0000.0001) %MON dynstat_uvel_sd              =   6.1771540152974E-02
(PID.TID 0000.0001) %MON dynstat_uvel_del2            =   5.2146471297853E-05
(PID.TID 0000.0001) %MON dynstat_vvel_max             =   2.1252241839588E+00
(PID.TID 0000.0001) %MON dynstat_vvel_min             =  -1.5950961597624E+00
(PID.TID 0000.0001) %MON dynstat_vvel_mean            =   1.3963582451988E-03
(PID.TID 0000.0001) %MON dynstat_vvel_sd              =   6.5588193633133E-02
(PID.TID 0000.0001) %MON dynstat_vvel_del2            =   5.0937661290670E-05
(PID.TID 0000.0001) %MON dynstat_wvel_max             =   1.4637862411343E-02
(PID.TID 0000.0001) %MON dynstat_wvel_min             =  -1.2672741693419E-02
(PID.TID 0000.0001) %MON dynstat_wvel_mean            =  -1.0499271414401E-06
(PID.TID 0000.0001) %MON dynstat_wvel_sd              =   2.2863302294049E-04
(PID.TID 0000.0001) %MON dynstat_wvel_del2            =   4.4771089148822E-07
(PID.TID 0000.0001) %MON dynstat_theta_max            =   3.2344117626799E+01
(PID.TID 0000.0001) %MON dynstat_theta_min            =  -2.0228717098738E+00
(PID.TID 0000.0001) %MON dynstat_theta_mean           =   3.5919197271613E+00
(PID.TID 0000.0001) %MON dynstat_theta_sd             =   4.4417856471247E+00
(PID.TID 0000.0001) %MON dynstat_theta_del2           =   1.3312685259903E-04
(PID.TID 0000.0001) %MON dynstat_salt_max             =   4.0655989270886E+01
(PID.TID 0000.0001) %MON dynstat_salt_min             =   1.5894392168986E+01
(PID.TID 0000.0001) %MON dynstat_salt_mean            =   3.4724784894528E+01
(PID.TID 0000.0001) %MON dynstat_salt_sd              =   3.7982924993868E-01
(PID.TID 0000.0001) %MON dynstat_salt_del2            =   6.1451136070482E-05
(PID.TID 0000.0001) %MON dynstat_sst_max              =   3.2344117626799E+01
(PID.TID 0000.0001) %MON dynstat_sst_min              =  -2.0228717098738E+00
(PID.TID 0000.0001) %MON dynstat_sst_mean             =   1.8182406111994E+01
(PID.TID 0000.0001) %MON dynstat_sst_sd               =   1.0224504443323E+01
(PID.TID 0000.0001) %MON dynstat_sst_del2             =   1.0955066182799E-03
(PID.TID 0000.0001) %MON dynstat_sss_max              =   3.9467153688176E+01
(PID.TID 0000.0001) %MON dynstat_sss_min              =   1.5894392168986E+01
(PID.TID 0000.0001) %MON dynstat_sss_mean             =   3.4640086298776E+01
(PID.TID 0000.0001) %MON dynstat_sss_sd               =   1.3061841381794E+00
(PID.TID 0000.0001) %MON dynstat_sss_del2             =   1.4853852289448E-03
(PID.TID 0000.0001) %MON forcing_qnet_max             =   4.7323515853007E+03
(PID.TID 0000.0001) %MON forcing_qnet_min             =  -1.5500933837891E+03
(PID.TID 0000.0001) %MON forcing_qnet_mean            =  -3.6668488028260E+01
(PID.TID 0000.0001) %MON forcing_qnet_sd              =   2.2831761087666E+02
(PID.TID 0000.0001) %MON forcing_qnet_del2            =   4.8096385948416E-01
(PID.TID 0000.0001) %MON forcing_qsw_max              =   0.0000000000000E+00
(PID.TID 0000.0001) %MON forcing_qsw_min              =  -1.1073510020038E+02
(PID.TID 0000.0001) %MON forcing_qsw_mean             =  -2.4410968190647E+01
(PID.TID 0000.0001) %MON forcing_qsw_sd               =   3.3453964904275E+01
(PID.TID 0000.0001) %MON forcing_qsw_del2             =   2.1806980287360E-02
(PID.TID 0000.0001) %MON forcing_empmr_max            =   1.3184136711061E-02
(PID.TID 0000.0001) %MON forcing_empmr_min            =  -9.2107601463795E-02
(PID.TID 0000.0001) %MON forcing_empmr_mean           =  -1.5758899311690E-06
(PID.TID 0000.0001) %MON forcing_empmr_sd             =   3.8204239024136E-04
(PID.TID 0000.0001) %MON forcing_empmr_del2           =   4.5295234932440E-06
(PID.TID 0000.0001) %MON forcing_fu_max               =   1.0089839260676E+00
(PID.TID 0000.0001) %MON forcing_fu_min               =  -1.1926540136337E+00
(PID.TID 0000.0001) %MON forcing_fu_mean              =   9.6825334348021E-03
(PID.TID 0000.0001) %MON forcing_fu_sd                =   1.2619326565898E-01
(PID.TID 0000.0001) %MON forcing_fu_del2              =   1.6782861795393E-04
(PID.TID 0000.0001) %MON forcing_fv_max               =   1.0913751721382E+00
(PID.TID 0000.0001) %MON forcing_fv_min               =  -1.1520048379898E+00
(PID.TID 0000.0001) %MON forcing_fv_mean              =   1.6109812539235E-03
(PID.TID 0000.0001) %MON forcing_fv_sd                =   1.2419980493696E-01
(PID.TID 0000.0001) %MON forcing_fv_del2              =   1.6814313040516E-04
(PID.TID 0000.0001) %MON trAdv_CFL_u_max              =   1.9706298772831E-02
(PID.TID 0000.0001) %MON trAdv_CFL_v_max              =   2.0162105913032E-02
(PID.TID 0000.0001) %MON trAdv_CFL_w_max              =   8.9945361498863E-02
(PID.TID 0000.0001) %MON advcfl_uvel_max              =   1.9969897969900E-02
(PID.TID 0000.0001) %MON advcfl_vvel_max              =   2.0097135922307E-02
(PID.TID 0000.0001) %MON advcfl_wvel_max              =   8.4667937929187E-02
(PID.TID 0000.0001) %MON advcfl_W_hf_max              =   8.9945361498863E-02
(PID.TID 0000.0001) %MON pe_b_mean                    =   1.8105353573591E-03
(PID.TID 0000.0001) %MON ke_max                       =   2.1961194581309E+00
(PID.TID 0000.0001) %MON ke_mean                      =   3.9379146119137E-03
(PID.TID 0000.0001) %MON ke_vol                       =   1.3350064351420E+18
(PID.TID 0000.0001) %MON vort_r_min                   =  -7.1716058339179E-05
(PID.TID 0000.0001) %MON vort_r_max                   =   7.0679658115745E-05
(PID.TID 0000.0001) %MON vort_a_mean                  =  -1.9725075713545E-05
(PID.TID 0000.0001) %MON vort_a_sd                    =   7.4545885141852E-05
(PID.TID 0000.0001) %MON vort_p_mean                  =  -2.1669080558711E-05
(PID.TID 0000.0001) %MON vort_p_sd                    =   9.3621932484091E-05
(PID.TID 0000.0001) %MON surfExpan_theta_mean         =  -4.3022551289845E-05
(PID.TID 0000.0001) %MON surfExpan_salt_mean          =  -7.7761070098443E-05
(PID.TID 0000.0001) // =======================================================
(PID.TID 0000.0001) // End MONITOR dynamic field statistics
(PID.TID 0000.0001) // =======================================================
(PID.TID 0000.0001) // =======================================================
(PID.TID 0000.0001) // Begin MONITOR SEAICE statistics
(PID.TID 0000.0001) // =======================================================
(PID.TID 0000.0001) %MON seaice_tsnumber              =                174961
(PID.TID 0000.0001) %MON seaice_time_sec              =   7.8732450000000E+07
(PID.TID 0000.0001) %MON seaice_uice_max              =   1.2745296333707E+00
(PID.TID 0000.0001) %MON seaice_uice_min              =  -1.1680208421361E+00
(PID.TID 0000.0001) %MON seaice_uice_mean             =   8.2316259482588E-03
(PID.TID 0000.0001) %MON seaice_uice_sd               =   1.5138297187026E-01
(PID.TID 0000.0001) %MON seaice_uice_del2             =   4.0969831955688E-04
(PID.TID 0000.0001) %MON seaice_vice_max              =   1.3336753213428E+00
(PID.TID 0000.0001) %MON seaice_vice_min              =  -1.5598540913600E+00
(PID.TID 0000.0001) %MON seaice_vice_mean             =  -2.1474465203165E-02
(PID.TID 0000.0001) %MON seaice_vice_sd               =   1.6999657550315E-01
(PID.TID 0000.0001) %MON seaice_vice_del2             =   3.9931851797207E-04
(PID.TID 0000.0001) %MON seaice_area_max              =   1.0010449575520E+00
(PID.TID 0000.0001) %MON seaice_area_min              =   0.0000000000000E+00
(PID.TID 0000.0001) %MON seaice_area_mean             =   5.7880389193212E-02
(PID.TID 0000.0001) %MON seaice_area_sd               =   2.2078978647691E-01
(PID.TID 0000.0001) %MON seaice_area_del2             =   2.8329324976069E-04
(PID.TID 0000.0001) %MON seaice_heff_max              =   9.9470969046217E+00
(PID.TID 0000.0001) %MON seaice_heff_min              =   0.0000000000000E+00
(PID.TID 0000.0001) %MON seaice_heff_mean             =   1.4909017427026E-01
(PID.TID 0000.0001) %MON seaice_heff_sd               =   7.1850413705593E-01
(PID.TID 0000.0001) %MON seaice_heff_del2             =   1.2859498463821E-03
(PID.TID 0000.0001) %MON seaice_hsnow_max             =   3.2855456259242E+00
(PID.TID 0000.0001) %MON seaice_hsnow_min             =   0.0000000000000E+00
(PID.TID 0000.0001) %MON seaice_hsnow_mean            =   1.2545046997215E-02
(PID.TID 0000.0001) %MON seaice_hsnow_sd              =   6.6754483155125E-02
(PID.TID 0000.0001) %MON seaice_hsnow_del2            =   3.3560698491081E-04
(PID.TID 0000.0001) // =======================================================
(PID.TID 0000.0001) // End MONITOR SEAICE statistics
(PID.TID 0000.0001) // =======================================================
(PID.TID 0000.0001) // =======================================================
(PID.TID 0000.0001) // Begin MONITOR dynamic field statistics
(PID.TID 0000.0001) // =======================================================
(PID.TID 0000.0001) %MON time_tsnumber                =                174962
(PID.TID 0000.0001) %MON time_secondsf                =   7.8732900000000E+07
(PID.TID 0000.0001) %MON dynstat_eta_max              =   2.8141038256018E+00
(PID.TID 0000.0001) %MON dynstat_eta_min              =  -1.0547971233148E+01
(PID.TID 0000.0001) %MON dynstat_eta_mean             =   4.7186440618977E-02
(PID.TID 0000.0001) %MON dynstat_eta_sd               =   1.1199098543637E+00
(PID.TID 0000.0001) %MON dynstat_eta_del2             =   2.0126468037338E-03
(PID.TID 0000.0001) %MON dynstat_uvel_max             =   1.7011361339594E+00
(PID.TID 0000.0001) %MON dynstat_uvel_min             =  -2.2953134073467E+00
(PID.TID 0000.0001) %MON dynstat_uvel_mean            =   6.8551941023284E-03
(PID.TID 0000.0001) %MON dynstat_uvel_sd              =   6.2043631390687E-02
(PID.TID 0000.0001) %MON dynstat_uvel_del2            =   5.2284732870281E-05
(PID.TID 0000.0001) %MON dynstat_vvel_max             =   2.1292676741423E+00
(PID.TID 0000.0001) %MON dynstat_vvel_min             =  -1.5899754220813E+00
(PID.TID 0000.0001) %MON dynstat_vvel_mean            =   1.4020655791969E-03
(PID.TID 0000.0001) %MON dynstat_vvel_sd              =   6.5896319235561E-02
(PID.TID 0000.0001) %MON dynstat_vvel_del2            =   5.1076200582489E-05
(PID.TID 0000.0001) %MON dynstat_wvel_max             =   1.4673353067263E-02
(PID.TID 0000.0001) %MON dynstat_wvel_min             =  -1.2726545453243E-02
(PID.TID 0000.0001) %MON dynstat_wvel_mean            =  -1.0450638009743E-06
(PID.TID 0000.0001) %MON dynstat_wvel_sd              =   2.2926086639337E-04
(PID.TID 0000.0001) %MON dynstat_wvel_del2            =   4.4854113941054E-07
(PID.TID 0000.0001) %MON dynstat_theta_max            =   3.2343391207591E+01
(PID.TID 0000.0001) %MON dynstat_theta_min            =  -2.0228547340344E+00
(PID.TID 0000.0001) %MON dynstat_theta_mean           =   3.5919257743951E+00
(PID.TID 0000.0001) %MON dynstat_theta_sd             =   4.4418028415523E+00
(PID.TID 0000.0001) %MON dynstat_theta_del2           =   1.3319832824949E-04
(PID.TID 0000.0001) %MON dynstat_salt_max             =   4.0655989270671E+01
(PID.TID 0000.0001) %MON dynstat_salt_min             =   1.5893731127237E+01
(PID.TID 0000.0001) %MON dynstat_salt_mean            =   3.4724785180725E+01
(PID.TID 0000.0001) %MON dynstat_salt_sd              =   3.7983056074274E-01
(PID.TID 0000.0001) %MON dynstat_salt_del2            =   6.1435662484301E-05
(PID.TID 0000.0001) %MON dynstat_sst_max              =   3.2343391207591E+01
(PID.TID 0000.0001) %MON dynstat_sst_min              =  -2.0228547340344E+00
(PID.TID 0000.0001) %MON dynstat_sst_mean             =   1.8182662847902E+01
(PID.TID 0000.0001) %MON dynstat_sst_sd               =   1.0224914992732E+01
(PID.TID 0000.0001) %MON dynstat_sst_del2             =   1.0955794183921E-03
(PID.TID 0000.0001) %MON dynstat_sss_max              =   3.9466674542517E+01
(PID.TID 0000.0001) %MON dynstat_sss_min              =   1.5893731127237E+01
(PID.TID 0000.0001) %MON dynstat_sss_mean             =   3.4640075203353E+01
(PID.TID 0000.0001) %MON dynstat_sss_sd               =   1.3062132167426E+00
(PID.TID 0000.0001) %MON dynstat_sss_del2             =   1.4855220684624E-03
(PID.TID 0000.0001) %MON forcing_qnet_max             =   2.7605456542969E+03
(PID.TID 0000.0001) %MON forcing_qnet_min             =  -1.1640480957031E+03
(PID.TID 0000.0001) %MON forcing_qnet_mean            =  -3.6581964853775E+01
(PID.TID 0000.0001) %MON forcing_qnet_sd              =   2.2809189246125E+02
(PID.TID 0000.0001) %MON forcing_qnet_del2            =   4.4476601863191E-01
(PID.TID 0000.0001) %MON forcing_qsw_max              =   0.0000000000000E+00
(PID.TID 0000.0001) %MON forcing_qsw_min              =  -1.1098595991688E+02
(PID.TID 0000.0001) %MON forcing_qsw_mean             =  -2.4366568422634E+01
(PID.TID 0000.0001) %MON forcing_qsw_sd               =   3.3435300779126E+01
(PID.TID 0000.0001) %MON forcing_qsw_del2             =   2.1903188705396E-02
(PID.TID 0000.0001) %MON forcing_empmr_max            =   1.3615722768009E-02
(PID.TID 0000.0001) %MON forcing_empmr_min            =  -8.9610435068607E-02
(PID.TID 0000.0001) %MON forcing_empmr_mean           =  -8.3281727393821E-07
(PID.TID 0000.0001) %MON forcing_empmr_sd             =   3.5216782391984E-04
(PID.TID 0000.0001) %MON forcing_empmr_del2           =   3.8698074435237E-06
(PID.TID 0000.0001) %MON forcing_fu_max               =   1.0128816212191E+00
(PID.TID 0000.0001) %MON forcing_fu_min               =  -1.1897422075272E+00
(PID.TID 0000.0001) %MON forcing_fu_mean              =   9.6521421326727E-03
(PID.TID 0000.0001) %MON forcing_fu_sd                =   1.2623625083118E-01
(PID.TID 0000.0001) %MON forcing_fu_del2              =   1.6791985076141E-04
(PID.TID 0000.0001) %MON forcing_fv_max               =   1.0952750444412E+00
(PID.TID 0000.0001) %MON forcing_fv_min               =  -1.1461033821106E+00
(PID.TID 0000.0001) %MON forcing_fv_mean              =   1.6446709755105E-03
(PID.TID 0000.0001) %MON forcing_fv_sd                =   1.2423109629906E-01
(PID.TID 0000.0001) %MON forcing_fv_del2              =   1.6825999350667E-04
(PID.TID 0000.0001) %MON trAdv_CFL_u_max              =   1.9668308632969E-02
(PID.TID 0000.0001) %MON trAdv_CFL_v_max              =   2.0232420486335E-02
(PID.TID 0000.0001) %MON trAdv_CFL_w_max              =   8.9380143561604E-02
(PID.TID 0000.0001) %MON advcfl_uvel_max              =   1.9931399658998E-02
(PID.TID 0000.0001) %MON advcfl_vvel_max              =   2.0167223915251E-02
(PID.TID 0000.0001) %MON advcfl_wvel_max              =   8.4129019622000E-02
(PID.TID 0000.0001) %MON advcfl_W_hf_max              =   8.9380143561604E-02
(PID.TID 0000.0001) %MON pe_b_mean                    =   1.7894633047383E-03
(PID.TID 0000.0001) %MON ke_max                       =   2.1951613932368E+00
(PID.TID 0000.0001) %MON ke_mean                      =   3.9736018746761E-03
(PID.TID 0000.0001) %MON ke_vol                       =   1.3350064351420E+18
(PID.TID 0000.0001) %MON vort_r_min                   =  -7.1689087049045E-05
(PID.TID 0000.0001) %MON vort_r_max                   =   7.0541983913178E-05
(PID.TID 0000.0001) %MON vort_a_mean                  =  -1.9725075628197E-05
(PID.TID 0000.0001) %MON vort_a_sd                    =   7.4545950509908E-05
(PID.TID 0000.0001) %MON vort_p_mean                  =  -2.1669080464952E-05
(PID.TID 0000.0001) %MON vort_p_sd                    =   9.3621940284682E-05
(PID.TID 0000.0001) %MON surfExpan_theta_mean         =  -4.2479153919527E-05
(PID.TID 0000.0001) %MON surfExpan_salt_mean          =  -7.7483382955822E-05
(PID.TID 0000.0001) // =======================================================
(PID.TID 0000.0001) // End MONITOR dynamic field statistics
(PID.TID 0000.0001) // =======================================================
(PID.TID 0000.0001) // =======================================================
(PID.TID 0000.0001) // Begin MONITOR SEAICE statistics
(PID.TID 0000.0001) // =======================================================
(PID.TID 0000.0001) %MON seaice_tsnumber              =                174962
(PID.TID 0000.0001) %MON seaice_time_sec              =   7.8732900000000E+07
(PID.TID 0000.0001) %MON seaice_uice_max              =   1.2721252769021E+00
(PID.TID 0000.0001) %MON seaice_uice_min              =  -1.1710313474410E+00
(PID.TID 0000.0001) %MON seaice_uice_mean             =   8.2059950676971E-03
(PID.TID 0000.0001) %MON seaice_uice_sd               =   1.5146992450151E-01
(PID.TID 0000.0001) %MON seaice_uice_del2             =   4.1020411841972E-04
(PID.TID 0000.0001) %MON seaice_vice_max              =   1.3366905068535E+00
(PID.TID 0000.0001) %MON seaice_vice_min              =  -1.5608087955161E+00
(PID.TID 0000.0001) %MON seaice_vice_mean             =  -2.1430613104949E-02
(PID.TID 0000.0001) %MON seaice_vice_sd               =   1.7024699407560E-01
(PID.TID 0000.0001) %MON seaice_vice_del2             =   3.9978181541211E-04
(PID.TID 0000.0001) %MON seaice_area_max              =   1.0010617345480E+00
(PID.TID 0000.0001) %MON seaice_area_min              =   0.0000000000000E+00
(PID.TID 0000.0001) %MON seaice_area_mean             =   5.7884788544647E-02
(PID.TID 0000.0001) %MON seaice_area_sd               =   2.2079095793286E-01
(PID.TID 0000.0001) %MON seaice_area_del2             =   2.8333471232442E-04
(PID.TID 0000.0001) %MON seaice_heff_max              =   9.9470921475267E+00
(PID.TID 0000.0001) %MON seaice_heff_min              =   0.0000000000000E+00
(PID.TID 0000.0001) %MON seaice_heff_mean             =   1.4908711104343E-01
(PID.TID 0000.0001) %MON seaice_heff_sd               =   7.1849165768675E-01
(PID.TID 0000.0001) %MON seaice_heff_del2             =   1.2854595226721E-03
(PID.TID 0000.0001) %MON seaice_hsnow_max             =   3.2855441412851E+00
(PID.TID 0000.0001) %MON seaice_hsnow_min             =   0.0000000000000E+00
(PID.TID 0000.0001) %MON seaice_hsnow_mean            =   1.2544559797097E-02
(PID.TID 0000.0001) %MON seaice_hsnow_sd              =   6.6744422374453E-02
(PID.TID 0000.0001) %MON seaice_hsnow_del2            =   3.3536175951709E-04
(PID.TID 0000.0001) // =======================================================
(PID.TID 0000.0001) // End MONITOR SEAICE statistics
(PID.TID 0000.0001) // =======================================================
(PID.TID 0000.0001) // =======================================================
(PID.TID 0000.0001) // Begin MONITOR dynamic field statistics
(PID.TID 0000.0001) // =======================================================
(PID.TID 0000.0001) %MON time_tsnumber                =                174963
(PID.TID 0000.0001) %MON time_secondsf                =   7.8733350000000E+07
(PID.TID 0000.0001) %MON dynstat_eta_max              =   2.7927885215312E+00
(PID.TID 0000.0001) %MON dynstat_eta_min              =  -1.0549590478870E+01
(PID.TID 0000.0001) %MON dynstat_eta_mean             =   4.6214494111656E-02
(PID.TID 0000.0001) %MON dynstat_eta_sd               =   1.1221373010060E+00
(PID.TID 0000.0001) %MON dynstat_eta_del2             =   2.0126679197950E-03
(PID.TID 0000.0001) %MON dynstat_uvel_max             =   1.7073667248639E+00
(PID.TID 0000.0001) %MON dynstat_uvel_min             =  -2.2917626547098E+00
(PID.TID 0000.0001) %MON dynstat_uvel_mean            =   6.8386755450397E-03
(PID.TID 0000.0001) %MON dynstat_uvel_sd              =   6.2316619241258E-02
(PID.TID 0000.0001) %MON dynstat_uvel_del2            =   5.2423066149476E-05
(PID.TID 0000.0001) %MON dynstat_vvel_max             =   2.1332283946509E+00
(PID.TID 0000.0001) %MON dynstat_vvel_min             =  -1.5848516173112E+00
(PID.TID 0000.0001) %MON dynstat_vvel_mean            =   1.4081293938909E-03
(PID.TID 0000.0001) %MON dynstat_vvel_sd              =   6.6204053709631E-02
(PID.TID 0000.0001) %MON dynstat_vvel_del2            =   5.1214659811041E-05
(PID.TID 0000.0001) %MON dynstat_wvel_max             =   1.4707914323671E-02
(PID.TID 0000.0001) %MON dynstat_wvel_min             =  -1.2779612889636E-02
(PID.TID 0000.0001) %MON dynstat_wvel_mean            =  -1.0397751488181E-06
(PID.TID 0000.0001) %MON dynstat_wvel_sd              =   2.2988780970406E-04
(PID.TID 0000.0001) %MON dynstat_wvel_del2            =   4.4937006688489E-07
(PID.TID 0000.0001) %MON dynstat_theta_max            =   3.2342663715856E+01
(PID.TID 0000.0001) %MON dynstat_theta_min            =  -2.0228366716275E+00
(PID.TID 0000.0001) %MON dynstat_theta_mean           =   3.5919317428630E+00
(PID.TID 0000.0001) %MON dynstat_theta_sd             =   4.4418198928749E+00
(PID.TID 0000.0001) %MON dynstat_theta_del2           =   1.3326938568510E-04
(PID.TID 0000.0001) %MON dynstat_salt_max             =   4.0655989270456E+01
(PID.TID 0000.0001) %MON dynstat_salt_min             =   1.5893070651020E+01
(PID.TID 0000.0001) %MON dynstat_salt_mean            =   3.4724785465337E+01
(PID.TID 0000.0001) %MON dynstat_salt_sd              =   3.7983187681118E-01
(PID.TID 0000.0001) %MON dynstat_salt_del2            =   6.1416838076164E-05
(PID.TID 0000.0001) %MON dynstat_sst_max              =   3.2342663715856E+01
(PID.TID 0000.0001) %MON dynstat_sst_min              =  -2.0228366716275E+00
(PID.TID 0000.0001) %MON dynstat_sst_mean             =   1.8182914535547E+01
(PID.TID 0000.0001) %MON dynstat_sst_sd               =   1.0225326431598E+01
(PID.TID 0000.0001) %MON dynstat_sst_del2             =   1.0955288397150E-03
(PID.TID 0000.0001) %MON dynstat_sss_max              =   3.9466038901610E+01
(PID.TID 0000.0001) %MON dynstat_sss_min              =   1.5893070651020E+01
(PID.TID 0000.0001) %MON dynstat_sss_mean             =   3.4640062702711E+01
(PID.TID 0000.0001) %MON dynstat_sss_sd               =   1.3062430937101E+00
(PID.TID 0000.0001) %MON dynstat_sss_del2             =   1.4854690912825E-03
(PID.TID 0000.0001) %MON forcing_qnet_max             =   7.0082211914062E+03
(PID.TID 0000.0001) %MON forcing_qnet_min             =  -1.0627052962178E+03
(PID.TID 0000.0001) %MON forcing_qnet_mean            =  -3.6212081162839E+01
(PID.TID 0000.0001) %MON forcing_qnet_sd              =   2.2986734130118E+02
(PID.TID 0000.0001) %MON forcing_qnet_del2            =   5.6791951009082E-01
(PID.TID 0000.0001) %MON forcing_qsw_max              =   0.0000000000000E+00
(PID.TID 0000.0001) %MON forcing_qsw_min              =  -1.1112252492198E+02
(PID.TID 0000.0001) %MON forcing_qsw_mean             =  -2.4302929600204E+01
(PID.TID 0000.0001) %MON forcing_qsw_sd               =   3.3402598095879E+01
(PID.TID 0000.0001) %MON forcing_qsw_del2             =   2.1993575621795E-02
(PID.TID 0000.0001) %MON forcing_empmr_max            =   5.4003961384296E-02
(PID.TID 0000.0001) %MON forcing_empmr_min            =  -8.6137019097805E-02
(PID.TID 0000.0001) %MON forcing_empmr_mean           =   8.8441522318325E-10
(PID.TID 0000.0001) %MON forcing_empmr_sd             =   4.2113588331698E-04
(PID.TID 0000.0001) %MON forcing_empmr_del2           =   4.8367149959453E-06
(PID.TID 0000.0001) %MON forcing_fu_max               =   1.0140323177538E+00
(PID.TID 0000.0001) %MON forcing_fu_min               =  -1.1794261932373E+00
(PID.TID 0000.0001) %MON forcing_fu_mean              =   9.6271397159741E-03
(PID.TID 0000.0001) %MON forcing_fu_sd                =   1.2628560445207E-01
(PID.TID 0000.0001) %MON forcing_fu_del2              =   1.6806635899088E-04
(PID.TID 0000.0001) %MON forcing_fv_max               =   1.0960066318512E+00
(PID.TID 0000.0001) %MON forcing_fv_min               =  -1.1385667324066E+00
(PID.TID 0000.0001) %MON forcing_fv_mean              =   1.6801867945201E-03
(PID.TID 0000.0001) %MON forcing_fv_sd                =   1.2429631012674E-01
(PID.TID 0000.0001) %MON forcing_fv_del2              =   1.6843499888022E-04
(PID.TID 0000.0001) %MON trAdv_CFL_u_max              =   1.9631093391602E-02
(PID.TID 0000.0001) %MON trAdv_CFL_v_max              =   2.0301994742787E-02
(PID.TID 0000.0001) %MON trAdv_CFL_w_max              =   8.8821118892768E-02
(PID.TID 0000.0001) %MON advcfl_uvel_max              =   1.9893686611936E-02
(PID.TID 0000.0001) %MON advcfl_vvel_max              =   2.0236573976929E-02
(PID.TID 0000.0001) %MON advcfl_wvel_max              =   8.3596003261904E-02
(PID.TID 0000.0001) %MON advcfl_W_hf_max              =   8.8821118892768E-02
(PID.TID 0000.0001) %MON pe_b_mean                    =   1.7685996121665E-03
(PID.TID 0000.0001) %MON ke_max                       =   2.1940037577724E+00
(PID.TID 0000.0001) %MON ke_mean                      =   4.0094730688356E-03
(PID.TID 0000.0001) %MON ke_vol                       =   1.3350064351420E+18
(PID.TID 0000.0001) %MON vort_r_min                   =  -7.1659791324191E-05
(PID.TID 0000.0001) %MON vort_r_max                   =   7.0408241733882E-05
(PID.TID 0000.0001) %MON vort_a_mean                  =  -1.9725075546371E-05
(PID.TID 0000.0001) %MON vort_a_sd                    =   7.4546015755925E-05
(PID.TID 0000.0001) %MON vort_p_mean                  =  -2.1669080375062E-05
(PID.TID 0000.0001) %MON vort_p_sd                    =   9.3621946530009E-05
(PID.TID 0000.0001) %MON surfExpan_theta_mean         =  -4.1840499413272E-05
(PID.TID 0000.0001) %MON surfExpan_salt_mean          =  -7.7185790244769E-05
(PID.TID 0000.0001) // =======================================================
(PID.TID 0000.0001) // End MONITOR dynamic field statistics
(PID.TID 0000.0001) // =======================================================
(PID.TID 0000.0001) // =======================================================
(PID.TID 0000.0001) // Begin MONITOR SEAICE statistics
(PID.TID 0000.0001) // =======================================================
(PID.TID 0000.0001) %MON seaice_tsnumber              =                174963
(PID.TID 0000.0001) %MON seaice_time_sec              =   7.8733350000000E+07
(PID.TID 0000.0001) %MON seaice_uice_max              =   1.2700398095803E+00
(PID.TID 0000.0001) %MON seaice_uice_min              =  -1.1742203906732E+00
(PID.TID 0000.0001) %MON seaice_uice_mean             =   8.1753883651913E-03
(PID.TID 0000.0001) %MON seaice_uice_sd               =   1.5156076954989E-01
(PID.TID 0000.0001) %MON seaice_uice_del2             =   4.1070504397242E-04
(PID.TID 0000.0001) %MON seaice_vice_max              =   1.3388434561265E+00
(PID.TID 0000.0001) %MON seaice_vice_min              =  -1.5617658661214E+00
(PID.TID 0000.0001) %MON seaice_vice_mean             =  -2.1383949318590E-02
(PID.TID 0000.0001) %MON seaice_vice_sd               =   1.7050165351646E-01
(PID.TID 0000.0001) %MON seaice_vice_del2             =   4.0025385882681E-04
(PID.TID 0000.0001) %MON seaice_area_max              =   1.0010853931683E+00
(PID.TID 0000.0001) %MON seaice_area_min              =   0.0000000000000E+00
(PID.TID 0000.0001) %MON seaice_area_mean             =   5.7889194374901E-02
(PID.TID 0000.0001) %MON seaice_area_sd               =   2.2079215863112E-01
(PID.TID 0000.0001) %MON seaice_area_del2             =   2.8337410803097E-04
(PID.TID 0000.0001) %MON seaice_heff_max              =   9.9470873879119E+00
(PID.TID 0000.0001) %MON seaice_heff_min              =   0.0000000000000E+00
(PID.TID 0000.0001) %MON seaice_heff_mean             =   1.4908404217231E-01
(PID.TID 0000.0001) %MON seaice_heff_sd               =   7.1847920724947E-01
(PID.TID 0000.0001) %MON seaice_heff_del2             =   1.2849738965673E-03
(PID.TID 0000.0001) %MON seaice_hsnow_max             =   3.2855421746592E+00
(PID.TID 0000.0001) %MON seaice_hsnow_min             =   0.0000000000000E+00
(PID.TID 0000.0001) %MON seaice_hsnow_mean            =   1.2544064365104E-02
(PID.TID 0000.0001) %MON seaice_hsnow_sd              =   6.6734334186413E-02
(PID.TID 0000.0001) %MON seaice_hsnow_del2            =   3.3511746728169E-04
(PID.TID 0000.0001) // =======================================================
(PID.TID 0000.0001) // End MONITOR SEAICE statistics
(PID.TID 0000.0001) // =======================================================
(PID.TID 0000.0001) // =======================================================
(PID.TID 0000.0001) // Begin MONITOR dynamic field statistics
(PID.TID 0000.0001) // =======================================================
(PID.TID 0000.0001) %MON time_tsnumber                =                174964
(PID.TID 0000.0001) %MON time_secondsf                =   7.8733800000000E+07
(PID.TID 0000.0001) %MON dynstat_eta_max              =   2.7701755596400E+00
(PID.TID 0000.0001) %MON dynstat_eta_min              =  -1.0549497380270E+01
(PID.TID 0000.0001) %MON dynstat_eta_mean             =   4.5247178051088E-02
(PID.TID 0000.0001) %MON dynstat_eta_sd               =   1.1243935490494E+00
(PID.TID 0000.0001) %MON dynstat_eta_del2             =   2.0126898715857E-03
(PID.TID 0000.0001) %MON dynstat_uvel_max             =   1.7134409498132E+00
(PID.TID 0000.0001) %MON dynstat_uvel_min             =  -2.2880800847162E+00
(PID.TID 0000.0001) %MON dynstat_uvel_mean            =   6.8209494157678E-03
(PID.TID 0000.0001) %MON dynstat_uvel_sd              =   6.2590540567458E-02
(PID.TID 0000.0001) %MON dynstat_uvel_del2            =   5.2561367205586E-05
(PID.TID 0000.0001) %MON dynstat_vvel_max             =   2.1371068373708E+00
(PID.TID 0000.0001) %MON dynstat_vvel_min             =  -1.5797351660297E+00
(PID.TID 0000.0001) %MON dynstat_vvel_mean            =   1.4145142215822E-03
(PID.TID 0000.0001) %MON dynstat_vvel_sd              =   6.6511451610812E-02
(PID.TID 0000.0001) %MON dynstat_vvel_del2            =   5.1353155618053E-05
(PID.TID 0000.0001) %MON dynstat_wvel_max             =   1.4741583982310E-02
(PID.TID 0000.0001) %MON dynstat_wvel_min             =  -1.2831945465358E-02
(PID.TID 0000.0001) %MON dynstat_wvel_mean            =  -1.0336307805357E-06
(PID.TID 0000.0001) %MON dynstat_wvel_sd              =   2.3051396889156E-04
(PID.TID 0000.0001) %MON dynstat_wvel_del2            =   4.5019757284204E-07
(PID.TID 0000.0001) %MON dynstat_theta_max            =   3.2341947433333E+01
(PID.TID 0000.0001) %MON dynstat_theta_min            =  -2.0228175232002E+00
(PID.TID 0000.0001) %MON dynstat_theta_mean           =   3.5919376300809E+00
(PID.TID 0000.0001) %MON dynstat_theta_sd             =   4.4418368186349E+00
(PID.TID 0000.0001) %MON dynstat_theta_del2           =   1.3334113336262E-04
(PID.TID 0000.0001) %MON dynstat_salt_max             =   4.0655989270241E+01
(PID.TID 0000.0001) %MON dynstat_salt_min             =   1.5892410698435E+01
(PID.TID 0000.0001) %MON dynstat_salt_mean            =   3.4724785753593E+01
(PID.TID 0000.0001) %MON dynstat_salt_sd              =   3.7983320689254E-01
(PID.TID 0000.0001) %MON dynstat_salt_del2            =   6.1400448795556E-05
(PID.TID 0000.0001) %MON dynstat_sst_max              =   3.2341947433333E+01
(PID.TID 0000.0001) %MON dynstat_sst_min              =  -2.0228175232002E+00
(PID.TID 0000.0001) %MON dynstat_sst_mean             =   1.8183165489630E+01
(PID.TID 0000.0001) %MON dynstat_sst_sd               =   1.0225743456084E+01
(PID.TID 0000.0001) %MON dynstat_sst_del2             =   1.0955218185680E-03
(PID.TID 0000.0001) %MON dynstat_sss_max              =   3.9465833839297E+01
(PID.TID 0000.0001) %MON dynstat_sss_min              =   1.5892410698435E+01
(PID.TID 0000.0001) %MON dynstat_sss_mean             =   3.4640051683451E+01
(PID.TID 0000.0001) %MON dynstat_sss_sd               =   1.3062718271782E+00
(PID.TID 0000.0001) %MON dynstat_sss_del2             =   1.4855274667074E-03
(PID.TID 0000.0001) %MON forcing_qnet_max             =   1.7474344503561E+03
(PID.TID 0000.0001) %MON forcing_qnet_min             =  -3.6577889210110E+03
(PID.TID 0000.0001) %MON forcing_qnet_mean            =  -3.6172974707040E+01
(PID.TID 0000.0001) %MON forcing_qnet_sd              =   2.2781321496502E+02
(PID.TID 0000.0001) %MON forcing_qnet_del2            =   4.7453840500204E-01
(PID.TID 0000.0001) %MON forcing_qsw_max              =   0.0000000000000E+00
(PID.TID 0000.0001) %MON forcing_qsw_min              =  -1.1114475647162E+02
(PID.TID 0000.0001) %MON forcing_qsw_mean             =  -2.4220284535101E+01
(PID.TID 0000.0001) %MON forcing_qsw_sd               =   3.3355829374043E+01
(PID.TID 0000.0001) %MON forcing_qsw_del2             =   2.2077759474963E-02
(PID.TID 0000.0001) %MON forcing_empmr_max            =   1.4567567035556E-02
(PID.TID 0000.0001) %MON forcing_empmr_min            =  -8.3177089691162E-02
(PID.TID 0000.0001) %MON forcing_empmr_mean           =  -3.8671049995013E-07
(PID.TID 0000.0001) %MON forcing_empmr_sd             =   3.3917631916563E-04
(PID.TID 0000.0001) %MON forcing_empmr_del2           =   3.7437124140656E-06
(PID.TID 0000.0001) %MON forcing_fu_max               =   1.0201666427668E+00
(PID.TID 0000.0001) %MON forcing_fu_min               =  -1.1698861718178E+00
(PID.TID 0000.0001) %MON forcing_fu_mean              =   9.5986963201261E-03
(PID.TID 0000.0001) %MON forcing_fu_sd                =   1.2634697172660E-01
(PID.TID 0000.0001) %MON forcing_fu_del2              =   1.6842927065728E-04
(PID.TID 0000.0001) %MON forcing_fv_max               =   1.0996458530426E+00
(PID.TID 0000.0001) %MON forcing_fv_min               =  -1.1346371769905E+00
(PID.TID 0000.0001) %MON forcing_fv_mean              =   1.7154940142762E-03
(PID.TID 0000.0001) %MON forcing_fv_sd                =   1.2432283281970E-01
(PID.TID 0000.0001) %MON forcing_fv_del2              =   1.6845957364381E-04
(PID.TID 0000.0001) %MON trAdv_CFL_u_max              =   1.9594588977001E-02
(PID.TID 0000.0001) %MON trAdv_CFL_v_max              =   2.0370502517608E-02
(PID.TID 0000.0001) %MON trAdv_CFL_w_max              =   8.8269746175600E-02
(PID.TID 0000.0001) %MON advcfl_uvel_max              =   1.9856693899939E-02
(PID.TID 0000.0001) %MON advcfl_vvel_max              =   2.0304860993585E-02
(PID.TID 0000.0001) %MON advcfl_wvel_max              =   8.3070118327436E-02
(PID.TID 0000.0001) %MON advcfl_W_hf_max              =   8.8269746175600E-02
(PID.TID 0000.0001) %MON pe_b_mean                    =   1.7479700032415E-03
(PID.TID 0000.0001) %MON ke_max                       =   2.1926487379654E+00
(PID.TID 0000.0001) %MON ke_mean                      =   4.0455349989216E-03
(PID.TID 0000.0001) %MON ke_vol                       =   1.3350064351420E+18
(PID.TID 0000.0001) %MON vort_r_min                   =  -7.1628173271747E-05
(PID.TID 0000.0001) %MON vort_r_max                   =   7.0278192602878E-05
(PID.TID 0000.0001) %MON vort_a_mean                  =  -1.9725075469018E-05
(PID.TID 0000.0001) %MON vort_a_sd                    =   7.4546080882537E-05
(PID.TID 0000.0001) %MON vort_p_mean                  =  -2.1669080290085E-05
(PID.TID 0000.0001) %MON vort_p_sd                    =   9.3621951181026E-05
(PID.TID 0000.0001) %MON surfExpan_theta_mean         =  -4.1107621249635E-05
(PID.TID 0000.0001) %MON surfExpan_salt_mean          =  -7.6846504822767E-05
(PID.TID 0000.0001) // =======================================================
(PID.TID 0000.0001) // End MONITOR dynamic field statistics
(PID.TID 0000.0001) // =======================================================
(PID.TID 0000.0001) // =======================================================
(PID.TID 0000.0001) // Begin MONITOR SEAICE statistics
(PID.TID 0000.0001) // =======================================================
(PID.TID 0000.0001) %MON seaice_tsnumber              =                174964
(PID.TID 0000.0001) %MON seaice_time_sec              =   7.8733800000000E+07
(PID.TID 0000.0001) %MON seaice_uice_max              =   1.2686660222071E+00
(PID.TID 0000.0001) %MON seaice_uice_min              =  -1.1775499425984E+00
(PID.TID 0000.0001) %MON seaice_uice_mean             =   8.1432629338393E-03
(PID.TID 0000.0001) %MON seaice_uice_sd               =   1.5165413365531E-01
(PID.TID 0000.0001) %MON seaice_uice_del2             =   4.1119187616070E-04
(PID.TID 0000.0001) %MON seaice_vice_max              =   1.3402158768175E+00
(PID.TID 0000.0001) %MON seaice_vice_min              =  -1.5627221036712E+00
(PID.TID 0000.0001) %MON seaice_vice_mean             =  -2.1332160977403E-02
(PID.TID 0000.0001) %MON seaice_vice_sd               =   1.7075909184099E-01
(PID.TID 0000.0001) %MON seaice_vice_del2             =   4.0072223732213E-04
(PID.TID 0000.0001) %MON seaice_area_max              =   1.0011098169558E+00
(PID.TID 0000.0001) %MON seaice_area_min              =   0.0000000000000E+00
(PID.TID 0000.0001) %MON seaice_area_mean             =   5.7893604216560E-02
(PID.TID 0000.0001) %MON seaice_area_sd               =   2.2079339583215E-01
(PID.TID 0000.0001) %MON seaice_area_del2             =   2.8341111675170E-04
(PID.TID 0000.0001) %MON seaice_heff_max              =   9.9470826275504E+00
(PID.TID 0000.0001) %MON seaice_heff_min              =   0.0000000000000E+00
(PID.TID 0000.0001) %MON seaice_heff_mean             =   1.4908096825969E-01
(PID.TID 0000.0001) %MON seaice_heff_sd               =   7.1846679059821E-01
(PID.TID 0000.0001) %MON seaice_heff_del2             =   1.2844922365334E-03
(PID.TID 0000.0001) %MON seaice_hsnow_max             =   3.2855411641591E+00
(PID.TID 0000.0001) %MON seaice_hsnow_min             =   0.0000000000000E+00
(PID.TID 0000.0001) %MON seaice_hsnow_mean            =   1.2543575469690E-02
(PID.TID 0000.0001) %MON seaice_hsnow_sd              =   6.6724323356207E-02
(PID.TID 0000.0001) %MON seaice_hsnow_del2            =   3.3487417873262E-04
(PID.TID 0000.0001) // =======================================================
(PID.TID 0000.0001) // End MONITOR SEAICE statistics
(PID.TID 0000.0001) // =======================================================
(PID.TID 0000.0001) // =======================================================
(PID.TID 0000.0001) // Begin MONITOR dynamic field statistics
(PID.TID 0000.0001) // =======================================================
(PID.TID 0000.0001) %MON time_tsnumber                =                174965
(PID.TID 0000.0001) %MON time_secondsf                =   7.8734250000000E+07
(PID.TID 0000.0001) %MON dynstat_eta_max              =   2.7463175294063E+00
(PID.TID 0000.0001) %MON dynstat_eta_min              =  -1.0547818866249E+01
(PID.TID 0000.0001) %MON dynstat_eta_mean             =   4.4284427727810E-02
(PID.TID 0000.0001) %MON dynstat_eta_sd               =   1.1266795559105E+00
(PID.TID 0000.0001) %MON dynstat_eta_del2             =   2.0127118737606E-03
(PID.TID 0000.0001) %MON dynstat_uvel_max             =   1.7193572887728E+00
(PID.TID 0000.0001) %MON dynstat_uvel_min             =  -2.2842662212352E+00
(PID.TID 0000.0001) %MON dynstat_uvel_mean            =   6.8021264418228E-03
(PID.TID 0000.0001) %MON dynstat_uvel_sd              =   6.2865422921118E-02
(PID.TID 0000.0001) %MON dynstat_uvel_del2            =   5.2699731931007E-05
(PID.TID 0000.0001) %MON dynstat_vvel_max             =   2.1409022653923E+00
(PID.TID 0000.0001) %MON dynstat_vvel_min             =  -1.5746335242578E+00
(PID.TID 0000.0001) %MON dynstat_vvel_mean            =   1.4211730460592E-03
(PID.TID 0000.0001) %MON dynstat_vvel_sd              =   6.6818527149136E-02
(PID.TID 0000.0001) %MON dynstat_vvel_del2            =   5.1491572155363E-05
(PID.TID 0000.0001) %MON dynstat_wvel_max             =   1.4774365002295E-02
(PID.TID 0000.0001) %MON dynstat_wvel_min             =  -1.2883569035693E-02
(PID.TID 0000.0001) %MON dynstat_wvel_mean            =  -1.0272593214373E-06
(PID.TID 0000.0001) %MON dynstat_wvel_sd              =   2.3113935477123E-04
(PID.TID 0000.0001) %MON dynstat_wvel_del2            =   4.5102427554879E-07
(PID.TID 0000.0001) %MON dynstat_theta_max            =   3.2341278174251E+01
(PID.TID 0000.0001) %MON dynstat_theta_min            =  -2.0227973564674E+00
(PID.TID 0000.0001) %MON dynstat_theta_mean           =   3.5919434451415E+00
(PID.TID 0000.0001) %MON dynstat_theta_sd             =   4.4418537120297E+00
(PID.TID 0000.0001) %MON dynstat_theta_del2           =   1.3341264788325E-04
(PID.TID 0000.0001) %MON dynstat_salt_max             =   4.0655989270026E+01
(PID.TID 0000.0001) %MON dynstat_salt_min             =   1.5891751413247E+01
(PID.TID 0000.0001) %MON dynstat_salt_mean            =   3.4724786040033E+01
(PID.TID 0000.0001) %MON dynstat_salt_sd              =   3.7983454573258E-01
(PID.TID 0000.0001) %MON dynstat_salt_del2            =   6.1380139420193E-05
(PID.TID 0000.0001) %MON dynstat_sst_max              =   3.2341278174251E+01
(PID.TID 0000.0001) %MON dynstat_sst_min              =  -2.0227973564674E+00
(PID.TID 0000.0001) %MON dynstat_sst_mean             =   1.8183403426695E+01
(PID.TID 0000.0001) %MON dynstat_sst_sd               =   1.0226167069165E+01
(PID.TID 0000.0001) %MON dynstat_sst_del2             =   1.0954134436117E-03
(PID.TID 0000.0001) %MON dynstat_sss_max              =   3.9465597965924E+01
(PID.TID 0000.0001) %MON dynstat_sss_min              =   1.5891751413247E+01
(PID.TID 0000.0001) %MON dynstat_sss_mean             =   3.4640039716148E+01
(PID.TID 0000.0001) %MON dynstat_sss_sd               =   1.3062996136071E+00
(PID.TID 0000.0001) %MON dynstat_sss_del2             =   1.4853711273424E-03
(PID.TID 0000.0001) %MON forcing_qnet_max             =   1.3071818847656E+03
(PID.TID 0000.0001) %MON forcing_qnet_min             =  -1.0140625610352E+03
(PID.TID 0000.0001) %MON forcing_qnet_mean            =  -3.6778586706332E+01
(PID.TID 0000.0001) %MON forcing_qnet_sd              =   2.2571108674058E+02
(PID.TID 0000.0001) %MON forcing_qnet_del2            =   4.1329198622714E-01
(PID.TID 0000.0001) %MON forcing_qsw_max              =   0.0000000000000E+00
(PID.TID 0000.0001) %MON forcing_qsw_min              =  -1.1129393176563E+02
(PID.TID 0000.0001) %MON forcing_qsw_mean             =  -2.4095361062125E+01
(PID.TID 0000.0001) %MON forcing_qsw_sd               =   3.3340918287667E+01
(PID.TID 0000.0001) %MON forcing_qsw_del2             =   2.2370803769810E-02
(PID.TID 0000.0001) %MON forcing_empmr_max            =   1.5094119124115E-02
(PID.TID 0000.0001) %MON forcing_empmr_min            =  -7.6051324605942E-02
(PID.TID 0000.0001) %MON forcing_empmr_mean           =  -7.3334408393726E-07
(PID.TID 0000.0001) %MON forcing_empmr_sd             =   3.2472758418783E-04
(PID.TID 0000.0001) %MON forcing_empmr_del2           =   3.5891243927319E-06
(PID.TID 0000.0001) %MON forcing_fu_max               =   1.0219752723697E+00
(PID.TID 0000.0001) %MON forcing_fu_min               =  -1.1644503468581E+00
(PID.TID 0000.0001) %MON forcing_fu_mean              =   9.5654593956439E-03
(PID.TID 0000.0001) %MON forcing_fu_sd                =   1.2636148996095E-01
(PID.TID 0000.0001) %MON forcing_fu_del2              =   1.6842919358674E-04
(PID.TID 0000.0001) %MON forcing_fv_max               =   1.1035984158516E+00
(PID.TID 0000.0001) %MON forcing_fv_min               =  -1.1315888762474E+00
(PID.TID 0000.0001) %MON forcing_fv_mean              =   1.7494291479856E-03
(PID.TID 0000.0001) %MON forcing_fv_sd                =   1.2437006356662E-01
(PID.TID 0000.0001) %MON forcing_fv_del2              =   1.6867420183528E-04
(PID.TID 0000.0001) %MON trAdv_CFL_u_max              =   1.9558731577476E-02
(PID.TID 0000.0001) %MON trAdv_CFL_v_max              =   2.0437645825873E-02
(PID.TID 0000.0001) %MON trAdv_CFL_w_max              =   8.7730101027638E-02
(PID.TID 0000.0001) %MON advcfl_uvel_max              =   1.9820356857746E-02
(PID.TID 0000.0001) %MON advcfl_vvel_max              =   2.0371787940517E-02
(PID.TID 0000.0001) %MON advcfl_wvel_max              =   8.2555458904983E-02
(PID.TID 0000.0001) %MON advcfl_W_hf_max              =   8.7730101027638E-02
(PID.TID 0000.0001) %MON pe_b_mean                    =   1.7275754392211E-03
(PID.TID 0000.0001) %MON ke_max                       =   2.1910938998814E+00
(PID.TID 0000.0001) %MON ke_mean                      =   4.0817914207982E-03
(PID.TID 0000.0001) %MON ke_vol                       =   1.3350064351420E+18
(PID.TID 0000.0001) %MON vort_r_min                   =  -7.1594236680967E-05
(PID.TID 0000.0001) %MON vort_r_max                   =   7.0151542095888E-05
(PID.TID 0000.0001) %MON vort_a_mean                  =  -1.9725075397010E-05
(PID.TID 0000.0001) %MON vort_a_sd                    =   7.4546145889275E-05
(PID.TID 0000.0001) %MON vort_p_mean                  =  -2.1669080210981E-05
(PID.TID 0000.0001) %MON vort_p_sd                    =   9.3621954173625E-05
(PID.TID 0000.0001) %MON surfExpan_theta_mean         =  -4.0298652621803E-05
(PID.TID 0000.0001) %MON surfExpan_salt_mean          =  -7.6503772405774E-05
(PID.TID 0000.0001) // =======================================================
(PID.TID 0000.0001) // End MONITOR dynamic field statistics
(PID.TID 0000.0001) // =======================================================
(PID.TID 0000.0001) // =======================================================
(PID.TID 0000.0001) // Begin MONITOR SEAICE statistics
(PID.TID 0000.0001) // =======================================================
(PID.TID 0000.0001) %MON seaice_tsnumber              =                174965
(PID.TID 0000.0001) %MON seaice_time_sec              =   7.8734250000000E+07
(PID.TID 0000.0001) %MON seaice_uice_max              =   1.2674780376229E+00
(PID.TID 0000.0001) %MON seaice_uice_min              =  -1.1809788530219E+00
(PID.TID 0000.0001) %MON seaice_uice_mean             =   8.1040220851286E-03
(PID.TID 0000.0001) %MON seaice_uice_sd               =   1.5175435897853E-01
(PID.TID 0000.0001) %MON seaice_uice_del2             =   4.1182580303251E-04
(PID.TID 0000.0001) %MON seaice_vice_max              =   1.3405562540487E+00
(PID.TID 0000.0001) %MON seaice_vice_min              =  -1.5636738277767E+00
(PID.TID 0000.0001) %MON seaice_vice_mean             =  -2.1277625775828E-02
(PID.TID 0000.0001) %MON seaice_vice_sd               =   1.7101876054716E-01
(PID.TID 0000.0001) %MON seaice_vice_del2             =   4.0120501508197E-04
(PID.TID 0000.0001) %MON seaice_area_max              =   1.0011341660184E+00
(PID.TID 0000.0001) %MON seaice_area_min              =   0.0000000000000E+00
(PID.TID 0000.0001) %MON seaice_area_mean             =   5.7898019687895E-02
(PID.TID 0000.0001) %MON seaice_area_sd               =   2.2079468123286E-01
(PID.TID 0000.0001) %MON seaice_area_del2             =   2.8344725007049E-04
(PID.TID 0000.0001) %MON seaice_heff_max              =   9.9470797756870E+00
(PID.TID 0000.0001) %MON seaice_heff_min              =   0.0000000000000E+00
(PID.TID 0000.0001) %MON seaice_heff_mean             =   1.4907789311982E-01
(PID.TID 0000.0001) %MON seaice_heff_sd               =   7.1845441968309E-01
(PID.TID 0000.0001) %MON seaice_heff_del2             =   1.2840150206407E-03
(PID.TID 0000.0001) %MON seaice_hsnow_max             =   3.2855399195090E+00
(PID.TID 0000.0001) %MON seaice_hsnow_min             =   0.0000000000000E+00
(PID.TID 0000.0001) %MON seaice_hsnow_mean            =   1.2543080035731E-02
(PID.TID 0000.0001) %MON seaice_hsnow_sd              =   6.6714314850399E-02
(PID.TID 0000.0001) %MON seaice_hsnow_del2            =   3.3463198411401E-04
(PID.TID 0000.0001) // =======================================================
(PID.TID 0000.0001) // End MONITOR SEAICE statistics
(PID.TID 0000.0001) // =======================================================
(PID.TID 0000.0001) // =======================================================
(PID.TID 0000.0001) // Begin MONITOR dynamic field statistics
(PID.TID 0000.0001) // =======================================================
(PID.TID 0000.0001) %MON time_tsnumber                =                174966
(PID.TID 0000.0001) %MON time_secondsf                =   7.8734700000000E+07
(PID.TID 0000.0001) %MON dynstat_eta_max              =   2.7212685022290E+00
(PID.TID 0000.0001) %MON dynstat_eta_min              =  -1.0544693428951E+01
(PID.TID 0000.0001) %MON dynstat_eta_mean             =   4.3325940129529E-02
(PID.TID 0000.0001) %MON dynstat_eta_sd               =   1.1289954368649E+00
(PID.TID 0000.0001) %MON dynstat_eta_del2             =   2.0127356182410E-03
(PID.TID 0000.0001) %MON dynstat_uvel_max             =   1.7251155511831E+00
(PID.TID 0000.0001) %MON dynstat_uvel_min             =  -2.2803212253593E+00
(PID.TID 0000.0001) %MON dynstat_uvel_mean            =   6.7823230893811E-03
(PID.TID 0000.0001) %MON dynstat_uvel_sd              =   6.3141293153970E-02
(PID.TID 0000.0001) %MON dynstat_uvel_del2            =   5.2838108776101E-05
(PID.TID 0000.0001) %MON dynstat_vvel_max             =   2.1446133414038E+00
(PID.TID 0000.0001) %MON dynstat_vvel_min             =  -1.5695541943882E+00
(PID.TID 0000.0001) %MON dynstat_vvel_mean            =   1.4280669904779E-03
(PID.TID 0000.0001) %MON dynstat_vvel_sd              =   6.7125365143702E-02
(PID.TID 0000.0001) %MON dynstat_vvel_del2            =   5.1629953774636E-05
(PID.TID 0000.0001) %MON dynstat_wvel_max             =   1.4806254756937E-02
(PID.TID 0000.0001) %MON dynstat_wvel_min             =  -1.2934470666018E-02
(PID.TID 0000.0001) %MON dynstat_wvel_mean            =  -1.0205417087015E-06
(PID.TID 0000.0001) %MON dynstat_wvel_sd              =   2.3176431404855E-04
(PID.TID 0000.0001) %MON dynstat_wvel_del2            =   4.5185051318700E-07
(PID.TID 0000.0001) %MON dynstat_theta_max            =   3.2340622695628E+01
(PID.TID 0000.0001) %MON dynstat_theta_min            =  -2.0227761034535E+00
(PID.TID 0000.0001) %MON dynstat_theta_mean           =   3.5919491687056E+00
(PID.TID 0000.0001) %MON dynstat_theta_sd             =   4.4418704654193E+00
(PID.TID 0000.0001) %MON dynstat_theta_del2           =   1.3348474304088E-04
(PID.TID 0000.0001) %MON dynstat_salt_max             =   4.0655989269811E+01
(PID.TID 0000.0001) %MON dynstat_salt_min             =   1.5891099884014E+01
(PID.TID 0000.0001) %MON dynstat_salt_mean            =   3.4724786327274E+01
(PID.TID 0000.0001) %MON dynstat_salt_sd              =   3.7983588605767E-01
(PID.TID 0000.0001) %MON dynstat_salt_del2            =   6.1362263759928E-05
(PID.TID 0000.0001) %MON dynstat_sst_max              =   3.2340622695628E+01
(PID.TID 0000.0001) %MON dynstat_sst_min              =  -2.0227761034535E+00
(PID.TID 0000.0001) %MON dynstat_sst_mean             =   1.8183648576770E+01
(PID.TID 0000.0001) %MON dynstat_sst_sd               =   1.0226598693721E+01
(PID.TID 0000.0001) %MON dynstat_sst_del2             =   1.0953457848739E-03
(PID.TID 0000.0001) %MON dynstat_sss_max              =   3.9465215429520E+01
(PID.TID 0000.0001) %MON dynstat_sss_min              =   1.5891099884014E+01
(PID.TID 0000.0001) %MON dynstat_sss_mean             =   3.4640028739094E+01
(PID.TID 0000.0001) %MON dynstat_sss_sd               =   1.3063264811471E+00
(PID.TID 0000.0001) %MON dynstat_sss_del2             =   1.4853168341331E-03
(PID.TID 0000.0001) %MON forcing_qnet_max             =   1.2770040357807E+03
(PID.TID 0000.0001) %MON forcing_qnet_min             =  -1.8289074707031E+03
(PID.TID 0000.0001) %MON forcing_qnet_mean            =  -3.6934985753729E+01
(PID.TID 0000.0001) %MON forcing_qnet_sd              =   2.2570148916682E+02
(PID.TID 0000.0001) %MON forcing_qnet_del2            =   4.3000139344829E-01
(PID.TID 0000.0001) %MON forcing_qsw_max              =   0.0000000000000E+00
(PID.TID 0000.0001) %MON forcing_qsw_min              =  -1.1133193038260E+02
(PID.TID 0000.0001) %MON forcing_qsw_mean             =  -2.4066227591312E+01
(PID.TID 0000.0001) %MON forcing_qsw_sd               =   3.3343218376324E+01
(PID.TID 0000.0001) %MON forcing_qsw_del2             =   2.2517851412230E-02
(PID.TID 0000.0001) %MON forcing_empmr_max            =   1.5673520043492E-02
(PID.TID 0000.0001) %MON forcing_empmr_min            =  -7.1725413203239E-02
(PID.TID 0000.0001) %MON forcing_empmr_mean           =  -3.2639488597255E-07
(PID.TID 0000.0001) %MON forcing_empmr_sd             =   3.1856419809416E-04
(PID.TID 0000.0001) %MON forcing_empmr_del2           =   3.5245349416319E-06
(PID.TID 0000.0001) %MON forcing_fu_max               =   1.0248902409914E+00
(PID.TID 0000.0001) %MON forcing_fu_min               =  -1.1640408635139E+00
(PID.TID 0000.0001) %MON forcing_fu_mean              =   9.5408452984676E-03
(PID.TID 0000.0001) %MON forcing_fu_sd                =   1.2636507770524E-01
(PID.TID 0000.0001) %MON forcing_fu_del2              =   1.6843675704418E-04
(PID.TID 0000.0001) %MON forcing_fv_max               =   1.1044796705246E+00
(PID.TID 0000.0001) %MON forcing_fv_min               =  -1.1280912160873E+00
(PID.TID 0000.0001) %MON forcing_fv_mean              =   1.7900326801435E-03
(PID.TID 0000.0001) %MON forcing_fv_sd                =   1.2441132475925E-01
(PID.TID 0000.0001) %MON forcing_fv_del2              =   1.6871684103987E-04
(PID.TID 0000.0001) %MON trAdv_CFL_u_max              =   1.9523463571113E-02
(PID.TID 0000.0001) %MON trAdv_CFL_v_max              =   2.0503156035720E-02
(PID.TID 0000.0001) %MON trAdv_CFL_w_max              =   8.7200922155126E-02
(PID.TID 0000.0001) %MON advcfl_uvel_max              =   1.9784617092669E-02
(PID.TID 0000.0001) %MON advcfl_vvel_max              =   2.0437087051497E-02
(PID.TID 0000.0001) %MON advcfl_wvel_max              =   8.2050416558232E-02
(PID.TID 0000.0001) %MON advcfl_W_hf_max              =   8.7200922155126E-02
(PID.TID 0000.0001) %MON pe_b_mean                    =   1.7074074946779E-03
(PID.TID 0000.0001) %MON ke_max                       =   2.1893401828890E+00
(PID.TID 0000.0001) %MON ke_mean                      =   4.1182507116990E-03
(PID.TID 0000.0001) %MON ke_vol                       =   1.3350064351420E+18
(PID.TID 0000.0001) %MON vort_r_min                   =  -7.1557983918395E-05
(PID.TID 0000.0001) %MON vort_r_max                   =   7.0028013621480E-05
(PID.TID 0000.0001) %MON vort_a_mean                  =  -1.9725075331270E-05
(PID.TID 0000.0001) %MON vort_a_sd                    =   7.4546210780232E-05
(PID.TID 0000.0001) %MON vort_p_mean                  =  -2.1669080138762E-05
(PID.TID 0000.0001) %MON vort_p_sd                    =   9.3621955555920E-05
(PID.TID 0000.0001) %MON surfExpan_theta_mean         =  -3.9410693918127E-05
(PID.TID 0000.0001) %MON surfExpan_salt_mean          =  -7.6152495251045E-05
(PID.TID 0000.0001) // =======================================================
(PID.TID 0000.0001) // End MONITOR dynamic field statistics
(PID.TID 0000.0001) // =======================================================
(PID.TID 0000.0001) // =======================================================
(PID.TID 0000.0001) // Begin MONITOR SEAICE statistics
(PID.TID 0000.0001) // =======================================================
(PID.TID 0000.0001) %MON seaice_tsnumber              =                174966
(PID.TID 0000.0001) %MON seaice_time_sec              =   7.8734700000000E+07
(PID.TID 0000.0001) %MON seaice_uice_max              =   1.2666203434407E+00
(PID.TID 0000.0001) %MON seaice_uice_min              =  -1.1844652642996E+00
(PID.TID 0000.0001) %MON seaice_uice_mean             =   8.0687181294961E-03
(PID.TID 0000.0001) %MON seaice_uice_sd               =   1.5185818435217E-01
(PID.TID 0000.0001) %MON seaice_uice_del2             =   4.1229524005382E-04
(PID.TID 0000.0001) %MON seaice_vice_max              =   1.3403358988964E+00
(PID.TID 0000.0001) %MON seaice_vice_min              =  -1.5646207851161E+00
(PID.TID 0000.0001) %MON seaice_vice_mean             =  -2.1211251460391E-02
(PID.TID 0000.0001) %MON seaice_vice_sd               =   1.7128204384984E-01
(PID.TID 0000.0001) %MON seaice_vice_del2             =   4.0166649937224E-04
(PID.TID 0000.0001) %MON seaice_area_max              =   1.0011541007034E+00
(PID.TID 0000.0001) %MON seaice_area_min              =   0.0000000000000E+00
(PID.TID 0000.0001) %MON seaice_area_mean             =   5.7902430649458E-02
(PID.TID 0000.0001) %MON seaice_area_sd               =   2.2079596988517E-01
(PID.TID 0000.0001) %MON seaice_area_del2             =   2.8348266459550E-04
(PID.TID 0000.0001) %MON seaice_heff_max              =   9.9470816924317E+00
(PID.TID 0000.0001) %MON seaice_heff_min              =   0.0000000000000E+00
(PID.TID 0000.0001) %MON seaice_heff_mean             =   1.4907481660248E-01
(PID.TID 0000.0001) %MON seaice_heff_sd               =   7.1844210126679E-01
(PID.TID 0000.0001) %MON seaice_heff_del2             =   1.2835421485437E-03
(PID.TID 0000.0001) %MON seaice_hsnow_max             =   3.2855406485813E+00
(PID.TID 0000.0001) %MON seaice_hsnow_min             =   0.0000000000000E+00
(PID.TID 0000.0001) %MON seaice_hsnow_mean            =   1.2542579393116E-02
(PID.TID 0000.0001) %MON seaice_hsnow_sd              =   6.6704316734024E-02
(PID.TID 0000.0001) %MON seaice_hsnow_del2            =   3.3439091490124E-04
(PID.TID 0000.0001) // =======================================================
(PID.TID 0000.0001) // End MONITOR SEAICE statistics
(PID.TID 0000.0001) // =======================================================
(PID.TID 0000.0001) // =======================================================
(PID.TID 0000.0001) // Begin MONITOR dynamic field statistics
(PID.TID 0000.0001) // =======================================================
(PID.TID 0000.0001) %MON time_tsnumber                =                174967
(PID.TID 0000.0001) %MON time_secondsf                =   7.8735150000000E+07
(PID.TID 0000.0001) %MON dynstat_eta_max              =   2.6950865806966E+00
(PID.TID 0000.0001) %MON dynstat_eta_min              =  -1.0540268752048E+01
(PID.TID 0000.0001) %MON dynstat_eta_mean             =   4.2372114869762E-02
(PID.TID 0000.0001) %MON dynstat_eta_sd               =   1.1313413036069E+00
(PID.TID 0000.0001) %MON dynstat_eta_del2             =   2.0127621340173E-03
(PID.TID 0000.0001) %MON dynstat_uvel_max             =   1.7307160579970E+00
(PID.TID 0000.0001) %MON dynstat_uvel_min             =  -2.2762454089594E+00
(PID.TID 0000.0001) %MON dynstat_uvel_mean            =   6.7616660820018E-03
(PID.TID 0000.0001) %MON dynstat_uvel_sd              =   6.3418171231413E-02
(PID.TID 0000.0001) %MON dynstat_uvel_del2            =   5.2976502523570E-05
(PID.TID 0000.0001) %MON dynstat_vvel_max             =   2.1482396850869E+00
(PID.TID 0000.0001) %MON dynstat_vvel_min             =  -1.5664915925984E+00
(PID.TID 0000.0001) %MON dynstat_vvel_mean            =   1.4351570816018E-03
(PID.TID 0000.0001) %MON dynstat_vvel_sd              =   6.7431980872552E-02
(PID.TID 0000.0001) %MON dynstat_vvel_del2            =   5.1768259890186E-05
(PID.TID 0000.0001) %MON dynstat_wvel_max             =   1.4837298263830E-02
(PID.TID 0000.0001) %MON dynstat_wvel_min             =  -1.2984661496267E-02
(PID.TID 0000.0001) %MON dynstat_wvel_mean            =  -1.0135269329884E-06
(PID.TID 0000.0001) %MON dynstat_wvel_sd              =   2.3238910558645E-04
(PID.TID 0000.0001) %MON dynstat_wvel_del2            =   4.5267643978400E-07
(PID.TID 0000.0001) %MON dynstat_theta_max            =   3.2339974850612E+01
(PID.TID 0000.0001) %MON dynstat_theta_min            =  -2.0227537647618E+00
(PID.TID 0000.0001) %MON dynstat_theta_mean           =   3.5919547688510E+00
(PID.TID 0000.0001) %MON dynstat_theta_sd             =   4.4418869393174E+00
(PID.TID 0000.0001) %MON dynstat_theta_del2           =   1.3355676154993E-04
(PID.TID 0000.0001) %MON dynstat_salt_max             =   4.0655989269596E+01
(PID.TID 0000.0001) %MON dynstat_salt_min             =   1.5890458733760E+01
(PID.TID 0000.0001) %MON dynstat_salt_mean            =   3.4724786609293E+01
(PID.TID 0000.0001) %MON dynstat_salt_sd              =   3.7983725499429E-01
(PID.TID 0000.0001) %MON dynstat_salt_del2            =   6.1341599221412E-05
(PID.TID 0000.0001) %MON dynstat_sst_max              =   3.2339974850612E+01
(PID.TID 0000.0001) %MON dynstat_sst_min              =  -2.0227537647618E+00
(PID.TID 0000.0001) %MON dynstat_sst_mean             =   1.8183883704514E+01
(PID.TID 0000.0001) %MON dynstat_sst_sd               =   1.0227026462858E+01
(PID.TID 0000.0001) %MON dynstat_sst_del2             =   1.0951921977143E-03
(PID.TID 0000.0001) %MON dynstat_sss_max              =   3.9465034386633E+01
(PID.TID 0000.0001) %MON dynstat_sss_min              =   1.5890458733760E+01
(PID.TID 0000.0001) %MON dynstat_sss_mean             =   3.4640016975287E+01
(PID.TID 0000.0001) %MON dynstat_sss_sd               =   1.3063543918582E+00
(PID.TID 0000.0001) %MON dynstat_sss_del2             =   1.4850921235702E-03
(PID.TID 0000.0001) %MON forcing_qnet_max             =   2.6265030232730E+03
(PID.TID 0000.0001) %MON forcing_qnet_min             =  -1.2478111832284E+03
(PID.TID 0000.0001) %MON forcing_qnet_mean            =  -3.6384362979260E+01
(PID.TID 0000.0001) %MON forcing_qnet_sd              =   2.2529787493423E+02
(PID.TID 0000.0001) %MON forcing_qnet_del2            =   4.2964297998800E-01
(PID.TID 0000.0001) %MON forcing_qsw_max              =   0.0000000000000E+00
(PID.TID 0000.0001) %MON forcing_qsw_min              =  -1.1125569508456E+02
(PID.TID 0000.0001) %MON forcing_qsw_mean             =  -2.4018023757540E+01
(PID.TID 0000.0001) %MON forcing_qsw_sd               =   3.3330809490578E+01
(PID.TID 0000.0001) %MON forcing_qsw_del2             =   2.2658769754764E-02
(PID.TID 0000.0001) %MON forcing_empmr_max            =   1.6297070309520E-02
(PID.TID 0000.0001) %MON forcing_empmr_min            =  -7.0009291172028E-02
(PID.TID 0000.0001) %MON forcing_empmr_mean           =  -6.4727921135937E-07
(PID.TID 0000.0001) %MON forcing_empmr_sd             =   3.1127986554777E-04
(PID.TID 0000.0001) %MON forcing_empmr_del2           =   3.4081951826371E-06
(PID.TID 0000.0001) %MON forcing_fu_max               =   1.0304955844891E+00
(PID.TID 0000.0001) %MON forcing_fu_min               =  -1.1641322773304E+00
(PID.TID 0000.0001) %MON forcing_fu_mean              =   9.5193773354719E-03
(PID.TID 0000.0001) %MON forcing_fu_sd                =   1.2639197467835E-01
(PID.TID 0000.0001) %MON forcing_fu_del2              =   1.6856321004253E-04
(PID.TID 0000.0001) %MON forcing_fv_max               =   1.1065614819527E+00
(PID.TID 0000.0001) %MON forcing_fv_min               =  -1.1327654719353E+00
(PID.TID 0000.0001) %MON forcing_fv_mean              =   1.8404661770991E-03
(PID.TID 0000.0001) %MON forcing_fv_sd                =   1.2448945800901E-01
(PID.TID 0000.0001) %MON forcing_fv_del2              =   1.6878566540076E-04
(PID.TID 0000.0001) %MON trAdv_CFL_u_max              =   1.9488744962414E-02
(PID.TID 0000.0001) %MON trAdv_CFL_v_max              =   2.0566794148224E-02
(PID.TID 0000.0001) %MON trAdv_CFL_w_max              =   8.6688157513405E-02
(PID.TID 0000.0001) %MON advcfl_uvel_max              =   1.9749434074216E-02
(PID.TID 0000.0001) %MON advcfl_vvel_max              =   2.0500520097744E-02
(PID.TID 0000.0001) %MON advcfl_wvel_max              =   8.1561118797843E-02
(PID.TID 0000.0001) %MON advcfl_W_hf_max              =   8.6688157513405E-02
(PID.TID 0000.0001) %MON pe_b_mean                    =   1.6874773325707E-03
(PID.TID 0000.0001) %MON ke_max                       =   2.1873934887332E+00
(PID.TID 0000.0001) %MON ke_mean                      =   4.1549164968263E-03
(PID.TID 0000.0001) %MON ke_vol                       =   1.3350064351420E+18
(PID.TID 0000.0001) %MON vort_r_min                   =  -7.1519419378268E-05
(PID.TID 0000.0001) %MON vort_r_max                   =   6.9907387547291E-05
(PID.TID 0000.0001) %MON vort_a_mean                  =  -1.9725075273014E-05
(PID.TID 0000.0001) %MON vort_a_sd                    =   7.4546275556256E-05
(PID.TID 0000.0001) %MON vort_p_mean                  =  -2.1669080074763E-05
(PID.TID 0000.0001) %MON vort_p_sd                    =   9.3621955332198E-05
(PID.TID 0000.0001) %MON surfExpan_theta_mean         =  -3.8441941421385E-05
(PID.TID 0000.0001) %MON surfExpan_salt_mean          =  -7.5787631796967E-05
(PID.TID 0000.0001) // =======================================================
(PID.TID 0000.0001) // End MONITOR dynamic field statistics
(PID.TID 0000.0001) // =======================================================
(PID.TID 0000.0001) // =======================================================
(PID.TID 0000.0001) // Begin MONITOR SEAICE statistics
(PID.TID 0000.0001) // =======================================================
(PID.TID 0000.0001) %MON seaice_tsnumber              =                174967
(PID.TID 0000.0001) %MON seaice_time_sec              =   7.8735150000000E+07
(PID.TID 0000.0001) %MON seaice_uice_max              =   1.2656015509723E+00
(PID.TID 0000.0001) %MON seaice_uice_min              =  -1.1879681678213E+00
(PID.TID 0000.0001) %MON seaice_uice_mean             =   8.0252509226287E-03
(PID.TID 0000.0001) %MON seaice_uice_sd               =   1.5196438928934E-01
(PID.TID 0000.0001) %MON seaice_uice_del2             =   4.1277639942453E-04
(PID.TID 0000.0001) %MON seaice_vice_max              =   1.3390582115515E+00
(PID.TID 0000.0001) %MON seaice_vice_min              =  -1.5655589798008E+00
(PID.TID 0000.0001) %MON seaice_vice_mean             =  -2.1143907152019E-02
(PID.TID 0000.0001) %MON seaice_vice_sd               =   1.7155058743239E-01
(PID.TID 0000.0001) %MON seaice_vice_del2             =   4.0215800506906E-04
(PID.TID 0000.0001) %MON seaice_area_max              =   1.0011753717145E+00
(PID.TID 0000.0001) %MON seaice_area_min              =   0.0000000000000E+00
(PID.TID 0000.0001) %MON seaice_area_mean             =   5.7906828490958E-02
(PID.TID 0000.0001) %MON seaice_area_sd               =   2.2079720388467E-01
(PID.TID 0000.0001) %MON seaice_area_del2             =   2.8351794538131E-04
(PID.TID 0000.0001) %MON seaice_heff_max              =   9.9470788412372E+00
(PID.TID 0000.0001) %MON seaice_heff_min              =   0.0000000000000E+00
(PID.TID 0000.0001) %MON seaice_heff_mean             =   1.4907174135502E-01
(PID.TID 0000.0001) %MON seaice_heff_sd               =   7.1842983667198E-01
(PID.TID 0000.0001) %MON seaice_heff_del2             =   1.2830735243989E-03
(PID.TID 0000.0001) %MON seaice_hsnow_max             =   3.2855396500877E+00
(PID.TID 0000.0001) %MON seaice_hsnow_min             =   0.0000000000000E+00
(PID.TID 0000.0001) %MON seaice_hsnow_mean            =   1.2542082626073E-02
(PID.TID 0000.0001) %MON seaice_hsnow_sd              =   6.6694384468976E-02
(PID.TID 0000.0001) %MON seaice_hsnow_del2            =   3.3415090302332E-04
(PID.TID 0000.0001) // =======================================================
(PID.TID 0000.0001) // End MONITOR SEAICE statistics
(PID.TID 0000.0001) // =======================================================
(PID.TID 0000.0001) // =======================================================
(PID.TID 0000.0001) // Begin MONITOR dynamic field statistics
(PID.TID 0000.0001) // =======================================================
(PID.TID 0000.0001) %MON time_tsnumber                =                174968
(PID.TID 0000.0001) %MON time_secondsf                =   7.8735600000000E+07
(PID.TID 0000.0001) %MON dynstat_eta_max              =   2.6735728322370E+00
(PID.TID 0000.0001) %MON dynstat_eta_min              =  -1.0534699308666E+01
(PID.TID 0000.0001) %MON dynstat_eta_mean             =   4.1422568008362E-02
(PID.TID 0000.0001) %MON dynstat_eta_sd               =   1.1337167935961E+00
(PID.TID 0000.0001) %MON dynstat_eta_del2             =   2.0127909641717E-03
(PID.TID 0000.0001) %MON dynstat_uvel_max             =   1.7361576599663E+00
(PID.TID 0000.0001) %MON dynstat_uvel_min             =  -2.2720391851451E+00
(PID.TID 0000.0001) %MON dynstat_uvel_mean            =   6.7402811622694E-03
(PID.TID 0000.0001) %MON dynstat_uvel_sd              =   6.3696112671117E-02
(PID.TID 0000.0001) %MON dynstat_uvel_del2            =   5.3114951922789E-05
(PID.TID 0000.0001) %MON dynstat_vvel_max             =   2.1517819391062E+00
(PID.TID 0000.0001) %MON dynstat_vvel_min             =  -1.5674099896044E+00
(PID.TID 0000.0001) %MON dynstat_vvel_mean            =   1.4424019448420E-03
(PID.TID 0000.0001) %MON dynstat_vvel_sd              =   6.7738452798944E-02
(PID.TID 0000.0001) %MON dynstat_vvel_del2            =   5.1906412439218E-05
(PID.TID 0000.0001) %MON dynstat_wvel_max             =   1.4867527563339E-02
(PID.TID 0000.0001) %MON dynstat_wvel_min             =  -1.3034166654904E-02
(PID.TID 0000.0001) %MON dynstat_wvel_mean            =  -1.0063858109484E-06
(PID.TID 0000.0001) %MON dynstat_wvel_sd              =   2.3301424127551E-04
(PID.TID 0000.0001) %MON dynstat_wvel_del2            =   4.5350246843972E-07
(PID.TID 0000.0001) %MON dynstat_theta_max            =   3.2339341640608E+01
(PID.TID 0000.0001) %MON dynstat_theta_min            =  -2.0227303648582E+00
(PID.TID 0000.0001) %MON dynstat_theta_mean           =   3.5919602512573E+00
(PID.TID 0000.0001) %MON dynstat_theta_sd             =   4.4419031902100E+00
(PID.TID 0000.0001) %MON dynstat_theta_del2           =   1.3362937637050E-04
(PID.TID 0000.0001) %MON dynstat_salt_max             =   4.0655989269381E+01
(PID.TID 0000.0001) %MON dynstat_salt_min             =   1.5889830325251E+01
(PID.TID 0000.0001) %MON dynstat_salt_mean            =   3.4724786889632E+01
(PID.TID 0000.0001) %MON dynstat_salt_sd              =   3.7983862201953E-01
(PID.TID 0000.0001) %MON dynstat_salt_del2            =   6.1322523989011E-05
(PID.TID 0000.0001) %MON dynstat_sst_max              =   3.2339341640608E+01
(PID.TID 0000.0001) %MON dynstat_sst_min              =  -2.0227303648582E+00
(PID.TID 0000.0001) %MON dynstat_sst_mean             =   1.8184117802058E+01
(PID.TID 0000.0001) %MON dynstat_sst_sd               =   1.0227458338661E+01
(PID.TID 0000.0001) %MON dynstat_sst_del2             =   1.0951114773461E-03
(PID.TID 0000.0001) %MON dynstat_sss_max              =   3.9464904616587E+01
(PID.TID 0000.0001) %MON dynstat_sss_min              =   1.5889830325251E+01
(PID.TID 0000.0001) %MON dynstat_sss_mean             =   3.4640006021979E+01
(PID.TID 0000.0001) %MON dynstat_sss_sd               =   1.3063801172897E+00
(PID.TID 0000.0001) %MON dynstat_sss_del2             =   1.4849586559165E-03
(PID.TID 0000.0001) %MON forcing_qnet_max             =   1.7091143985213E+03
(PID.TID 0000.0001) %MON forcing_qnet_min             =  -1.0724120432892E+03
(PID.TID 0000.0001) %MON forcing_qnet_mean            =  -3.6221957559120E+01
(PID.TID 0000.0001) %MON forcing_qnet_sd              =   2.2459828140443E+02
(PID.TID 0000.0001) %MON forcing_qnet_del2            =   4.2230400160114E-01
(PID.TID 0000.0001) %MON forcing_qsw_max              =   0.0000000000000E+00
(PID.TID 0000.0001) %MON forcing_qsw_min              =  -1.1106526425748E+02
(PID.TID 0000.0001) %MON forcing_qsw_mean             =  -2.3952032291635E+01
(PID.TID 0000.0001) %MON forcing_qsw_sd               =   3.3302902859585E+01
(PID.TID 0000.0001) %MON forcing_qsw_del2             =   2.2792799831347E-02
(PID.TID 0000.0001) %MON forcing_empmr_max            =   1.7006427049637E-02
(PID.TID 0000.0001) %MON forcing_empmr_min            =  -6.3629910349846E-02
(PID.TID 0000.0001) %MON forcing_empmr_mean           =  -3.0152836572622E-07
(PID.TID 0000.0001) %MON forcing_empmr_sd             =   3.0378232895561E-04
(PID.TID 0000.0001) %MON forcing_empmr_del2           =   3.3330966285454E-06
(PID.TID 0000.0001) %MON forcing_fu_max               =   1.0319458670404E+00
(PID.TID 0000.0001) %MON forcing_fu_min               =  -1.1670899987221E+00
(PID.TID 0000.0001) %MON forcing_fu_mean              =   9.4856057168300E-03
(PID.TID 0000.0001) %MON forcing_fu_sd                =   1.2640805668563E-01
(PID.TID 0000.0001) %MON forcing_fu_del2              =   1.6872226957584E-04
(PID.TID 0000.0001) %MON forcing_fv_max               =   1.1054099798203E+00
(PID.TID 0000.0001) %MON forcing_fv_min               =  -1.1375874280930E+00
(PID.TID 0000.0001) %MON forcing_fv_mean              =   1.8910829220505E-03
(PID.TID 0000.0001) %MON forcing_fv_sd                =   1.2455571217271E-01
(PID.TID 0000.0001) %MON forcing_fv_del2              =   1.6870372574156E-04
(PID.TID 0000.0001) %MON trAdv_CFL_u_max              =   1.9454491905930E-02
(PID.TID 0000.0001) %MON trAdv_CFL_v_max              =   2.0628350955169E-02
(PID.TID 0000.0001) %MON trAdv_CFL_w_max              =   8.6200158552744E-02
(PID.TID 0000.0001) %MON advcfl_uvel_max              =   1.9714722835387E-02
(PID.TID 0000.0001) %MON advcfl_vvel_max              =   2.0561878545192E-02
(PID.TID 0000.0001) %MON advcfl_wvel_max              =   8.1096188499573E-02
(PID.TID 0000.0001) %MON advcfl_W_hf_max              =   8.6200158552744E-02
(PID.TID 0000.0001) %MON pe_b_mean                    =   1.6677727708529E-03
(PID.TID 0000.0001) %MON ke_max                       =   2.1852525562917E+00
(PID.TID 0000.0001) %MON ke_mean                      =   4.1917987371585E-03
(PID.TID 0000.0001) %MON ke_vol                       =   1.3350064351420E+18
(PID.TID 0000.0001) %MON vort_r_min                   =  -7.1478554289411E-05
(PID.TID 0000.0001) %MON vort_r_max                   =   6.9789336369871E-05
(PID.TID 0000.0001) %MON vort_a_mean                  =  -1.9725075222932E-05
(PID.TID 0000.0001) %MON vort_a_sd                    =   7.4546340224618E-05
(PID.TID 0000.0001) %MON vort_p_mean                  =  -2.1669080019746E-05
(PID.TID 0000.0001) %MON vort_p_sd                    =   9.3621953402967E-05
(PID.TID 0000.0001) %MON surfExpan_theta_mean         =  -3.7402008120643E-05
(PID.TID 0000.0001) %MON surfExpan_salt_mean          =  -7.5423116414507E-05
(PID.TID 0000.0001) // =======================================================
(PID.TID 0000.0001) // End MONITOR dynamic field statistics
(PID.TID 0000.0001) // =======================================================
(PID.TID 0000.0001) // =======================================================
(PID.TID 0000.0001) // Begin MONITOR SEAICE statistics
(PID.TID 0000.0001) // =======================================================
(PID.TID 0000.0001) %MON seaice_tsnumber              =                174968
(PID.TID 0000.0001) %MON seaice_time_sec              =   7.8735600000000E+07
(PID.TID 0000.0001) %MON seaice_uice_max              =   1.2644866059525E+00
(PID.TID 0000.0001) %MON seaice_uice_min              =  -1.1914456742578E+00
(PID.TID 0000.0001) %MON seaice_uice_mean             =   7.9745309859248E-03
(PID.TID 0000.0001) %MON seaice_uice_sd               =   1.5206824230321E-01
(PID.TID 0000.0001) %MON seaice_uice_del2             =   4.1320222142287E-04
(PID.TID 0000.0001) %MON seaice_vice_max              =   1.3368575666808E+00
(PID.TID 0000.0001) %MON seaice_vice_min              =  -1.5664915925984E+00
(PID.TID 0000.0001) %MON seaice_vice_mean             =  -2.1071117063945E-02
(PID.TID 0000.0001) %MON seaice_vice_sd               =   1.7181925852549E-01
(PID.TID 0000.0001) %MON seaice_vice_del2             =   4.0263303733722E-04
(PID.TID 0000.0001) %MON seaice_area_max              =   1.0011974673498E+00
(PID.TID 0000.0001) %MON seaice_area_min              =   0.0000000000000E+00
(PID.TID 0000.0001) %MON seaice_area_mean             =   5.7911229401772E-02
(PID.TID 0000.0001) %MON seaice_area_sd               =   2.2079845714094E-01
(PID.TID 0000.0001) %MON seaice_area_del2             =   2.8355306217813E-04
(PID.TID 0000.0001) %MON seaice_heff_max              =   9.9470759898445E+00
(PID.TID 0000.0001) %MON seaice_heff_min              =   0.0000000000000E+00
(PID.TID 0000.0001) %MON seaice_heff_mean             =   1.4906866515623E-01
(PID.TID 0000.0001) %MON seaice_heff_sd               =   7.1841761267888E-01
(PID.TID 0000.0001) %MON seaice_heff_del2             =   1.2826094117561E-03
(PID.TID 0000.0001) %MON seaice_hsnow_max             =   3.2855384104000E+00
(PID.TID 0000.0001) %MON seaice_hsnow_min             =   0.0000000000000E+00
(PID.TID 0000.0001) %MON seaice_hsnow_mean            =   1.2541585981728E-02
(PID.TID 0000.0001) %MON seaice_hsnow_sd              =   6.6684472723313E-02
(PID.TID 0000.0001) %MON seaice_hsnow_del2            =   3.3391203563143E-04
(PID.TID 0000.0001) // =======================================================
(PID.TID 0000.0001) // End MONITOR SEAICE statistics
(PID.TID 0000.0001) // =======================================================
(PID.TID 0000.0001) // =======================================================
(PID.TID 0000.0001) // Begin MONITOR dynamic field statistics
(PID.TID 0000.0001) // =======================================================
(PID.TID 0000.0001) %MON time_tsnumber                =                174969
(PID.TID 0000.0001) %MON time_secondsf                =   7.8736050000000E+07
(PID.TID 0000.0001) %MON dynstat_eta_max              =   2.6708934079761E+00
(PID.TID 0000.0001) %MON dynstat_eta_min              =  -1.0528141352322E+01
(PID.TID 0000.0001) %MON dynstat_eta_mean             =   4.0477337586106E-02
(PID.TID 0000.0001) %MON dynstat_eta_sd               =   1.1361216864929E+00
(PID.TID 0000.0001) %MON dynstat_eta_del2             =   2.0128218485615E-03
(PID.TID 0000.0001) %MON dynstat_uvel_max             =   1.7414383574808E+00
(PID.TID 0000.0001) %MON dynstat_uvel_min             =  -2.2677043671433E+00
(PID.TID 0000.0001) %MON dynstat_uvel_mean            =   6.7182996630596E-03
(PID.TID 0000.0001) %MON dynstat_uvel_sd              =   6.3975128824361E-02
(PID.TID 0000.0001) %MON dynstat_uvel_del2            =   5.3253457486281E-05
(PID.TID 0000.0001) %MON dynstat_vvel_max             =   2.1552412720300E+00
(PID.TID 0000.0001) %MON dynstat_vvel_min             =  -1.5683160741447E+00
(PID.TID 0000.0001) %MON dynstat_vvel_mean            =   1.4497667526392E-03
(PID.TID 0000.0001) %MON dynstat_vvel_sd              =   6.8044843640739E-02
(PID.TID 0000.0001) %MON dynstat_vvel_del2            =   5.2044442883624E-05
(PID.TID 0000.0001) %MON dynstat_wvel_max             =   1.4896923789398E-02
(PID.TID 0000.0001) %MON dynstat_wvel_min             =  -1.3083016302832E-02
(PID.TID 0000.0001) %MON dynstat_wvel_mean            =  -9.9898936164219E-07
(PID.TID 0000.0001) %MON dynstat_wvel_sd              =   2.3363949287633E-04
(PID.TID 0000.0001) %MON dynstat_wvel_del2            =   4.5432869820123E-07
(PID.TID 0000.0001) %MON dynstat_theta_max            =   3.2338728585357E+01
(PID.TID 0000.0001) %MON dynstat_theta_min            =  -2.0227059042847E+00
(PID.TID 0000.0001) %MON dynstat_theta_mean           =   3.5919656035728E+00
(PID.TID 0000.0001) %MON dynstat_theta_sd             =   4.4419191706535E+00
(PID.TID 0000.0001) %MON dynstat_theta_del2           =   1.3370181963705E-04
(PID.TID 0000.0001) %MON dynstat_salt_max             =   4.0655989269165E+01
(PID.TID 0000.0001) %MON dynstat_salt_min             =   1.5889216517947E+01
(PID.TID 0000.0001) %MON dynstat_salt_mean            =   3.4724787167561E+01
(PID.TID 0000.0001) %MON dynstat_salt_sd              =   3.7983999074527E-01
(PID.TID 0000.0001) %MON dynstat_salt_del2            =   6.1300782957808E-05
(PID.TID 0000.0001) %MON dynstat_sst_max              =   3.2338728585357E+01
(PID.TID 0000.0001) %MON dynstat_sst_min              =  -2.0227059042847E+00
(PID.TID 0000.0001) %MON dynstat_sst_mean             =   1.8184346081853E+01
(PID.TID 0000.0001) %MON dynstat_sst_sd               =   1.0227889714590E+01
(PID.TID 0000.0001) %MON dynstat_sst_del2             =   1.0949437457056E-03
(PID.TID 0000.0001) %MON dynstat_sss_max              =   3.9464810738673E+01
(PID.TID 0000.0001) %MON dynstat_sss_min              =   1.5889216517947E+01
(PID.TID 0000.0001) %MON dynstat_sss_mean             =   3.4639995325204E+01
(PID.TID 0000.0001) %MON dynstat_sss_sd               =   1.3064053556045E+00
(PID.TID 0000.0001) %MON dynstat_sss_del2             =   1.4846562787553E-03
(PID.TID 0000.0001) %MON forcing_qnet_max             =   1.8140969238281E+03
(PID.TID 0000.0001) %MON forcing_qnet_min             =  -1.2999300892999E+03
(PID.TID 0000.0001) %MON forcing_qnet_mean            =  -3.5883562069759E+01
(PID.TID 0000.0001) %MON forcing_qnet_sd              =   2.2414878157426E+02
(PID.TID 0000.0001) %MON forcing_qnet_del2            =   4.1993063479886E-01
(PID.TID 0000.0001) %MON forcing_qsw_max              =   0.0000000000000E+00
(PID.TID 0000.0001) %MON forcing_qsw_min              =  -1.1120601520893E+02
(PID.TID 0000.0001) %MON forcing_qsw_mean             =  -2.3869404627949E+01
(PID.TID 0000.0001) %MON forcing_qsw_sd               =   3.3258831043852E+01
(PID.TID 0000.0001) %MON forcing_qsw_del2             =   2.2919394326572E-02
(PID.TID 0000.0001) %MON forcing_empmr_max            =   1.7811406403780E-02
(PID.TID 0000.0001) %MON forcing_empmr_min            =  -5.9023737907410E-02
(PID.TID 0000.0001) %MON forcing_empmr_mean           =  -2.0290291140857E-07
(PID.TID 0000.0001) %MON forcing_empmr_sd             =   2.9623716555188E-04
(PID.TID 0000.0001) %MON forcing_empmr_del2           =   3.2864053790971E-06
(PID.TID 0000.0001) %MON forcing_fu_max               =   1.0325472100888E+00
(PID.TID 0000.0001) %MON forcing_fu_min               =  -1.1670283079147E+00
(PID.TID 0000.0001) %MON forcing_fu_mean              =   9.4622362383912E-03
(PID.TID 0000.0001) %MON forcing_fu_sd                =   1.2642752581846E-01
(PID.TID 0000.0001) %MON forcing_fu_del2              =   1.6877642629530E-04
(PID.TID 0000.0001) %MON forcing_fv_max               =   1.1061777472496E+00
(PID.TID 0000.0001) %MON forcing_fv_min               =  -1.1382885575294E+00
(PID.TID 0000.0001) %MON forcing_fv_mean              =   1.9297793629802E-03
(PID.TID 0000.0001) %MON forcing_fv_sd                =   1.2458963398758E-01
(PID.TID 0000.0001) %MON forcing_fv_del2              =   1.6859617964411E-04
(PID.TID 0000.0001) %MON trAdv_CFL_u_max              =   1.9420625974116E-02
(PID.TID 0000.0001) %MON trAdv_CFL_v_max              =   2.0687646433359E-02
(PID.TID 0000.0001) %MON trAdv_CFL_w_max              =   8.5738864667032E-02
(PID.TID 0000.0001) %MON advcfl_uvel_max              =   1.9680403899559E-02
(PID.TID 0000.0001) %MON advcfl_vvel_max              =   2.0620982950749E-02
(PID.TID 0000.0001) %MON advcfl_wvel_max              =   8.0657389490756E-02
(PID.TID 0000.0001) %MON advcfl_W_hf_max              =   8.5738864667032E-02
(PID.TID 0000.0001) %MON pe_b_mean                    =   1.6482917672305E-03
(PID.TID 0000.0001) %MON ke_max                       =   2.1829250042651E+00
(PID.TID 0000.0001) %MON ke_mean                      =   4.2289038269067E-03
(PID.TID 0000.0001) %MON ke_vol                       =   1.3350064351420E+18
(PID.TID 0000.0001) %MON vort_r_min                   =  -7.1435398917486E-05
(PID.TID 0000.0001) %MON vort_r_max                   =   6.9673526323892E-05
(PID.TID 0000.0001) %MON vort_a_mean                  =  -1.9725075181104E-05
(PID.TID 0000.0001) %MON vort_a_sd                    =   7.4546404786489E-05
(PID.TID 0000.0001) %MON vort_p_mean                  =  -2.1669079973795E-05
(PID.TID 0000.0001) %MON vort_p_sd                    =   9.3621949756820E-05
(PID.TID 0000.0001) %MON surfExpan_theta_mean         =  -3.6306448663518E-05
(PID.TID 0000.0001) %MON surfExpan_salt_mean          =  -7.5059344152934E-05
(PID.TID 0000.0001) // =======================================================
(PID.TID 0000.0001) // End MONITOR dynamic field statistics
(PID.TID 0000.0001) // =======================================================
(PID.TID 0000.0001) // =======================================================
(PID.TID 0000.0001) // Begin MONITOR SEAICE statistics
(PID.TID 0000.0001) // =======================================================
(PID.TID 0000.0001) %MON seaice_tsnumber              =                174969
(PID.TID 0000.0001) %MON seaice_time_sec              =   7.8736050000000E+07
(PID.TID 0000.0001) %MON seaice_uice_max              =   1.2632612258832E+00
(PID.TID 0000.0001) %MON seaice_uice_min              =  -1.1948538147337E+00
(PID.TID 0000.0001) %MON seaice_uice_mean             =   7.9230572783111E-03
(PID.TID 0000.0001) %MON seaice_uice_sd               =   1.5217926213816E-01
(PID.TID 0000.0001) %MON seaice_uice_del2             =   4.1371315014739E-04
(PID.TID 0000.0001) %MON seaice_vice_max              =   1.3337178761185E+00
(PID.TID 0000.0001) %MON seaice_vice_min              =  -1.5674099896044E+00
(PID.TID 0000.0001) %MON seaice_vice_mean             =  -2.0997299424285E-02
(PID.TID 0000.0001) %MON seaice_vice_sd               =   1.7208739911203E-01
(PID.TID 0000.0001) %MON seaice_vice_del2             =   4.0310479313842E-04
(PID.TID 0000.0001) %MON seaice_area_max              =   1.0012184433434E+00
(PID.TID 0000.0001) %MON seaice_area_min              =   0.0000000000000E+00
(PID.TID 0000.0001) %MON seaice_area_mean             =   5.7915630775602E-02
(PID.TID 0000.0001) %MON seaice_area_sd               =   2.2079972009352E-01
(PID.TID 0000.0001) %MON seaice_area_del2             =   2.8358781509492E-04
(PID.TID 0000.0001) %MON seaice_heff_max              =   9.9470750456882E+00
(PID.TID 0000.0001) %MON seaice_heff_min              =   0.0000000000000E+00
(PID.TID 0000.0001) %MON seaice_heff_mean             =   1.4906559022039E-01
(PID.TID 0000.0001) %MON seaice_heff_sd               =   7.1840542548952E-01
(PID.TID 0000.0001) %MON seaice_heff_del2             =   1.2821489972094E-03
(PID.TID 0000.0001) %MON seaice_hsnow_max             =   3.2855381482817E+00
(PID.TID 0000.0001) %MON seaice_hsnow_min             =   0.0000000000000E+00
(PID.TID 0000.0001) %MON seaice_hsnow_mean            =   1.2541081580792E-02
(PID.TID 0000.0001) %MON seaice_hsnow_sd              =   6.6674551167916E-02
(PID.TID 0000.0001) %MON seaice_hsnow_del2            =   3.3367410984214E-04
(PID.TID 0000.0001) // =======================================================
(PID.TID 0000.0001) // End MONITOR SEAICE statistics
(PID.TID 0000.0001) // =======================================================
(PID.TID 0000.0001) // =======================================================
(PID.TID 0000.0001) // Begin MONITOR dynamic field statistics
(PID.TID 0000.0001) // =======================================================
(PID.TID 0000.0001) %MON time_tsnumber                =                174970
(PID.TID 0000.0001) %MON time_secondsf                =   7.8736500000000E+07
(PID.TID 0000.0001) %MON dynstat_eta_max              =   2.6608205614920E+00
(PID.TID 0000.0001) %MON dynstat_eta_min              =  -1.0520752884652E+01
(PID.TID 0000.0001) %MON dynstat_eta_mean             =   3.9536429886235E-02
(PID.TID 0000.0001) %MON dynstat_eta_sd               =   1.1385550588038E+00
(PID.TID 0000.0001) %MON dynstat_eta_del2             =   2.0128551949640E-03
(PID.TID 0000.0001) %MON dynstat_uvel_max             =   1.7465595403410E+00
(PID.TID 0000.0001) %MON dynstat_uvel_min             =  -2.2632429650797E+00
(PID.TID 0000.0001) %MON dynstat_uvel_mean            =   6.6958526643920E-03
(PID.TID 0000.0001) %MON dynstat_uvel_sd              =   6.4255235148369E-02
(PID.TID 0000.0001) %MON dynstat_uvel_del2            =   5.3391974409577E-05
(PID.TID 0000.0001) %MON dynstat_vvel_max             =   2.1586199615653E+00
(PID.TID 0000.0001) %MON dynstat_vvel_min             =  -1.5692041271947E+00
(PID.TID 0000.0001) %MON dynstat_vvel_mean            =   1.4572119610595E-03
(PID.TID 0000.0001) %MON dynstat_vvel_sd              =   6.8351220190774E-02
(PID.TID 0000.0001) %MON dynstat_vvel_del2            =   5.2182376702319E-05
(PID.TID 0000.0001) %MON dynstat_wvel_max             =   1.4925511096769E-02
(PID.TID 0000.0001) %MON dynstat_wvel_min             =  -1.3131203916035E-02
(PID.TID 0000.0001) %MON dynstat_wvel_mean            =  -9.9119637816257E-07
(PID.TID 0000.0001) %MON dynstat_wvel_sd              =   2.3426516101706E-04
(PID.TID 0000.0001) %MON dynstat_wvel_del2            =   4.5515528826656E-07
(PID.TID 0000.0001) %MON dynstat_theta_max            =   3.2338132206483E+01
(PID.TID 0000.0001) %MON dynstat_theta_min            =  -2.0226803835059E+00
(PID.TID 0000.0001) %MON dynstat_theta_mean           =   3.5919708143818E+00
(PID.TID 0000.0001) %MON dynstat_theta_sd             =   4.4419348385003E+00
(PID.TID 0000.0001) %MON dynstat_theta_del2           =   1.3377495967235E-04
(PID.TID 0000.0001) %MON dynstat_salt_max             =   4.0655989268950E+01
(PID.TID 0000.0001) %MON dynstat_salt_min             =   1.5888619599898E+01
(PID.TID 0000.0001) %MON dynstat_salt_mean            =   3.4724787442155E+01
(PID.TID 0000.0001) %MON dynstat_salt_sd              =   3.7984138202430E-01
(PID.TID 0000.0001) %MON dynstat_salt_del2            =   6.1281196199508E-05
(PID.TID 0000.0001) %MON dynstat_sst_max              =   3.2338132206483E+01
(PID.TID 0000.0001) %MON dynstat_sst_min              =  -2.0226803835059E+00
(PID.TID 0000.0001) %MON dynstat_sst_mean             =   1.8184567819439E+01
(PID.TID 0000.0001) %MON dynstat_sst_sd               =   1.0228319767180E+01
(PID.TID 0000.0001) %MON dynstat_sst_del2             =   1.0948352475247E-03
(PID.TID 0000.0001) %MON dynstat_sss_max              =   3.9464715310395E+01
(PID.TID 0000.0001) %MON dynstat_sss_min              =   1.5888619599898E+01
(PID.TID 0000.0001) %MON dynstat_sss_mean             =   3.4639985474829E+01
(PID.TID 0000.0001) %MON dynstat_sss_sd               =   1.3064316036582E+00
(PID.TID 0000.0001) %MON dynstat_sss_del2             =   1.4844692580396E-03
(PID.TID 0000.0001) %MON forcing_qnet_max             =   1.8499229736328E+03
(PID.TID 0000.0001) %MON forcing_qnet_min             =  -1.5765982666016E+03
(PID.TID 0000.0001) %MON forcing_qnet_mean            =  -3.5358145953730E+01
(PID.TID 0000.0001) %MON forcing_qnet_sd              =   2.2355663426749E+02
(PID.TID 0000.0001) %MON forcing_qnet_del2            =   4.3269386148223E-01
(PID.TID 0000.0001) %MON forcing_qsw_max              =   0.0000000000000E+00
(PID.TID 0000.0001) %MON forcing_qsw_min              =  -1.1152150145695E+02
(PID.TID 0000.0001) %MON forcing_qsw_mean             =  -2.3770687349214E+01
(PID.TID 0000.0001) %MON forcing_qsw_sd               =   3.3198402323817E+01
(PID.TID 0000.0001) %MON forcing_qsw_del2             =   2.3038060637645E-02
(PID.TID 0000.0001) %MON forcing_empmr_max            =   3.1981948763132E-02
(PID.TID 0000.0001) %MON forcing_empmr_min            =  -5.4913517087698E-02
(PID.TID 0000.0001) %MON forcing_empmr_mean           =  -1.0042514486886E-08
(PID.TID 0000.0001) %MON forcing_empmr_sd             =   2.9909821234343E-04
(PID.TID 0000.0001) %MON forcing_empmr_del2           =   3.3166212396369E-06
(PID.TID 0000.0001) %MON forcing_fu_max               =   1.0414226160556E+00
(PID.TID 0000.0001) %MON forcing_fu_min               =  -1.1663873416112E+00
(PID.TID 0000.0001) %MON forcing_fu_mean              =   9.4483731850956E-03
(PID.TID 0000.0001) %MON forcing_fu_sd                =   1.2644986516872E-01
(PID.TID 0000.0001) %MON forcing_fu_del2              =   1.6894006002962E-04
(PID.TID 0000.0001) %MON forcing_fv_max               =   1.1060071587563E+00
(PID.TID 0000.0001) %MON forcing_fv_min               =  -1.1388552784920E+00
(PID.TID 0000.0001) %MON forcing_fv_mean              =   1.9693503281678E-03
(PID.TID 0000.0001) %MON forcing_fv_sd                =   1.2462190865927E-01
(PID.TID 0000.0001) %MON forcing_fv_del2              =   1.6861061711038E-04
(PID.TID 0000.0001) %MON trAdv_CFL_u_max              =   1.9387125133767E-02
(PID.TID 0000.0001) %MON trAdv_CFL_v_max              =   2.0744523002609E-02
(PID.TID 0000.0001) %MON trAdv_CFL_w_max              =   8.5305166341275E-02
(PID.TID 0000.0001) %MON advcfl_uvel_max              =   1.9646454938804E-02
(PID.TID 0000.0001) %MON advcfl_vvel_max              =   2.0677676242013E-02
(PID.TID 0000.0001) %MON advcfl_wvel_max              =   8.0245390518367E-02
(PID.TID 0000.0001) %MON advcfl_W_hf_max              =   8.5305166341275E-02
(PID.TID 0000.0001) %MON pe_b_mean                    =   1.6290310672930E-03
(PID.TID 0000.0001) %MON ke_max                       =   2.1804139008621E+00
(PID.TID 0000.0001) %MON ke_mean                      =   4.2662387540467E-03
(PID.TID 0000.0001) %MON ke_vol                       =   1.3350064351420E+18
(PID.TID 0000.0001) %MON vort_r_min                   =  -7.1389971029495E-05
(PID.TID 0000.0001) %MON vort_r_max                   =   6.9559742916237E-05
(PID.TID 0000.0001) %MON vort_a_mean                  =  -1.9725075148039E-05
(PID.TID 0000.0001) %MON vort_a_sd                    =   7.4546469248570E-05
(PID.TID 0000.0001) %MON vort_p_mean                  =  -2.1669079937472E-05
(PID.TID 0000.0001) %MON vort_p_sd                    =   9.3621944344738E-05
(PID.TID 0000.0001) %MON surfExpan_theta_mean         =  -3.5156104094940E-05
(PID.TID 0000.0001) %MON surfExpan_salt_mean          =  -7.4687013083828E-05
(PID.TID 0000.0001) // =======================================================
(PID.TID 0000.0001) // End MONITOR dynamic field statistics
(PID.TID 0000.0001) // =======================================================
(PID.TID 0000.0001) // =======================================================
(PID.TID 0000.0001) // Begin MONITOR SEAICE statistics
(PID.TID 0000.0001) // =======================================================
(PID.TID 0000.0001) %MON seaice_tsnumber              =                174970
(PID.TID 0000.0001) %MON seaice_time_sec              =   7.8736500000000E+07
(PID.TID 0000.0001) %MON seaice_uice_max              =   1.2619787379168E+00
(PID.TID 0000.0001) %MON seaice_uice_min              =  -1.1981485041246E+00
(PID.TID 0000.0001) %MON seaice_uice_mean             =   7.8674539859456E-03
(PID.TID 0000.0001) %MON seaice_uice_sd               =   1.5229278937704E-01
(PID.TID 0000.0001) %MON seaice_uice_del2             =   4.1421283116255E-04
(PID.TID 0000.0001) %MON seaice_vice_max              =   1.3297387066600E+00
(PID.TID 0000.0001) %MON seaice_vice_min              =  -1.5683160741447E+00
(PID.TID 0000.0001) %MON seaice_vice_mean             =  -2.0919474730358E-02
(PID.TID 0000.0001) %MON seaice_vice_sd               =   1.7235579131390E-01
(PID.TID 0000.0001) %MON seaice_vice_del2             =   4.0356650870246E-04
(PID.TID 0000.0001) %MON seaice_area_max              =   1.0012395223319E+00
(PID.TID 0000.0001) %MON seaice_area_min              =   0.0000000000000E+00
(PID.TID 0000.0001) %MON seaice_area_mean             =   5.7920032512247E-02
(PID.TID 0000.0001) %MON seaice_area_sd               =   2.2080100751677E-01
(PID.TID 0000.0001) %MON seaice_area_del2             =   2.8362219637992E-04
(PID.TID 0000.0001) %MON seaice_heff_max              =   9.9470731480793E+00
(PID.TID 0000.0001) %MON seaice_heff_min              =   0.0000000000000E+00
(PID.TID 0000.0001) %MON seaice_heff_mean             =   1.4906251921150E-01
(PID.TID 0000.0001) %MON seaice_heff_sd               =   7.1839328744604E-01
(PID.TID 0000.0001) %MON seaice_heff_del2             =   1.2816916298530E-03
(PID.TID 0000.0001) %MON seaice_hsnow_max             =   3.2855381233368E+00
(PID.TID 0000.0001) %MON seaice_hsnow_min             =   0.0000000000000E+00
(PID.TID 0000.0001) %MON seaice_hsnow_mean            =   1.2540591020894E-02
(PID.TID 0000.0001) %MON seaice_hsnow_sd              =   6.6664699164891E-02
(PID.TID 0000.0001) %MON seaice_hsnow_del2            =   3.3343693657217E-04
(PID.TID 0000.0001) // =======================================================
(PID.TID 0000.0001) // End MONITOR SEAICE statistics
(PID.TID 0000.0001) // =======================================================
(PID.TID 0000.0001) // =======================================================
(PID.TID 0000.0001) // Begin MONITOR dynamic field statistics
(PID.TID 0000.0001) // =======================================================
(PID.TID 0000.0001) %MON time_tsnumber                =                174971
(PID.TID 0000.0001) %MON time_secondsf                =   7.8736950000000E+07
(PID.TID 0000.0001) %MON dynstat_eta_max              =   2.6779040759868E+00
(PID.TID 0000.0001) %MON dynstat_eta_min              =  -1.0512696183260E+01
(PID.TID 0000.0001) %MON dynstat_eta_mean             =   3.8600028769695E-02
(PID.TID 0000.0001) %MON dynstat_eta_sd               =   1.1410164893298E+00
(PID.TID 0000.0001) %MON dynstat_eta_del2             =   2.0128889530745E-03
(PID.TID 0000.0001) %MON dynstat_uvel_max             =   1.7515233887997E+00
(PID.TID 0000.0001) %MON dynstat_uvel_min             =  -2.2586598976695E+00
(PID.TID 0000.0001) %MON dynstat_uvel_mean            =   6.6730735259565E-03
(PID.TID 0000.0001) %MON dynstat_uvel_sd              =   6.4536435280227E-02
(PID.TID 0000.0001) %MON dynstat_uvel_del2            =   5.3530583181701E-05
(PID.TID 0000.0001) %MON dynstat_vvel_max             =   2.1619197176769E+00
(PID.TID 0000.0001) %MON dynstat_vvel_min             =  -1.5700678845225E+00
(PID.TID 0000.0001) %MON dynstat_vvel_mean            =   1.4646962260567E-03
(PID.TID 0000.0001) %MON dynstat_vvel_sd              =   6.8657639522166E-02
(PID.TID 0000.0001) %MON dynstat_vvel_del2            =   5.2320114829204E-05
(PID.TID 0000.0001) %MON dynstat_wvel_max             =   1.4953345676405E-02
(PID.TID 0000.0001) %MON dynstat_wvel_min             =  -1.3178771260149E-02
(PID.TID 0000.0001) %MON dynstat_wvel_mean            =  -9.8343129340834E-07
(PID.TID 0000.0001) %MON dynstat_wvel_sd              =   2.3489159526713E-04
(PID.TID 0000.0001) %MON dynstat_wvel_del2            =   4.5598265166948E-07
(PID.TID 0000.0001) %MON dynstat_theta_max            =   3.2337550548253E+01
(PID.TID 0000.0001) %MON dynstat_theta_min            =  -2.0226538029544E+00
(PID.TID 0000.0001) %MON dynstat_theta_mean           =   3.5919758654269E+00
(PID.TID 0000.0001) %MON dynstat_theta_sd             =   4.4419501100269E+00
(PID.TID 0000.0001) %MON dynstat_theta_del2           =   1.3384797081242E-04
(PID.TID 0000.0001) %MON dynstat_salt_max             =   4.0655989268735E+01
(PID.TID 0000.0001) %MON dynstat_salt_min             =   1.5888048785349E+01
(PID.TID 0000.0001) %MON dynstat_salt_mean            =   3.4724787709391E+01
(PID.TID 0000.0001) %MON dynstat_salt_sd              =   3.7984279243821E-01
(PID.TID 0000.0001) %MON dynstat_salt_del2            =   6.1258405085839E-05
(PID.TID 0000.0001) %MON dynstat_sst_max              =   3.2337550548253E+01
(PID.TID 0000.0001) %MON dynstat_sst_min              =  -2.0226538029544E+00
(PID.TID 0000.0001) %MON dynstat_sst_mean             =   1.8184778372515E+01
(PID.TID 0000.0001) %MON dynstat_sst_sd               =   1.0228746310117E+01
(PID.TID 0000.0001) %MON dynstat_sst_del2             =   1.0946753321722E-03
(PID.TID 0000.0001) %MON dynstat_sss_max              =   3.9464659441285E+01
(PID.TID 0000.0001) %MON dynstat_sss_min              =   1.5888048785349E+01
(PID.TID 0000.0001) %MON dynstat_sss_mean             =   3.4639975325828E+01
(PID.TID 0000.0001) %MON dynstat_sss_sd               =   1.3064561329036E+00
(PID.TID 0000.0001) %MON dynstat_sss_del2             =   1.4840997629773E-03
(PID.TID 0000.0001) %MON forcing_qnet_max             =   6.3128737328014E+03
(PID.TID 0000.0001) %MON forcing_qnet_min             =  -2.1120842698043E+03
(PID.TID 0000.0001) %MON forcing_qnet_mean            =  -3.4478605827930E+01
(PID.TID 0000.0001) %MON forcing_qnet_sd              =   2.2490662746603E+02
(PID.TID 0000.0001) %MON forcing_qnet_del2            =   5.5627759125894E-01
(PID.TID 0000.0001) %MON forcing_qsw_max              =   0.0000000000000E+00
(PID.TID 0000.0001) %MON forcing_qsw_min              =  -1.1172249218098E+02
(PID.TID 0000.0001) %MON forcing_qsw_mean             =  -2.3655808999980E+01
(PID.TID 0000.0001) %MON forcing_qsw_sd               =   3.3121916652035E+01
(PID.TID 0000.0001) %MON forcing_qsw_del2             =   2.3148294429993E-02
(PID.TID 0000.0001) %MON forcing_empmr_max            =   2.0746918395162E-02
(PID.TID 0000.0001) %MON forcing_empmr_min            =  -5.2183192223310E-02
(PID.TID 0000.0001) %MON forcing_empmr_mean           =  -7.2453626719704E-07
(PID.TID 0000.0001) %MON forcing_empmr_sd             =   3.1928394907076E-04
(PID.TID 0000.0001) %MON forcing_empmr_del2           =   3.6708191285219E-06
(PID.TID 0000.0001) %MON forcing_fu_max               =   1.0416369079886E+00
(PID.TID 0000.0001) %MON forcing_fu_min               =  -1.1664362719292E+00
(PID.TID 0000.0001) %MON forcing_fu_mean              =   9.4305724771633E-03
(PID.TID 0000.0001) %MON forcing_fu_sd                =   1.2646954106601E-01
(PID.TID 0000.0001) %MON forcing_fu_del2              =   1.6897396535605E-04
(PID.TID 0000.0001) %MON forcing_fv_max               =   1.1055117249489E+00
(PID.TID 0000.0001) %MON forcing_fv_min               =  -1.1334071159363E+00
(PID.TID 0000.0001) %MON forcing_fv_mean              =   2.0104168042114E-03
(PID.TID 0000.0001) %MON forcing_fv_sd                =   1.2463053392843E-01
(PID.TID 0000.0001) %MON forcing_fv_del2              =   1.6854720540332E-04
(PID.TID 0000.0001) %MON trAdv_CFL_u_max              =   1.9353945875008E-02
(PID.TID 0000.0001) %MON trAdv_CFL_v_max              =   2.0798842690457E-02
(PID.TID 0000.0001) %MON trAdv_CFL_w_max              =   8.4899373735170E-02
(PID.TID 0000.0001) %MON advcfl_uvel_max              =   1.9612831861240E-02
(PID.TID 0000.0001) %MON advcfl_vvel_max              =   2.0731820891120E-02
(PID.TID 0000.0001) %MON advcfl_wvel_max              =   7.9860295206744E-02
(PID.TID 0000.0001) %MON advcfl_W_hf_max              =   8.4899373735170E-02
(PID.TID 0000.0001) %MON pe_b_mean                    =   1.6099940462444E-03
(PID.TID 0000.0001) %MON ke_max                       =   2.1777213000504E+00
(PID.TID 0000.0001) %MON ke_mean                      =   4.3038092268152E-03
(PID.TID 0000.0001) %MON ke_vol                       =   1.3350064351420E+18
(PID.TID 0000.0001) %MON vort_r_min                   =  -7.1342288524505E-05
(PID.TID 0000.0001) %MON vort_r_max                   =   6.9447767986998E-05
(PID.TID 0000.0001) %MON vort_a_mean                  =  -1.9725075124301E-05
(PID.TID 0000.0001) %MON vort_a_sd                    =   7.4546533617237E-05
(PID.TID 0000.0001) %MON vort_p_mean                  =  -2.1669079911394E-05
(PID.TID 0000.0001) %MON vort_p_sd                    =   9.3621937147696E-05
(PID.TID 0000.0001) %MON surfExpan_theta_mean         =  -3.3956001914873E-05
(PID.TID 0000.0001) %MON surfExpan_salt_mean          =  -7.4326006876917E-05
(PID.TID 0000.0001) // =======================================================
(PID.TID 0000.0001) // End MONITOR dynamic field statistics
(PID.TID 0000.0001) // =======================================================
(PID.TID 0000.0001) // =======================================================
(PID.TID 0000.0001) // Begin MONITOR SEAICE statistics
(PID.TID 0000.0001) // =======================================================
(PID.TID 0000.0001) %MON seaice_tsnumber              =                174971
(PID.TID 0000.0001) %MON seaice_time_sec              =   7.8736950000000E+07
(PID.TID 0000.0001) %MON seaice_uice_max              =   1.2606419133993E+00
(PID.TID 0000.0001) %MON seaice_uice_min              =  -1.2012868603640E+00
(PID.TID 0000.0001) %MON seaice_uice_mean             =   7.8095373499779E-03
(PID.TID 0000.0001) %MON seaice_uice_sd               =   1.5240644272565E-01
(PID.TID 0000.0001) %MON seaice_uice_del2             =   4.1464181249409E-04
(PID.TID 0000.0001) %MON seaice_vice_max              =   1.3249335407938E+00
(PID.TID 0000.0001) %MON seaice_vice_min              =  -1.5692041271947E+00
(PID.TID 0000.0001) %MON seaice_vice_mean             =  -2.0839651702560E-02
(PID.TID 0000.0001) %MON seaice_vice_sd               =   1.7262475757447E-01
(PID.TID 0000.0001) %MON seaice_vice_del2             =   4.0403253622166E-04
(PID.TID 0000.0001) %MON seaice_area_max              =   1.0012604489850E+00
(PID.TID 0000.0001) %MON seaice_area_min              =   0.0000000000000E+00
(PID.TID 0000.0001) %MON seaice_area_mean             =   5.7924416385905E-02
(PID.TID 0000.0001) %MON seaice_area_sd               =   2.2080224126732E-01
(PID.TID 0000.0001) %MON seaice_area_del2             =   2.8365618774879E-04
(PID.TID 0000.0001) %MON seaice_heff_max              =   9.9470702972693E+00
(PID.TID 0000.0001) %MON seaice_heff_min              =   0.0000000000000E+00
(PID.TID 0000.0001) %MON seaice_heff_mean             =   1.4905944852228E-01
(PID.TID 0000.0001) %MON seaice_heff_sd               =   7.1838118575849E-01
(PID.TID 0000.0001) %MON seaice_heff_del2             =   1.2812374372335E-03
(PID.TID 0000.0001) %MON seaice_hsnow_max             =   3.2855371282015E+00
(PID.TID 0000.0001) %MON seaice_hsnow_min             =   0.0000000000000E+00
(PID.TID 0000.0001) %MON seaice_hsnow_mean            =   1.2540098559012E-02
(PID.TID 0000.0001) %MON seaice_hsnow_sd              =   6.6654854820455E-02
(PID.TID 0000.0001) %MON seaice_hsnow_del2            =   3.3320047052343E-04
(PID.TID 0000.0001) // =======================================================
(PID.TID 0000.0001) // End MONITOR SEAICE statistics
(PID.TID 0000.0001) // =======================================================
(PID.TID 0000.0001) // =======================================================
(PID.TID 0000.0001) // Begin MONITOR dynamic field statistics
(PID.TID 0000.0001) // =======================================================
(PID.TID 0000.0001) %MON time_tsnumber                =                174972
(PID.TID 0000.0001) %MON time_secondsf                =   7.8737400000000E+07
(PID.TID 0000.0001) %MON dynstat_eta_max              =   2.7020950790445E+00
(PID.TID 0000.0001) %MON dynstat_eta_min              =  -1.0504136078777E+01
(PID.TID 0000.0001) %MON dynstat_eta_mean             =   3.7667165489026E-02
(PID.TID 0000.0001) %MON dynstat_eta_sd               =   1.1435052737827E+00
(PID.TID 0000.0001) %MON dynstat_eta_del2             =   2.0129224511002E-03
(PID.TID 0000.0001) %MON dynstat_uvel_max             =   1.7563292537771E+00
(PID.TID 0000.0001) %MON dynstat_uvel_min             =  -2.2539593504968E+00
(PID.TID 0000.0001) %MON dynstat_uvel_mean            =   6.6500929155432E-03
(PID.TID 0000.0001) %MON dynstat_uvel_sd              =   6.4818730099791E-02
(PID.TID 0000.0001) %MON dynstat_uvel_del2            =   5.3669219804222E-05
(PID.TID 0000.0001) %MON dynstat_vvel_max             =   2.1651423778985E+00
(PID.TID 0000.0001) %MON dynstat_vvel_min             =  -1.5709157748599E+00
(PID.TID 0000.0001) %MON dynstat_vvel_mean            =   1.4721774519704E-03
(PID.TID 0000.0001) %MON dynstat_vvel_sd              =   6.8964182524890E-02
(PID.TID 0000.0001) %MON dynstat_vvel_del2            =   5.2457545186465E-05
(PID.TID 0000.0001) %MON dynstat_wvel_max             =   1.4980451764817E-02
(PID.TID 0000.0001) %MON dynstat_wvel_min             =  -1.3225774918341E-02
(PID.TID 0000.0001) %MON dynstat_wvel_mean            =  -9.7594226683480E-07
(PID.TID 0000.0001) %MON dynstat_wvel_sd              =   2.3551875630700E-04
(PID.TID 0000.0001) %MON dynstat_wvel_del2            =   4.5681108543635E-07
(PID.TID 0000.0001) %MON dynstat_theta_max            =   3.2336993470303E+01
(PID.TID 0000.0001) %MON dynstat_theta_min            =  -2.0226261630899E+00
(PID.TID 0000.0001) %MON dynstat_theta_mean           =   3.5919807633245E+00
(PID.TID 0000.0001) %MON dynstat_theta_sd             =   4.4419650348369E+00
(PID.TID 0000.0001) %MON dynstat_theta_del2           =   1.3392185681988E-04
(PID.TID 0000.0001) %MON dynstat_salt_max             =   4.0655989268519E+01
(PID.TID 0000.0001) %MON dynstat_salt_min             =   1.5887508948468E+01
(PID.TID 0000.0001) %MON dynstat_salt_mean            =   3.4724787971503E+01
(PID.TID 0000.0001) %MON dynstat_salt_sd              =   3.7984421200306E-01
(PID.TID 0000.0001) %MON dynstat_salt_del2            =   6.1238273033601E-05
(PID.TID 0000.0001) %MON dynstat_sst_max              =   3.2336993470303E+01
(PID.TID 0000.0001) %MON dynstat_sst_min              =  -2.0226261630899E+00
(PID.TID 0000.0001) %MON dynstat_sst_mean             =   1.8184980130461E+01
(PID.TID 0000.0001) %MON dynstat_sst_sd               =   1.0229170970071E+01
(PID.TID 0000.0001) %MON dynstat_sst_del2             =   1.0945735763188E-03
(PID.TID 0000.0001) %MON dynstat_sss_max              =   3.9463765355166E+01
(PID.TID 0000.0001) %MON dynstat_sss_min              =   1.5887508948468E+01
(PID.TID 0000.0001) %MON dynstat_sss_mean             =   3.4639964648319E+01
(PID.TID 0000.0001) %MON dynstat_sss_sd               =   1.3064831265029E+00
(PID.TID 0000.0001) %MON dynstat_sss_del2             =   1.4838612724213E-03
(PID.TID 0000.0001) %MON forcing_qnet_max             =   4.0002451908485E+03
(PID.TID 0000.0001) %MON forcing_qnet_min             =  -1.7913067559996E+03
(PID.TID 0000.0001) %MON forcing_qnet_mean            =  -3.3827938033519E+01
(PID.TID 0000.0001) %MON forcing_qnet_sd              =   2.2298239474977E+02
(PID.TID 0000.0001) %MON forcing_qnet_del2            =   4.7611048482211E-01
(PID.TID 0000.0001) %MON forcing_qsw_max              =   0.0000000000000E+00
(PID.TID 0000.0001) %MON forcing_qsw_min              =  -1.1180883359894E+02
(PID.TID 0000.0001) %MON forcing_qsw_mean             =  -2.3524491996077E+01
(PID.TID 0000.0001) %MON forcing_qsw_sd               =   3.3029867748041E+01
(PID.TID 0000.0001) %MON forcing_qsw_del2             =   2.3249469625570E-02
(PID.TID 0000.0001) %MON forcing_empmr_max            =   2.1061204373837E-02
(PID.TID 0000.0001) %MON forcing_empmr_min            =  -5.3824104368687E-02
(PID.TID 0000.0001) %MON forcing_empmr_mean           =  -1.2755944648745E-07
(PID.TID 0000.0001) %MON forcing_empmr_sd             =   2.8716528709670E-04
(PID.TID 0000.0001) %MON forcing_empmr_del2           =   3.3436675452969E-06
(PID.TID 0000.0001) %MON forcing_fu_max               =   1.0394991333320E+00
(PID.TID 0000.0001) %MON forcing_fu_min               =  -1.1665994567853E+00
(PID.TID 0000.0001) %MON forcing_fu_mean              =   9.4115428734182E-03
(PID.TID 0000.0001) %MON forcing_fu_sd                =   1.2652143484014E-01
(PID.TID 0000.0001) %MON forcing_fu_del2              =   1.6902041063097E-04
(PID.TID 0000.0001) %MON forcing_fv_max               =   1.1015509963036E+00
(PID.TID 0000.0001) %MON forcing_fv_min               =  -1.1266794800758E+00
(PID.TID 0000.0001) %MON forcing_fv_mean              =   2.0608575967357E-03
(PID.TID 0000.0001) %MON forcing_fv_sd                =   1.2462536454718E-01
(PID.TID 0000.0001) %MON forcing_fv_del2              =   1.6837989758969E-04
(PID.TID 0000.0001) %MON trAdv_CFL_u_max              =   1.9321035366972E-02
(PID.TID 0000.0001) %MON trAdv_CFL_v_max              =   2.0850481612045E-02
(PID.TID 0000.0001) %MON trAdv_CFL_w_max              =   8.4518841359571E-02
(PID.TID 0000.0001) %MON advcfl_uvel_max              =   1.9579481129314E-02
(PID.TID 0000.0001) %MON advcfl_vvel_max              =   2.0783293412420E-02
(PID.TID 0000.0001) %MON advcfl_wvel_max              =   7.9499147004095E-02
(PID.TID 0000.0001) %MON advcfl_W_hf_max              =   8.4518841359571E-02
(PID.TID 0000.0001) %MON pe_b_mean                    =   1.5911508101987E-03
(PID.TID 0000.0001) %MON ke_max                       =   2.1748551263567E+00
(PID.TID 0000.0001) %MON ke_mean                      =   4.3416224093493E-03
(PID.TID 0000.0001) %MON ke_vol                       =   1.3350064351420E+18
(PID.TID 0000.0001) %MON vort_r_min                   =  -7.1292374226309E-05
(PID.TID 0000.0001) %MON vort_r_max                   =   6.9337380619672E-05
(PID.TID 0000.0001) %MON vort_a_mean                  =  -1.9725075110292E-05
(PID.TID 0000.0001) %MON vort_a_sd                    =   7.4546597903067E-05
(PID.TID 0000.0001) %MON vort_p_mean                  =  -2.1669079896005E-05
(PID.TID 0000.0001) %MON vort_p_sd                    =   9.3621927980812E-05
(PID.TID 0000.0001) %MON surfExpan_theta_mean         =  -3.2712102815015E-05
(PID.TID 0000.0001) %MON surfExpan_salt_mean          =  -7.3990705068356E-05
(PID.TID 0000.0001) // =======================================================
(PID.TID 0000.0001) // End MONITOR dynamic field statistics
(PID.TID 0000.0001) // =======================================================
(PID.TID 0000.0001) // =======================================================
(PID.TID 0000.0001) // Begin MONITOR SEAICE statistics
(PID.TID 0000.0001) // =======================================================
(PID.TID 0000.0001) %MON seaice_tsnumber              =                174972
(PID.TID 0000.0001) %MON seaice_time_sec              =   7.8737400000000E+07
(PID.TID 0000.0001) %MON seaice_uice_max              =   1.2593042868122E+00
(PID.TID 0000.0001) %MON seaice_uice_min              =  -1.2042246316252E+00
(PID.TID 0000.0001) %MON seaice_uice_mean             =   7.7463732320580E-03
(PID.TID 0000.0001) %MON seaice_uice_sd               =   1.5252276203413E-01
(PID.TID 0000.0001) %MON seaice_uice_del2             =   4.1511483783481E-04
(PID.TID 0000.0001) %MON seaice_vice_max              =   1.3194019717623E+00
(PID.TID 0000.0001) %MON seaice_vice_min              =  -1.5700678845225E+00
(PID.TID 0000.0001) %MON seaice_vice_mean             =  -2.0756268218418E-02
(PID.TID 0000.0001) %MON seaice_vice_sd               =   1.7289343009357E-01
(PID.TID 0000.0001) %MON seaice_vice_del2             =   4.0440351431534E-04
(PID.TID 0000.0001) %MON seaice_area_max              =   1.0012808482690E+00
(PID.TID 0000.0001) %MON seaice_area_min              =   0.0000000000000E+00
(PID.TID 0000.0001) %MON seaice_area_mean             =   5.7928784003827E-02
(PID.TID 0000.0001) %MON seaice_area_sd               =   2.2080343038002E-01
(PID.TID 0000.0001) %MON seaice_area_del2             =   2.8369126836818E-04
(PID.TID 0000.0001) %MON seaice_heff_max              =   9.9470674477413E+00
(PID.TID 0000.0001) %MON seaice_heff_min              =   0.0000000000000E+00
(PID.TID 0000.0001) %MON seaice_heff_mean             =   1.4905638192530E-01
(PID.TID 0000.0001) %MON seaice_heff_sd               =   7.1836913231007E-01
(PID.TID 0000.0001) %MON seaice_heff_del2             =   1.2807852216294E-03
(PID.TID 0000.0001) %MON seaice_hsnow_max             =   3.2855361348474E+00
(PID.TID 0000.0001) %MON seaice_hsnow_min             =   0.0000000000000E+00
(PID.TID 0000.0001) %MON seaice_hsnow_mean            =   1.2539601291087E-02
(PID.TID 0000.0001) %MON seaice_hsnow_sd              =   6.6645015847763E-02
(PID.TID 0000.0001) %MON seaice_hsnow_del2            =   3.3296470950342E-04
(PID.TID 0000.0001) // =======================================================
(PID.TID 0000.0001) // End MONITOR SEAICE statistics
(PID.TID 0000.0001) // =======================================================
(PID.TID 0000.0001) DIAGSTATS_CLOSE_IO: close file: dynStDiag.0000174588.txt , unit=    37
(PID.TID 0000.0001) DIAGSTATS_CLOSE_IO: close file: iceStDiag.0000174588.txt , unit=    38
(PID.TID 0000.0001) %CHECKPOINT    174972 ckptA
