(PID.TID 0000.0001) 
(PID.TID 0000.0001) // ======================================================
(PID.TID 0000.0001) //                      MITgcm UV
(PID.TID 0000.0001) //                      =========
(PID.TID 0000.0001) // ======================================================
(PID.TID 0000.0001) // execution environment starting up...
(PID.TID 0000.0001) 
(PID.TID 0000.0001) // MITgcmUV version:  checkpoint67b
(PID.TID 0000.0001) // Build user:        estrobac
(PID.TID 0000.0001) // Build host:        borgs158
(PID.TID 0000.0001) // Build date:        Tue Jul  3 12:16:40 EDT 2018
(PID.TID 0000.0001) 
(PID.TID 0000.0001) // =======================================================
(PID.TID 0000.0001) // Execution Environment parameter file "eedata"
(PID.TID 0000.0001) // =======================================================
(PID.TID 0000.0001) ># Example "eedata" file
(PID.TID 0000.0001) ># Lines beginning "#" are comments
(PID.TID 0000.0001) ># nTx - No. threads per process in X
(PID.TID 0000.0001) ># nTy - No. threads per process in Y
(PID.TID 0000.0001) > &EEPARMS
(PID.TID 0000.0001) > useCubedSphereExchange=.TRUE.,
(PID.TID 0000.0001) > nTx=1,
(PID.TID 0000.0001) > nTy=1,
(PID.TID 0000.0001) > &
(PID.TID 0000.0001) 
(PID.TID 0000.0001) // =======================================================
(PID.TID 0000.0001) // Computational Grid Specification ( see files "SIZE.h" )
(PID.TID 0000.0001) //                                  ( and "eedata"       )
(PID.TID 0000.0001) // =======================================================
(PID.TID 0000.0001)      nPx =   96 ; /* No. processes in X */
(PID.TID 0000.0001)      nPy =    1 ; /* No. processes in Y */
(PID.TID 0000.0001)      nSx =    1 ; /* No. tiles in X per process */
(PID.TID 0000.0001)      nSy =    1 ; /* No. tiles in Y per process */
(PID.TID 0000.0001)      sNx =   30 ; /* Tile size in X */
(PID.TID 0000.0001)      sNy =   30 ; /* Tile size in Y */
(PID.TID 0000.0001)      OLx =    4 ; /* Tile overlap distance in X */
(PID.TID 0000.0001)      OLy =    4 ; /* Tile overlap distance in Y */
(PID.TID 0000.0001)      nTx =    1 ; /* No. threads in X per process */
(PID.TID 0000.0001)      nTy =    1 ; /* No. threads in Y per process */
(PID.TID 0000.0001)       Nr =   50 ; /* No. levels in the vertical   */
(PID.TID 0000.0001)       Nx = 2880 ; /* Total domain size in X ( = nPx*nSx*sNx ) */
(PID.TID 0000.0001)       Ny =   30 ; /* Total domain size in Y ( = nPy*nSy*sNy ) */
(PID.TID 0000.0001)   nTiles =    1 ; /* Total no. tiles per process ( = nSx*nSy ) */
(PID.TID 0000.0001)   nProcs =   96 ; /* Total no. processes ( = nPx*nPy ) */
(PID.TID 0000.0001) nThreads =    1 ; /* Total no. threads per process ( = nTx*nTy ) */
(PID.TID 0000.0001) usingMPI =    T ; /* Flag used to control whether MPI is in use */
(PID.TID 0000.0001)                   /*  note: To execute a program with MPI calls */
(PID.TID 0000.0001)                   /*  it must be launched appropriately e.g     */
(PID.TID 0000.0001)                   /*  "mpirun -np 64 ......"                    */
(PID.TID 0000.0001) useCoupler=    F ;/* Flag used to control communications with   */
(PID.TID 0000.0001)                   /*  other model components, through a coupler */
(PID.TID 0000.0001) debugMode =    F ; /* print debug msg. (sequence of S/R calls)  */
(PID.TID 0000.0001) printMapIncludesZeros=    F ; /* print zeros in Std.Output maps */
(PID.TID 0000.0001) maxLengthPrt1D=   65 /* maxLength of 1D array printed to StdOut */
(PID.TID 0000.0001) 
(PID.TID 0000.0001) ======= Starting MPI parallel Run =========
(PID.TID 0000.0001)  My Processor Name (len:  8 ) = borgs037
(PID.TID 0000.0001)  Located at (  0,  0) on processor grid (0: 95,0:  0)
(PID.TID 0000.0001)  Origin at  (     1,     1) on global grid (1:  2880,1:    30)
(PID.TID 0000.0001)  North neighbor = processor 0000
(PID.TID 0000.0001)  South neighbor = processor 0000
(PID.TID 0000.0001)   East neighbor = processor 0001
(PID.TID 0000.0001)   West neighbor = processor 0095
(PID.TID 0000.0001) // ======================================================
(PID.TID 0000.0001) // Mapping of tiles to threads
(PID.TID 0000.0001) // ======================================================
(PID.TID 0000.0001) // -o- Thread   1, tiles (   1:   1,   1:   1)
(PID.TID 0000.0001) 
(PID.TID 0000.0001) W2_READPARMS: opening data.exch2
(PID.TID 0000.0001)  OPEN_COPY_DATA_FILE: opening file data.exch2
(PID.TID 0000.0001) // =======================================================
(PID.TID 0000.0001) // Parameter file "data.exch2"
(PID.TID 0000.0001) // =======================================================
(PID.TID 0000.0001) ># EXCH2 Package: Wrapper-2 User Choice
(PID.TID 0000.0001) >#--------------------
(PID.TID 0000.0001) >#  preDefTopol   :: pre-defined Topology selector:
(PID.TID 0000.0001) >#                :: = 0 : topology defined from processing "data.exch2";
(PID.TID 0000.0001) >#                :: = 1 : simple, single facet topology;
(PID.TID 0000.0001) >#                :: = 2 : customized topology (w2_set_myown_facets)
(PID.TID 0000.0001) >#                :: = 3 : 6-facet Cube (3 face-dims: nRed, nGreen, nBlue).
(PID.TID 0000.0001) >#  dimsFacets    :: facet pair of dimensions (n1x,n1y, n2x,n2y ...)
(PID.TID 0000.0001) >#  facetEdgeLink :: Face-Edge connectivity map:
(PID.TID 0000.0001) >#    facetEdgeLink(i,j)=XX.1 : face(j)-edge(i) (i=1,2,3,4 <==> N,S,E,W)
(PID.TID 0000.0001) >#    is connected to Northern edge of face "XX" ; similarly,
(PID.TID 0000.0001) >#    = XX.2 : to Southern.E, XX.3 = Eastern.E, XX.4 = Western.E of face "XX"
(PID.TID 0000.0001) >#  blankList     :: List of "blank" tiles
(PID.TID 0000.0001) >#  W2_mapIO      :: global map IO selector (-1 = old type ; 0 = 1 long line in X
(PID.TID 0000.0001) >#                :: 1 = compact, mostly in Y dir)
(PID.TID 0000.0001) >#  W2_printMsg   :: option for information messages printing
(PID.TID 0000.0001) >#                :: <0 : write to log file ; =0 : minimum print ;
(PID.TID 0000.0001) >#                :: =1 : no duplicated print ; =2 : all processes do print
(PID.TID 0000.0001) >#--------------------
(PID.TID 0000.0001) > &W2_EXCH2_PARM01
(PID.TID 0000.0001) ># W2_printMsg= 0,
(PID.TID 0000.0001) >  W2_mapIO   = 1,
(PID.TID 0000.0001) >#
(PID.TID 0000.0001) >  preDefTopol=0,
(PID.TID 0000.0001) >#-- 5 facets llc_120 topology (drop facet 6 and its connection):
(PID.TID 0000.0001) >  dimsFacets(1:10) = 90, 270, 90, 270, 90, 90, 270, 90, 270, 90,
(PID.TID 0000.0001) >  facetEdgeLink(1:4,1)= 3.4, 0. , 2.4, 5.1,
(PID.TID 0000.0001) >  facetEdgeLink(1:4,2)= 3.2, 0. , 4.2, 1.3,
(PID.TID 0000.0001) >  facetEdgeLink(1:4,3)= 5.4, 2.1, 4.4, 1.1,
(PID.TID 0000.0001) >  facetEdgeLink(1:4,4)= 5.2, 2.3, 0. , 3.3,
(PID.TID 0000.0001) >  facetEdgeLink(1:4,5)= 1.4, 4.1, 0. , 3.1,
(PID.TID 0000.0001) >#-- full 6 facets llc_120 topology (equivalent to default preDefTopol=3):
(PID.TID 0000.0001) ># dimsFacets(1:12) = 120, 360, 120, 360, 120, 120, 360, 120, 360, 120, 120, 120,
(PID.TID 0000.0001) ># facetEdgeLink(1:4,1)= 3.4, 6.1, 2.4, 5.1,
(PID.TID 0000.0001) ># facetEdgeLink(1:4,2)= 3.2, 6.3, 4.2, 1.3,
(PID.TID 0000.0001) ># facetEdgeLink(1:4,3)= 5.4, 2.1, 4.4, 1.1,
(PID.TID 0000.0001) ># facetEdgeLink(1:4,4)= 5.2, 2.3, 6.2, 3.3,
(PID.TID 0000.0001) ># facetEdgeLink(1:4,5)= 1.4, 4.1, 6.4, 3.1,
(PID.TID 0000.0001) ># facetEdgeLink(1:4,6)= 1.2, 4.3, 2.2, 5.3,
(PID.TID 0000.0001) >#
(PID.TID 0000.0001) >#90x30   nprocs = 36
(PID.TID 0000.0001) ># blankList(1:3)=1,10,11,
(PID.TID 0000.0001) >#30x90
(PID.TID 0000.0001) >#
(PID.TID 0000.0001) >#45x30   nprocs = 72
(PID.TID 0000.0001) ># blankList(1:6)=1,2,19,20,21,22
(PID.TID 0000.0001) >#30x45   nprocs = 68
(PID.TID 0000.0001) ># blankList(1:10)=2,3,19,20,21,35,51,60,69,78
(PID.TID 0000.0001) >#45x45   nprocs = 48
(PID.TID 0000.0001) ># blankList(1:4)=2,13,14,23
(PID.TID 0000.0001) >#30x30   nprocs = 96
(PID.TID 0000.0001) >  blankList(1:21)=1,2,3,5,6,28,29,30,31,32,33,49,50,52,53,72,81,90,99,108,117
(PID.TID 0000.0001) >#30x30   nprocs = 112
(PID.TID 0000.0001) ># blankList(1:5)=2,3,28,29,30
(PID.TID 0000.0001) >#15x30   nprocs = 192
(PID.TID 0000.0001) ># blankList(1:42)=1,2,3,4,5,6,9,10,11,12,55,56,57,58,59,60,61,62,63,64,65,66,
(PID.TID 0000.0001) >#            97,98,99,100,103,104,105,106,143,144,
(PID.TID 0000.0001) >#            161,162,179,180,197,198,215,216,233,234
(PID.TID 0000.0001) >#15x15   nprocs = 360
(PID.TID 0000.0001) ># blankList(1:108)=1,2,3,4,5,6,7,8,9,10,11,12,14,15,16,17,18,21,22,23,24,
(PID.TID 0000.0001) >#  65,71,75,76,90,95,96,101,102,109,110,111,112,113,114,115,116,117,118,119,
(PID.TID 0000.0001) >#  120,121,122,123,124,125,126,127,128,129,130,131,132,
(PID.TID 0000.0001) >#  188,189,190,193,194,195,196,199,
(PID.TID 0000.0001) >#  200,201,202,203,205,206,207,208,209,211,212,213,214,215,216,242,247,253,
(PID.TID 0000.0001) >#  267,268,269,270,287,288,305,306,323,324,341,342,359,360,362,376,377,378,
(PID.TID 0000.0001) >#  380,381,382,395,396,400,412,413,414,430,
(PID.TID 0000.0001) >#note: it seems that 8 of the followig 9 tiles could be added to 15x15 blank
(PID.TID 0000.0001) >#  list to reach 352=22*16 cores : 431 432 440 441 448 449 450 467 468
(PID.TID 0000.0001) > &
(PID.TID 0000.0001) 
(PID.TID 0000.0001) W2_READPARMS: finished reading data.exch2
(PID.TID 0000.0001) W2_useE2ioLayOut=    T ;/* T: use Exch2 glob IO map; F: use model default */
(PID.TID 0000.0001) W2_mapIO        =   1 ; /* select option for Exch2 global-IO map */
(PID.TID 0000.0001) W2_printMsg     =  -1 ; /* select option for printing information */
(PID.TID 0000.0001) ===== Start setting W2 TOPOLOGY:
(PID.TID 0000.0001)  write to log-file: w2_tile_topology.0000.log
(PID.TID 0000.0001) =====       setting W2 TOPOLOGY: Done
(PID.TID 0000.0001) 
(PID.TID 0000.0001)  INI_PARMS: opening model parameter file "data"
(PID.TID 0000.0001)  OPEN_COPY_DATA_FILE: opening file data
(PID.TID 0000.0001) // =======================================================
(PID.TID 0000.0001) // Parameter file "data"
(PID.TID 0000.0001) // =======================================================
(PID.TID 0000.0001) ># ====================
(PID.TID 0000.0001) ># | Model parameters |
(PID.TID 0000.0001) ># ====================
(PID.TID 0000.0001) >#
(PID.TID 0000.0001) ># Continuous equation parameters
(PID.TID 0000.0001) > &PARM01
(PID.TID 0000.0001) > tRef               = 3*23.,3*22.,21.,2*20.,19.,2*18.,17.,2*16.,15.,14.,13.,
(PID.TID 0000.0001) >                      12.,11.,2*9.,8.,7.,2*6.,2*5.,3*4.,3*3.,4*2.,12*1.,
(PID.TID 0000.0001) > sRef               = 50*34.5,
(PID.TID 0000.0001) > no_slip_sides  = .TRUE.,
(PID.TID 0000.0001) > no_slip_bottom = .TRUE.,
(PID.TID 0000.0001) >#
(PID.TID 0000.0001) > viscAr=0.5E-4,
(PID.TID 0000.0001) >#
(PID.TID 0000.0001) > viscAh=1.E0,
(PID.TID 0000.0001) > viscAhGrid=2.E-2,
(PID.TID 0000.0001) ># viscAh=2.0e4,
(PID.TID 0000.0001) >#
(PID.TID 0000.0001) > diffKhT=1.E1,
(PID.TID 0000.0001) > diffKrT=1.E-5,
(PID.TID 0000.0001) > diffKhS=1.E1,
(PID.TID 0000.0001) > diffKrS=1.E-5,
(PID.TID 0000.0001) >#
(PID.TID 0000.0001) >### diffKrBL79surf=0.1E-4,
(PID.TID 0000.0001) >### diffKrBL79deep=1.0E-4,
(PID.TID 0000.0001) > bottomDragQuadratic = 0.001,
(PID.TID 0000.0001) >#when using ggl90
(PID.TID 0000.0001) > ivdc_kappa=10.,
(PID.TID 0000.0001) > implicitDiffusion=.TRUE.,
(PID.TID 0000.0001) > implicitViscosity=.TRUE.,
(PID.TID 0000.0001) > useRealFreshWaterFlux=.TRUE.,
(PID.TID 0000.0001) ># balanceThetaClimRelax=.TRUE.,
(PID.TID 0000.0001) > balanceSaltClimRelax=.TRUE.,
(PID.TID 0000.0001) ># balanceEmPmR=.TRUE.,
(PID.TID 0000.0001) ># balanceQnet=.TRUE.,
(PID.TID 0000.0001) > allowFreezing=.FALSE.,
(PID.TID 0000.0001) >### hFacInf=0.2,
(PID.TID 0000.0001) >### hFacSup=2.0,
(PID.TID 0000.0001) > hFacMin=.2,
(PID.TID 0000.0001) > hFacMinDr=5.,
(PID.TID 0000.0001) > select_rStar=2,
(PID.TID 0000.0001) > nonlinFreeSurf=4,
(PID.TID 0000.0001) > gravity=9.81,
(PID.TID 0000.0001) > rhonil=1029.,
(PID.TID 0000.0001) > rhoConst=1029.,
(PID.TID 0000.0001) > rhoConstFresh=1000.,
(PID.TID 0000.0001) > convertFW2Salt=-1.,
(PID.TID 0000.0001) > eosType='JMD95Z',
(PID.TID 0000.0001) > implicitFreeSurface=.TRUE.,
(PID.TID 0000.0001) > exactConserv=.TRUE.,
(PID.TID 0000.0001) > useSingleCpuIO=.TRUE.,
(PID.TID 0000.0001) > tempAdvScheme=30,
(PID.TID 0000.0001) > saltAdvScheme=30,
(PID.TID 0000.0001) > tempVertAdvScheme=3,
(PID.TID 0000.0001) > saltVertAdvScheme=3,
(PID.TID 0000.0001) > tempImplVertAdv=.TRUE.,
(PID.TID 0000.0001) > saltImplVertAdv=.TRUE.,
(PID.TID 0000.0001) > staggerTimeStep=.TRUE.,
(PID.TID 0000.0001) > vectorInvariantMomentum=.TRUE.,
(PID.TID 0000.0001) >#when using the cd scheme:
(PID.TID 0000.0001) ># useCDscheme=.TRUE.,
(PID.TID 0000.0001) > useJamartWetPoints=.TRUE.,
(PID.TID 0000.0001) > readBinaryPrec=32,
(PID.TID 0000.0001) > writeBinaryPrec=32,
(PID.TID 0000.0001) > debugLevel=2,
(PID.TID 0000.0001) > &
(PID.TID 0000.0001) >
(PID.TID 0000.0001) ># Elliptic solver parameters
(PID.TID 0000.0001) > &PARM02
(PID.TID 0000.0001) > cg2dMaxIters=300,
(PID.TID 0000.0001) > cg2dTargetResWunit=1.E-12,
(PID.TID 0000.0001) > &
(PID.TID 0000.0001) >
(PID.TID 0000.0001) ># Time stepping parameters
(PID.TID 0000.0001) > &PARM03
(PID.TID 0000.0001) > nIter0=1,
(PID.TID 0000.0001) >#2 lev2 for testing:
(PID.TID 0000.0001) ># nTimeSteps       = 96,
(PID.TID 0000.0001) >#20y:
(PID.TID 0000.0001) >  nTimeSteps       = 96,
(PID.TID 0000.0001) >#60 years
(PID.TID 0000.0001) ># nTimeSteps       = 96,
(PID.TID 0000.0001) >#
(PID.TID 0000.0001) > forcing_In_AB=.FALSE.,
(PID.TID 0000.0001) > momDissip_In_AB=.FALSE.,
(PID.TID 0000.0001) >#when using the cd scheme:
(PID.TID 0000.0001) ># epsAB_CD = 0.25,
(PID.TID 0000.0001) ># tauCD=172800.0,
(PID.TID 0000.0001) > deltaT = 900.,
(PID.TID 0000.0001) >#when using ab2:
(PID.TID 0000.0001) > abEps = 0.1,
(PID.TID 0000.0001) >#when using ab3:
(PID.TID 0000.0001) ># doAB_onGtGs=.FALSE.,
(PID.TID 0000.0001) ># alph_AB=0.5,
(PID.TID 0000.0001) ># beta_AB=0.281105,
(PID.TID 0000.0001) >#
(PID.TID 0000.0001) >  pChkptFreq        = 86400.0,
(PID.TID 0000.0001) >  chkptFreq        = 86400.0,
(PID.TID 0000.0001) ># taveFreq    =31536000.0,
(PID.TID 0000.0001) ># dumpFreq    =31536000.0,
(PID.TID 0000.0001) > monitorFreq = 7200.0,
(PID.TID 0000.0001) > dumpInitAndLast = .TRUE.,
(PID.TID 0000.0001) > pickupStrictlyMatch=.FALSE.,
(PID.TID 0000.0001) > &
(PID.TID 0000.0001) >
(PID.TID 0000.0001) ># Gridding parameters
(PID.TID 0000.0001) > &PARM04
(PID.TID 0000.0001) > usingCurvilinearGrid=.TRUE.,
(PID.TID 0000.0001) > delR =
(PID.TID 0000.0001) >     10.00, 10.00, 10.00, 10.00, 10.00, 10.00, 10.00, 10.01,
(PID.TID 0000.0001) >     10.03, 10.11, 10.32, 10.80, 11.76, 13.42, 16.04, 19.82, 24.85,
(PID.TID 0000.0001) >     31.10, 38.42, 46.50, 55.00, 63.50, 71.58, 78.90, 85.15, 90.18,
(PID.TID 0000.0001) >     93.96, 96.58, 98.25, 99.25,100.01,101.33,104.56,111.33,122.83,
(PID.TID 0000.0001) >     139.09,158.94,180.83,203.55,226.50,249.50,272.50,295.50,318.50,
(PID.TID 0000.0001) >     341.50,364.50,387.50,410.50,433.50,456.50,
(PID.TID 0000.0001) > &
(PID.TID 0000.0001) >
(PID.TID 0000.0001) ># Input datasets
(PID.TID 0000.0001) > &PARM05
(PID.TID 0000.0001) >#adTapeDir='tapes',
(PID.TID 0000.0001) > bathyFile      ='bathy.bin',
(PID.TID 0000.0001) > hydrogThetaFile='T_OWPv1_M_eccollc_90x50.bin',
(PID.TID 0000.0001) > hydrogSaltFile ='S_OWPv1_M_eccollc_90x50.bin',
(PID.TID 0000.0001) > viscA4Dfile    ='viscA4Dfld.bin',
(PID.TID 0000.0001) > viscA4Zfile    ='viscA4Zfld.bin',
(PID.TID 0000.0001) > geothermalFile='geothermalFlux.bin',
(PID.TID 0000.0001) >#
(PID.TID 0000.0001) > &
(PID.TID 0000.0001) 
(PID.TID 0000.0001)  INI_PARMS ; starts to read PARM01
(PID.TID 0000.0001)  INI_PARMS ; read PARM01 : OK
(PID.TID 0000.0001)  INI_PARMS ; starts to read PARM02
(PID.TID 0000.0001)  INI_PARMS ; read PARM02 : OK
(PID.TID 0000.0001)  INI_PARMS ; starts to read PARM03
(PID.TID 0000.0001)  INI_PARMS ; read PARM03 : OK
(PID.TID 0000.0001)  INI_PARMS ; starts to read PARM04
(PID.TID 0000.0001)  INI_PARMS ; read PARM04 : OK
(PID.TID 0000.0001)  INI_PARMS ; starts to read PARM05
(PID.TID 0000.0001)  INI_PARMS ; read PARM05 : OK
(PID.TID 0000.0001)  INI_PARMS: finished reading file "data"
(PID.TID 0000.0001)  PACKAGES_BOOT: opening data.pkg
(PID.TID 0000.0001)  OPEN_COPY_DATA_FILE: opening file data.pkg
(PID.TID 0000.0001) // =======================================================
(PID.TID 0000.0001) // Parameter file "data.pkg"
(PID.TID 0000.0001) // =======================================================
(PID.TID 0000.0001) ># Packages
(PID.TID 0000.0001) > &PACKAGES
(PID.TID 0000.0001) > useGMRedi          = .TRUE.,
(PID.TID 0000.0001) > useGGL90           = .TRUE.,
(PID.TID 0000.0001) > useSALT_PLUME      = .FALSE.,
(PID.TID 0000.0001) > useDiagnostics     = .TRUE.,
(PID.TID 0000.0001) > useCTRL            = .TRUE.,
(PID.TID 0000.0001) > useSEAICE          = .TRUE.,
(PID.TID 0000.0001) > &
(PID.TID 0000.0001) 
(PID.TID 0000.0001)  PACKAGES_BOOT: finished reading data.pkg
(PID.TID 0000.0001)  PACKAGES_BOOT: On/Off package Summary
 --------  pkgs with a standard "usePKG" On/Off switch in "data.pkg":  --------
 pkg/ggl90                compiled   and   used ( useGGL90                 = T )
 pkg/gmredi               compiled   and   used ( useGMRedi                = T )
 pkg/ctrl                 compiled   and   used ( useCTRL                  = T )
 pkg/seaice               compiled   and   used ( useSEAICE                = T )
 pkg/salt_plume           compiled but not used ( useSALT_PLUME            = F )
 pkg/diagnostics          compiled   and   used ( useDiagnostics           = T )
 -------- pkgs without standard "usePKG" On/Off switch in "data.pkg":  --------
 pkg/generic_advdiff      compiled   and   used ( useGAD                   = T )
 pkg/mom_common           compiled   and   used ( momStepping              = T )
 pkg/mom_vecinv           compiled   and   used ( +vectorInvariantMomentum = T )
 pkg/mom_fluxform         compiled but not used ( & not vectorInvariantMom = F )
 pkg/monitor              compiled   and   used ( monitorFreq > 0.         = T )
 pkg/debug                compiled but not used ( debugMode                = F )
 pkg/exch2                compiled   and   used
 pkg/rw                   compiled   and   used
 pkg/mdsio                compiled   and   used
(PID.TID 0000.0001)  PACKAGES_BOOT: End of package Summary
(PID.TID 0000.0001) 
(PID.TID 0000.0001)  GGL90_READPARMS: opening data.ggl90
(PID.TID 0000.0001)  OPEN_COPY_DATA_FILE: opening file data.ggl90
(PID.TID 0000.0001) // =======================================================
(PID.TID 0000.0001) // Parameter file "data.ggl90"
(PID.TID 0000.0001) // =======================================================
(PID.TID 0000.0001) ># =====================================================================
(PID.TID 0000.0001) ># | Parameters for Gaspar et al. (1990)'s TKE vertical mixing scheme  |
(PID.TID 0000.0001) ># =====================================================================
(PID.TID 0000.0001) > &GGL90_PARM01
(PID.TID 0000.0001) ># GGL90taveFreq = 345600000.,
(PID.TID 0000.0001) ># GGL90dumpFreq = 86400.,
(PID.TID 0000.0001) ># GGL90writeState=.FALSE.,
(PID.TID 0000.0001) ># GGL90diffTKEh=3.e3,
(PID.TID 0000.0001) > GGL90alpha=30.,
(PID.TID 0000.0001) ># GGL90TKEFile = 'TKE_init.bin',
(PID.TID 0000.0001) > GGL90TKEmin  = 1.e-7,
(PID.TID 0000.0001) > GGL90TKEbottom = 1.e-6,
(PID.TID 0000.0001) > mxlMaxFlag =2,
(PID.TID 0000.0001) > mxlSurfFlag=.TRUE.,
(PID.TID 0000.0001) > &
(PID.TID 0000.0001) 
(PID.TID 0000.0001)  GGL90_READPARMS ; starts to read GGL90_PARM01
(PID.TID 0000.0001)  GGL90_READPARMS: read GGL90_PARM01 : OK
(PID.TID 0000.0001)  GGL90_READPARMS: finished reading data.ggl90
(PID.TID 0000.0001) // =======================================================
(PID.TID 0000.0001) // GGL90 configuration
(PID.TID 0000.0001) // =======================================================
(PID.TID 0000.0001) GGL90dumpFreq =   /* GGL90 state write out interval ( s ). */
(PID.TID 0000.0001)                 0.000000000000000E+00
(PID.TID 0000.0001)     ;
(PID.TID 0000.0001) GGL90taveFreq =   /* GGL90 averaging interval ( s ). */
(PID.TID 0000.0001)                 0.000000000000000E+00
(PID.TID 0000.0001)     ;
(PID.TID 0000.0001) GGL90mixingMAPS =   /* GGL90 IO flag. */
(PID.TID 0000.0001)                   F
(PID.TID 0000.0001)     ;
(PID.TID 0000.0001) GGL90writeState =   /* GGL90 IO flag. */
(PID.TID 0000.0001)                   F
(PID.TID 0000.0001)     ;
(PID.TID 0000.0001) GGL90ck =   /* GGL90 viscosity parameter. */
(PID.TID 0000.0001)                 1.000000000000000E-01
(PID.TID 0000.0001)     ;
(PID.TID 0000.0001) GGL90ceps =   /* GGL90 dissipation parameter. */
(PID.TID 0000.0001)                 7.000000000000000E-01
(PID.TID 0000.0001)     ;
(PID.TID 0000.0001) GGL90alpha =   /* GGL90 TKE diffusivity parameter. */
(PID.TID 0000.0001)                 3.000000000000000E+01
(PID.TID 0000.0001)     ;
(PID.TID 0000.0001) GGL90m2 =   /* GGL90 wind stress to vertical stress ratio. */
(PID.TID 0000.0001)                 3.750000000000000E+00
(PID.TID 0000.0001)     ;
(PID.TID 0000.0001) GGL90TKEmin =   /* GGL90 minimum kinetic energy ( m^2/s^2 ). */
(PID.TID 0000.0001)                 1.000000000000000E-07
(PID.TID 0000.0001)     ;
(PID.TID 0000.0001) GGL90TKEsurfMin =   /* GGL90 minimum surface kinetic energy ( m^2/s^2 ). */
(PID.TID 0000.0001)                 1.000000000000000E-04
(PID.TID 0000.0001)     ;
(PID.TID 0000.0001) GGL90TKEbottom =   /* GGL90 bottom kinetic energy ( m^2/s^2 ). */
(PID.TID 0000.0001)                 1.000000000000000E-06
(PID.TID 0000.0001)     ;
(PID.TID 0000.0001) GGL90viscMax =   /* GGL90 upper limit for viscosity ( m^2/s ). */
(PID.TID 0000.0001)                 1.000000000000000E+02
(PID.TID 0000.0001)     ;
(PID.TID 0000.0001) GGL90diffMax =   /* GGL90 upper limit for diffusivity ( m^2/s ). */
(PID.TID 0000.0001)                 1.000000000000000E+02
(PID.TID 0000.0001)     ;
(PID.TID 0000.0001) GGL90diffTKEh =   /* GGL90 horizontal diffusivity for TKE ( m^2/s ). */
(PID.TID 0000.0001)                 0.000000000000000E+00
(PID.TID 0000.0001)     ;
(PID.TID 0000.0001) GGL90mixingLengthMin =   /* GGL90 minimum mixing length ( m ). */
(PID.TID 0000.0001)                 1.000000000000000E-08
(PID.TID 0000.0001)     ;
(PID.TID 0000.0001) mxlMaxFlag =   /* Flag for limiting mixing-length method */
(PID.TID 0000.0001)                       2
(PID.TID 0000.0001)     ;
(PID.TID 0000.0001) mxlSurfFlag =   /* GGL90 flag for near surface mixing. */
(PID.TID 0000.0001)                   T
(PID.TID 0000.0001)     ;
(PID.TID 0000.0001) calcMeanVertShear = /* calc Mean of Vert.Shear (vs shear of Mean flow) */
(PID.TID 0000.0001)                   F
(PID.TID 0000.0001)     ;
(PID.TID 0000.0001) GGL90: GGL90TKEFile =
(PID.TID 0000.0001) GGL90writeState =   /* GGL90 Boundary condition flag. */
(PID.TID 0000.0001)                   T
(PID.TID 0000.0001)     ;
(PID.TID 0000.0001) // =======================================================
(PID.TID 0000.0001) // End of GGL90 config. summary
(PID.TID 0000.0001) // =======================================================
(PID.TID 0000.0001) 
(PID.TID 0000.0001)  GM_READPARMS: opening data.gmredi
(PID.TID 0000.0001)  OPEN_COPY_DATA_FILE: opening file data.gmredi
(PID.TID 0000.0001) // =======================================================
(PID.TID 0000.0001) // Parameter file "data.gmredi"
(PID.TID 0000.0001) // =======================================================
(PID.TID 0000.0001) ># GM+Redi package parameters:
(PID.TID 0000.0001) >#     GM_Small_Number  :: epsilon used in computing the slope
(PID.TID 0000.0001) >#     GM_slopeSqCutoff :: slope^2 cut-off value
(PID.TID 0000.0001) >
(PID.TID 0000.0001) >#-from MOM :
(PID.TID 0000.0001) ># GM_background_K: 	G & Mc.W  diffusion coefficient
(PID.TID 0000.0001) ># GM_maxSlope    :	max slope of isopycnals
(PID.TID 0000.0001) ># GM_Scrit       :	transition for scaling diffusion coefficient
(PID.TID 0000.0001) ># GM_Sd          :	half width scaling for diffusion coefficient
(PID.TID 0000.0001) ># GM_taper_scheme:	slope clipping or one of the tapering schemes
(PID.TID 0000.0001) ># GM_Kmin_horiz  :	horizontal diffusion minimum value
(PID.TID 0000.0001) >
(PID.TID 0000.0001) >#-Option parameters (needs to "define" options in GMREDI_OPTIONS.h")
(PID.TID 0000.0001) ># GM_isopycK     :	isopycnal diffusion coefficient (default=GM_background_K)
(PID.TID 0000.0001) ># GM_AdvForm     :	turn on GM Advective form       (default=Skew flux form)
(PID.TID 0000.0001) >
(PID.TID 0000.0001) > &GM_PARM01
(PID.TID 0000.0001) >  GM_Small_Number  = 1.D-20,
(PID.TID 0000.0001) >  GM_slopeSqCutoff = 1.D+08,
(PID.TID 0000.0001) >  GM_AdvForm         = .TRUE.,
(PID.TID 0000.0001) >  GM_isopycK         = 1.D+3,
(PID.TID 0000.0001) >  GM_background_K    = 1.D+3,
(PID.TID 0000.0001) >  GM_maxSlope        = 4.D-3,
(PID.TID 0000.0001) >  GM_taper_scheme    = 'stableGmAdjTap',
(PID.TID 0000.0001) >  GM_Kmin_horiz      = 100.,
(PID.TID 0000.0001) >  GM_Scrit           = 4.D-3,
(PID.TID 0000.0001) >  GM_Sd              = 1.D-3,
(PID.TID 0000.0001) >#
(PID.TID 0000.0001) >###  GM_Visbeck_alpha   = 1.5D-2,
(PID.TID 0000.0001) >###  GM_Visbeck_alpha   = 0.D0,
(PID.TID 0000.0001) >###  GM_Visbeck_length  = 2.D+5,
(PID.TID 0000.0001) >###  GM_Visbeck_depth   = 1.D+3,
(PID.TID 0000.0001) >###  GM_Visbeck_maxval_K= 2.5D+3,
(PID.TID 0000.0001) > &
(PID.TID 0000.0001) >
(PID.TID 0000.0001) >
(PID.TID 0000.0001) 
(PID.TID 0000.0001)  GM_READPARMS: finished reading data.gmredi
(PID.TID 0000.0001) 
(PID.TID 0000.0001)  SEAICE_READPARMS: opening data.seaice
(PID.TID 0000.0001)  OPEN_COPY_DATA_FILE: opening file data.seaice
(PID.TID 0000.0001) // =======================================================
(PID.TID 0000.0001) // Parameter file "data.seaice"
(PID.TID 0000.0001) // =======================================================
(PID.TID 0000.0001) ># SEAICE parameters
(PID.TID 0000.0001) > &SEAICE_PARM01
(PID.TID 0000.0001) > usePW79thermodynamics= .FALSE.,
(PID.TID 0000.0001) >#  SEAICEuseDYNAMICS = .FALSE.,
(PID.TID 0000.0001) >  SEAICEupdateOceanStress=.FALSE.,
(PID.TID 0000.0001) >#  SEAICEadvHeff  = .FALSE.,
(PID.TID 0000.0001) >#  SEAICEadvArea  = .FALSE.,
(PID.TID 0000.0001) >#  SEAICEadvSnow  = .FALSE.,
(PID.TID 0000.0001) >#  SEAICEadvSalt  = .FALSE.,
(PID.TID 0000.0001) >#--
(PID.TID 0000.0001) > SEAICE_strength    = 2.6780e+04,
(PID.TID 0000.0001) > OCEAN_drag         = 8.1541e-04,
(PID.TID 0000.0001) > SEAICE_waterDrag   = 5.3508,
(PID.TID 0000.0001) > SEAICE_no_Slip     = .FALSE.,
(PID.TID 0000.0001) > LSR_ERROR          = 1.E-12,
(PID.TID 0000.0001) > SEAICElinearIterMax= 1500,
(PID.TID 0000.0001) >#LSR_mixIniGuess    = 1,
(PID.TID 0000.0001) > SEAICEadvScheme    = 77,
(PID.TID 0000.0001) > AreaFile  = 'const100.bin',
(PID.TID 0000.0001) > HeffFile  = 'const+20.bin',
(PID.TID 0000.0001) > HsnowFile = 'const_00.bin',
(PID.TID 0000.0001) > SEAICEwriteState   = .TRUE.,
(PID.TID 0000.0001) >#SEAICE_monFreq = 1800.,
(PID.TID 0000.0001) > &
(PID.TID 0000.0001) >
(PID.TID 0000.0001) > &SEAICE_PARM03
(PID.TID 0000.0001) > &
(PID.TID 0000.0001) 
(PID.TID 0000.0001)  SEAICE_READPARMS: finished reading data.seaice
(PID.TID 0000.0001) OPTIM_READPARMS: opening data.optim
(PID.TID 0000.0001)  OPEN_COPY_DATA_FILE: opening file data.optim
(PID.TID 0000.0001) // =======================================================
(PID.TID 0000.0001) // Parameter file "data.optim"
(PID.TID 0000.0001) // =======================================================
(PID.TID 0000.0001) >#
(PID.TID 0000.0001) ># ********************************
(PID.TID 0000.0001) ># Off-line optimization parameters
(PID.TID 0000.0001) ># ********************************
(PID.TID 0000.0001) > &OPTIM
(PID.TID 0000.0001) > optimcycle=12,
(PID.TID 0000.0001) > &
(PID.TID 0000.0001) 
(PID.TID 0000.0001) OPTIM_READPARMS: finished reading data.optim
(PID.TID 0000.0001) CTRL_READPARMS: opening data.ctrl
(PID.TID 0000.0001)  OPEN_COPY_DATA_FILE: opening file data.ctrl
(PID.TID 0000.0001) // =======================================================
(PID.TID 0000.0001) // Parameter file "data.ctrl"
(PID.TID 0000.0001) // =======================================================
(PID.TID 0000.0001) ># *********************
(PID.TID 0000.0001) ># ECCO control variables
(PID.TID 0000.0001) ># *********************
(PID.TID 0000.0001) > &ctrl_nml
(PID.TID 0000.0001) > doSinglePrecTapelev=.TRUE.,
(PID.TID 0000.0001) >#to start from given xx*00.data files
(PID.TID 0000.0001) >  doinitxx = .FALSE.,
(PID.TID 0000.0001) >  doMainUnpack = .FALSE.,
(PID.TID 0000.0001) >#to start from given ecco_ctrl... files
(PID.TID 0000.0001) ># doinitxx = .FALSE.,
(PID.TID 0000.0001) > &
(PID.TID 0000.0001) >#
(PID.TID 0000.0001) ># *********************
(PID.TID 0000.0001) ># names for ctrl_pack/unpack
(PID.TID 0000.0001) ># *********************
(PID.TID 0000.0001) > &ctrl_packnames
(PID.TID 0000.0001) > &
(PID.TID 0000.0001) >#
(PID.TID 0000.0001) ># *********************
(PID.TID 0000.0001) ># names for CTRL_GENARR2D,3D CTRL_GENTIM2D
(PID.TID 0000.0001) ># *********************
(PID.TID 0000.0001) > &CTRL_NML_GENARR
(PID.TID 0000.0001) >#
(PID.TID 0000.0001) > xx_genarr3d_weight(1) = 'wt_ones.data',
(PID.TID 0000.0001) > xx_genarr3d_file(1)='xx_kapgm',
(PID.TID 0000.0001) > mult_genarr3d(1) = 0.,
(PID.TID 0000.0001) >#
(PID.TID 0000.0001) > xx_genarr3d_weight(2) = 'wt_ones.data',
(PID.TID 0000.0001) > xx_genarr3d_file(2)='xx_kapredi',
(PID.TID 0000.0001) > mult_genarr3d(2) = 0.,
(PID.TID 0000.0001) >#
(PID.TID 0000.0001) > xx_genarr3d_weight(3) = 'wt_ones.data',
(PID.TID 0000.0001) > xx_genarr3d_file(3)='xx_diffkr',
(PID.TID 0000.0001) > mult_genarr3d(3) = 0.,
(PID.TID 0000.0001) >#
(PID.TID 0000.0001) > &
(PID.TID 0000.0001) 
(PID.TID 0000.0001) CTRL_READPARMS: finished reading data.ctrl
(PID.TID 0000.0001)  DIAGNOSTICS_READPARMS: opening data.diagnostics
(PID.TID 0000.0001)  OPEN_COPY_DATA_FILE: opening file data.diagnostics
(PID.TID 0000.0001) // =======================================================
(PID.TID 0000.0001) // Parameter file "data.diagnostics"
(PID.TID 0000.0001) // =======================================================
(PID.TID 0000.0001) ># Diagnostic Package Choices
(PID.TID 0000.0001) >#--------------------
(PID.TID 0000.0001) >#  dumpAtLast (logical): always write output at the end of simulation (default=F)
(PID.TID 0000.0001) >#  diag_mnc   (logical): write to NetCDF files (default=useMNC)
(PID.TID 0000.0001) >#--for each output-stream:
(PID.TID 0000.0001) >#  fileName(n) : prefix of the output file name (max 80c long) for outp.stream n
(PID.TID 0000.0001) >#  frequency(n):< 0 : write snap-shot output every |frequency| seconds
(PID.TID 0000.0001) >#               > 0 : write time-average output every frequency seconds
(PID.TID 0000.0001) >#  timePhase(n)     : write at time = timePhase + multiple of |frequency|
(PID.TID 0000.0001) >#    averagingFreq  : frequency (in s) for periodic averaging interval
(PID.TID 0000.0001) >#    averagingPhase : phase     (in s) for periodic averaging interval
(PID.TID 0000.0001) >#    repeatCycle    : number of averaging intervals in 1 cycle
(PID.TID 0000.0001) >#  levels(:,n) : list of levels to write to file (Notes: declared as REAL)
(PID.TID 0000.0001) >#                when this entry is missing, select all common levels of this list
(PID.TID 0000.0001) >#  fields(:,n) : list of selected diagnostics fields (8.c) in outp.stream n
(PID.TID 0000.0001) >#                (see "available_diagnostics.log" file for the full list of diags)
(PID.TID 0000.0001) >#  missing_value(n) : missing value for real-type fields in output file "n"
(PID.TID 0000.0001) >#  fileFlags(n)     : specific code (8c string) for output file "n"
(PID.TID 0000.0001) >#--------------------
(PID.TID 0000.0001) ># This example dumps EXF diagnostics as snapshot after 10 time-steps
(PID.TID 0000.0001) ># Note: EXF air-sea fluxes over Sea-Ice are wrong
(PID.TID 0000.0001) > &DIAGNOSTICS_LIST
(PID.TID 0000.0001) >   dumpAtLast  = .TRUE.,
(PID.TID 0000.0001) >#--
(PID.TID 0000.0001) >    fields(1:10,1)  = 'oceQnet ','oceQsw  ','oceFWflx','oceSflux',
(PID.TID 0000.0001) >                      'oceTAUX ','oceTAUY ',
(PID.TID 0000.0001) >                      'THETA   ','SALT    ','UVEL    ', 'VVEL    ',
(PID.TID 0000.0001) >   fileName(1) = 'surfDiag',
(PID.TID 0000.0001) >  frequency(1) = 3600.,
(PID.TID 0000.0001) >
(PID.TID 0000.0001) >  fields(1:8,2)  = 'SIarea  ','SIheff  ','SIhsnow ','sIceLoad',
(PID.TID 0000.0001) >                   'SIuice  ','SIvice  ','SItaux  ','SItauy  ',
(PID.TID 0000.0001) >   fileName(2) = 'iceDiag',
(PID.TID 0000.0001) >  frequency(2) =  3600.,
(PID.TID 0000.0001) >  missing_value(2) = -999.,
(PID.TID 0000.0001) >
(PID.TID 0000.0001) >  fields(1:8,3)  = 'SIarea  ','SIheff  ','SIhsnow ','sIceLoad',
(PID.TID 0000.0001) >                   'SIuice  ','SIvice  ','SItaux  ','SItauy  ',
(PID.TID 0000.0001) >#   fileName(3) = 'iceInst',
(PID.TID 0000.0001) >  frequency(3) = -900.,
(PID.TID 0000.0001) ># timePhase(3) =  3600.,
(PID.TID 0000.0001) >  missing_value(3) = -999.,
(PID.TID 0000.0001) >
(PID.TID 0000.0001) >  fields(1:3,4)  = 'SIareaN  ','SIheffN  ','SIhsnowN ',
(PID.TID 0000.0001) >  fileName(4) = 'iceNcat',
(PID.TID 0000.0001) >  frequency(4) =  3600.,
(PID.TID 0000.0001) >  missing_value(4) = -999.,
(PID.TID 0000.0001) >
(PID.TID 0000.0001) >&
(PID.TID 0000.0001) >#--------------------
(PID.TID 0000.0001) ># Parameter for Diagnostics of per level statistics:
(PID.TID 0000.0001) >#--------------------
(PID.TID 0000.0001) >#  diagSt_mnc (logical): write stat-diags to NetCDF files (default=diag_mnc)
(PID.TID 0000.0001) >#  diagSt_regMaskFile : file containing the region-mask to read-in
(PID.TID 0000.0001) >#  nSetRegMskFile   : number of region-mask sets within the region-mask file
(PID.TID 0000.0001) >#  set_regMask(i)   : region-mask set-index that identifies the region "i"
(PID.TID 0000.0001) >#  val_regMask(i)   : region "i" identifier value in the region mask
(PID.TID 0000.0001) >#--for each output-stream:
(PID.TID 0000.0001) >#  stat_fName(n) : prefix of the output file name (max 80c long) for outp.stream n
(PID.TID 0000.0001) >#  stat_freq(n):< 0 : write snap-shot output every |stat_freq| seconds
(PID.TID 0000.0001) >#               > 0 : write time-average output every stat_freq seconds
(PID.TID 0000.0001) >#  stat_phase(n)    : write at time = stat_phase + multiple of |stat_freq|
(PID.TID 0000.0001) >#  stat_region(:,n) : list of "regions" (default: 1 region only=global)
(PID.TID 0000.0001) >#  stat_fields(:,n) : list of selected diagnostics fields (8.c) in outp.stream n
(PID.TID 0000.0001) >#                (see "available_diagnostics.log" file for the full list of diags)
(PID.TID 0000.0001) >#--------------------
(PID.TID 0000.0001) > &DIAG_STATIS_PARMS
(PID.TID 0000.0001) > stat_fields(1:8,1)  = 'SIarea  ','SIheff  ','SIhsnow ','sIceLoad',
(PID.TID 0000.0001) >                       'SIuice  ','SIvice  ','SItaux  ','SItauy  ',
(PID.TID 0000.0001) >  stat_fName(1) = 'iceStDiag',
(PID.TID 0000.0001) >   stat_freq(1) =  900.,
(PID.TID 0000.0001) ># stat_phase(1) = 1800.,
(PID.TID 0000.0001) > &
(PID.TID 0000.0001) 
(PID.TID 0000.0001) S/R DIAGNOSTICS_READPARMS, read namelist "diagnostics_list": start
(PID.TID 0000.0001) S/R DIAGNOSTICS_READPARMS, read namelist "diagnostics_list": OK
(PID.TID 0000.0001) S/R DIAGNOSTICS_READPARMS, read namelist "DIAG_STATIS_PARMS": start
(PID.TID 0000.0001) S/R DIAGNOSTICS_READPARMS, read namelist "DIAG_STATIS_PARMS": OK
(PID.TID 0000.0001)  DIAGNOSTICS_READPARMS: global parameter summary:
(PID.TID 0000.0001)  dumpAtLast = /* always write time-ave diags at the end */
(PID.TID 0000.0001)                   T
(PID.TID 0000.0001)     ;
(PID.TID 0000.0001)  diag_mnc =   /* write NetCDF output files */
(PID.TID 0000.0001)                   F
(PID.TID 0000.0001)     ;
(PID.TID 0000.0001)  useMissingValue = /* put MissingValue where mask = 0 */
(PID.TID 0000.0001)                   F
(PID.TID 0000.0001)     ;
(PID.TID 0000.0001)  diagCG_maxIters = /* max number of iters in diag_cg2d */
(PID.TID 0000.0001)                     300
(PID.TID 0000.0001)     ;
(PID.TID 0000.0001)  diagCG_resTarget = /* residual target for diag_cg2d */
(PID.TID 0000.0001)                 1.000000000000000E-07
(PID.TID 0000.0001)     ;
(PID.TID 0000.0001)  diagCG_pcOffDFac = /* preconditioner off-diagonal factor */
(PID.TID 0000.0001)                 9.611687812379854E-01
(PID.TID 0000.0001)     ;
(PID.TID 0000.0001) -----------------------------------------------------
(PID.TID 0000.0001)  DIAGNOSTICS_READPARMS: active diagnostics summary:
(PID.TID 0000.0001) -----------------------------------------------------
(PID.TID 0000.0001) Creating Output Stream: surfDiag
(PID.TID 0000.0001) Output Frequency:       3600.000000 ; Phase:           0.000000
(PID.TID 0000.0001)  Averaging Freq.:       3600.000000 , Phase:           0.000000 , Cycle:   1
(PID.TID 0000.0001)  missing value: -9.990000000000E+02
(PID.TID 0000.0001)  Levels:    will be set later
(PID.TID 0000.0001)  Fields:    oceQnet  oceQsw   oceFWflx oceSflux oceTAUX  oceTAUY  THETA    SALT     UVEL     VVEL
(PID.TID 0000.0001) Creating Output Stream: iceDiag
(PID.TID 0000.0001) Output Frequency:       3600.000000 ; Phase:           0.000000
(PID.TID 0000.0001)  Averaging Freq.:       3600.000000 , Phase:           0.000000 , Cycle:   1
(PID.TID 0000.0001)  missing value: -9.990000000000E+02
(PID.TID 0000.0001)  Levels:    will be set later
(PID.TID 0000.0001)  Fields:    SIarea   SIheff   SIhsnow  sIceLoad SIuice   SIvice   SItaux   SItauy
(PID.TID 0000.0001) Creating Output Stream: iceNcat
(PID.TID 0000.0001) Output Frequency:       3600.000000 ; Phase:           0.000000
(PID.TID 0000.0001)  Averaging Freq.:       3600.000000 , Phase:           0.000000 , Cycle:   1
(PID.TID 0000.0001)  missing value: -9.990000000000E+02
(PID.TID 0000.0001)  Levels:    will be set later
(PID.TID 0000.0001)  Fields:    SIareaN  SIheffN  SIhsnowN
(PID.TID 0000.0001) -----------------------------------------------------
(PID.TID 0000.0001)  DIAGNOSTICS_READPARMS: statistics diags. summary:
(PID.TID 0000.0001) Creating Stats. Output Stream: iceStDiag
(PID.TID 0000.0001) Output Frequency:        900.000000 ; Phase:           0.000000
(PID.TID 0000.0001)  Regions:   0
(PID.TID 0000.0001)  Fields:    SIarea   SIheff   SIhsnow  sIceLoad SIuice   SIvice   SItaux   SItauy
(PID.TID 0000.0001) -----------------------------------------------------
(PID.TID 0000.0001) 
(PID.TID 0000.0001) SET_PARMS: done
(PID.TID 0000.0001) Enter INI_VERTICAL_GRID: setInterFDr=    T ; setCenterDr=    F
(PID.TID 0000.0001) tile:   4 ; Read from file tile001.mitgrid
(PID.TID 0000.0001)   => xC yC dxF dyF rA xG yG dxV dyU rAz dxC dyC rAw rAs dxG dyG
(PID.TID 0000.0001) %MON XC_max                       =   1.7997758946678E+02
(PID.TID 0000.0001) %MON XC_min                       =  -1.7998895680928E+02
(PID.TID 0000.0001) %MON XC_mean                      =  -6.8997670631350E+00
(PID.TID 0000.0001) %MON XC_sd                        =   1.0548127462941E+02
(PID.TID 0000.0001) %MON XG_max                       =   1.8000000000000E+02
(PID.TID 0000.0001) %MON XG_min                       =  -1.7999919444240E+02
(PID.TID 0000.0001) %MON XG_mean                      =  -6.3521159278861E+00
(PID.TID 0000.0001) %MON XG_sd                        =   1.0549598176576E+02
(PID.TID 0000.0001) %MON DXC_max                      =   1.1117680031365E+05
(PID.TID 0000.0001) %MON DXC_min                      =   1.3362789164732E+04
(PID.TID 0000.0001) %MON DXC_mean                     =   7.1345115143606E+04
(PID.TID 0000.0001) %MON DXC_sd                       =   2.6107013089865E+04
(PID.TID 0000.0001) %MON DXF_max                      =   1.1117680031365E+05
(PID.TID 0000.0001) %MON DXF_min                      =   1.3491575949394E+04
(PID.TID 0000.0001) %MON DXF_mean                     =   7.1334806791260E+04
(PID.TID 0000.0001) %MON DXF_sd                       =   2.6121349328995E+04
(PID.TID 0000.0001) %MON DXG_max                      =   1.1117747335204E+05
(PID.TID 0000.0001) %MON DXG_min                      =   1.0930409249570E+04
(PID.TID 0000.0001) %MON DXG_mean                     =   7.1313583950284E+04
(PID.TID 0000.0001) %MON DXG_sd                       =   2.6131714747840E+04
(PID.TID 0000.0001) %MON DXV_max                      =   1.1117747335204E+05
(PID.TID 0000.0001) %MON DXV_min                      =   9.4742518926426E+03
(PID.TID 0000.0001) %MON DXV_mean                     =   7.1323777998314E+04
(PID.TID 0000.0001) %MON DXV_sd                       =   2.6117603792432E+04
(PID.TID 0000.0001) %MON YC_max                       =   8.9739397429324E+01
(PID.TID 0000.0001) %MON YC_min                       =  -8.1637173529390E+01
(PID.TID 0000.0001) %MON YC_mean                      =  -5.9338515025079E-01
(PID.TID 0000.0001) %MON YC_sd                        =   5.1058908630085E+01
(PID.TID 0000.0001) %MON YG_max                       =   9.0000000000000E+01
(PID.TID 0000.0001) %MON YG_min                       =  -8.1805478609906E+01
(PID.TID 0000.0001) %MON YG_mean                      =  -5.7357831765458E-01
(PID.TID 0000.0001) %MON YG_sd                        =   5.1060174609345E+01
(PID.TID 0000.0001) %MON DYC_max                      =   1.1117680031365E+05
(PID.TID 0000.0001) %MON DYC_min                      =   1.3362789164732E+04
(PID.TID 0000.0001) %MON DYC_mean                     =   7.0982792089666E+04
(PID.TID 0000.0001) %MON DYC_sd                       =   2.6607387075348E+04
(PID.TID 0000.0001) %MON DYF_max                      =   1.1117680031365E+05
(PID.TID 0000.0001) %MON DYF_min                      =   1.3491575949394E+04
(PID.TID 0000.0001) %MON DYF_mean                     =   7.1000127494934E+04
(PID.TID 0000.0001) %MON DYF_sd                       =   2.6603606017547E+04
(PID.TID 0000.0001) %MON DYG_max                      =   1.1117747335204E+05
(PID.TID 0000.0001) %MON DYG_min                      =   1.0930409249570E+04
(PID.TID 0000.0001) %MON DYG_mean                     =   7.1022116512585E+04
(PID.TID 0000.0001) %MON DYG_sd                       =   2.6571715830406E+04
(PID.TID 0000.0001) %MON DYU_max                      =   1.1117747335204E+05
(PID.TID 0000.0001) %MON DYU_min                      =   9.4742518926426E+03
(PID.TID 0000.0001) %MON DYU_mean                     =   7.1004694583927E+04
(PID.TID 0000.0001) %MON DYU_sd                       =   2.6575655787476E+04
(PID.TID 0000.0001) %MON RA_max                       =   1.1896090857160E+10
(PID.TID 0000.0001) %MON RA_min                       =   2.1263387742345E+08
(PID.TID 0000.0001) %MON RA_mean                      =   5.6344293572480E+09
(PID.TID 0000.0001) %MON RA_sd                        =   3.5929461176606E+09
(PID.TID 0000.0001) %MON RAW_max                      =   1.1896090856781E+10
(PID.TID 0000.0001) %MON RAW_min                      =   1.7369571508711E+08
(PID.TID 0000.0001) %MON RAW_mean                     =   5.6355850434318E+09
(PID.TID 0000.0001) %MON RAW_sd                       =   3.5915487677190E+09
(PID.TID 0000.0001) %MON RAS_max                      =   1.1896090856781E+10
(PID.TID 0000.0001) %MON RAS_min                      =   1.7369571508711E+08
(PID.TID 0000.0001) %MON RAS_mean                     =   5.6320332286162E+09
(PID.TID 0000.0001) %MON RAS_sd                       =   3.5937184228135E+09
(PID.TID 0000.0001) %MON RAZ_max                      =   1.1891903479271E+10
(PID.TID 0000.0001) %MON RAZ_min                      =   1.0413402423292E+08
(PID.TID 0000.0001) %MON RAZ_mean                     =   5.6331824674695E+09
(PID.TID 0000.0001) %MON RAZ_sd                       =   3.5923307220197E+09
(PID.TID 0000.0001) %MON AngleCS_max                  =   1.0000000000000E+00
(PID.TID 0000.0001) %MON AngleCS_min                  =  -9.9996641938864E-01
(PID.TID 0000.0001) %MON AngleCS_mean                 =   4.0572930529500E-01
(PID.TID 0000.0001) %MON AngleCS_sd                   =   5.3874397836718E-01
(PID.TID 0000.0001) %MON AngleSN_max                  =   9.9996641938864E-01
(PID.TID 0000.0001) %MON AngleSN_min                  =  -1.0000000000000E+00
(PID.TID 0000.0001) %MON AngleSN_mean                 =  -4.9986154624599E-01
(PID.TID 0000.0001) %MON AngleSN_sd                   =   5.4339404779819E-01
(PID.TID 0000.0001)  MDS_READ_FIELD: opening global file: bathy.bin
(PID.TID 0000.0001) // =======================================================
(PID.TID 0000.0001) // Field Model R_low (ini_masks_etc)
(PID.TID 0000.0001) // CMIN =         -4.798482910156250E+03
(PID.TID 0000.0001) // CMAX =         -1.998999977111816E+01
(PID.TID 0000.0001) // CINT =          1.769812189031530E+02
(PID.TID 0000.0001) // SYMBOLS (CMIN->CMAX): -abcdefghijklmnopqrstuvwxyz+
(PID.TID 0000.0001) //                  0.0: .
(PID.TID 0000.0001) // RANGE I (Lo:Hi:Step):(    -3:    34:     1)
(PID.TID 0000.0001) // RANGE J (Lo:Hi:Step):(    34:    -3:    -1)
(PID.TID 0000.0001) // RANGE K (Lo:Hi:Step):(   1:   1:   1)
(PID.TID 0000.0001) // =======================================================
(PID.TID 0000.0001) K =   1
(PID.TID 0000.0001) //                I=6       I=16      I=26
(PID.TID 0000.0001) // |--J--|321012345|789012345|789012345|78901234
(PID.TID 0000.0001) //     34 ddccccbbbbbaaaaa--------------abdehjjh
(PID.TID 0000.0001) //     33 eddccccbbbbaaaaaaaaa---------abdefikmk
(PID.TID 0000.0001) //     32 eeddccccbbbbaaaaaaaaaaaaaa--abcfiijlnm
(PID.TID 0000.0001) //     31 eedddcccbbbbbaaaaabbaaaaaaa-bdgknm....
(PID.TID 0000.0001) //     30 feedddcccccbbbbbbbbbbbaaaaabfknpr.....
(PID.TID 0000.0001) //     29 feeddddddcccbbbcccbbbbbbbceilor.......
(PID.TID 0000.0001) //     28 gfeeeeeeddcccccdcccccbbceilnqu........
(PID.TID 0000.0001) //     27 hggfffffeeeeeddddddcccdfimpyy.........
(PID.TID 0000.0001) //     26 jihgggggffffeeeeeeddddfimsyy..........
(PID.TID 0000.0001) //     25 lkihhhgggggfeeeffeeefginuz............
(PID.TID 0000.0001) //     24 nmkjiihhghhgfffgggghjl+...............
(PID.TID 0000.0001) //     23 qonmkkjiiiiihhhihikmqz................
(PID.TID 0000.0001) //     22 tsqpnmlllmllkkkjknsxz.................
(PID.TID 0000.0001) //     21 wwvusppprrrponmlny+z..................
(PID.TID 0000.0001) //     20 yyyxxwvwwwwvusrwx.....................
(PID.TID 0000.0001) //     19 yyyyyyxxxxxxxxyyx.....................
(PID.TID 0000.0001) //     18 yyyyyyxxxwxxyyyyy.....................
(PID.TID 0000.0001) //     17 yyyyyxxxwwxxyyy.......................
(PID.TID 0000.0001) //     16 yyyxxxwwwwxyyyy.......................
(PID.TID 0000.0001) //     15 yyxxwwvvwxyyz.........................
(PID.TID 0000.0001) //     14 yxxwwvvvwyz...........................
(PID.TID 0000.0001) //     13 xxwwvuvwy.............................
(PID.TID 0000.0001) //     12 xwwvuuvx..............................
(PID.TID 0000.0001) //     11 yxvuuuw...............................
(PID.TID 0000.0001) //     10 ......................................
(PID.TID 0000.0001) //      9 ......................................
(PID.TID 0000.0001) //      8 ......................................
(PID.TID 0000.0001) //      7 ......................................
(PID.TID 0000.0001) //      6 ......................................
(PID.TID 0000.0001) //      5 ......................................
(PID.TID 0000.0001) //      4 ......................................
(PID.TID 0000.0001) //      3 ......................................
(PID.TID 0000.0001) //      2 ......................................
(PID.TID 0000.0001) //      1 ......................................
(PID.TID 0000.0001) //      0 ......................................
(PID.TID 0000.0001) //     -1 ......................................
(PID.TID 0000.0001) //     -2 ......................................
(PID.TID 0000.0001) //     -3 ......................................
(PID.TID 0000.0001) // =======================================================
(PID.TID 0000.0001) // END OF FIELD                                          =
(PID.TID 0000.0001) // =======================================================
(PID.TID 0000.0001) 
(PID.TID 0000.0001) // =======================================================
(PID.TID 0000.0001) // Field Model Ro_surf (ini_masks_etc)
(PID.TID 0000.0001) // CMIN =          1.000000000000000E+32
(PID.TID 0000.0001) // CMAX =         -1.000000000000000E+32
(PID.TID 0000.0001) // CINT =          0.000000000000000E+00
(PID.TID 0000.0001) // SYMBOLS (CMIN->CMAX): -abcdefghijklmnopqrstuvwxyz+
(PID.TID 0000.0001) //                  0.0: .
(PID.TID 0000.0001) // RANGE I (Lo:Hi:Step):(    -3:    34:     1)
(PID.TID 0000.0001) // RANGE J (Lo:Hi:Step):(    34:    -3:    -1)
(PID.TID 0000.0001) // RANGE K (Lo:Hi:Step):(   1:   1:   1)
(PID.TID 0000.0001) // =======================================================
(PID.TID 0000.0001) // =======================================================
(PID.TID 0000.0001) // END OF FIELD                                          =
(PID.TID 0000.0001) // =======================================================
(PID.TID 0000.0001) 
(PID.TID 0000.0001) // =======================================================
(PID.TID 0000.0001) // Field hFacC at iteration          0
(PID.TID 0000.0001) // CMIN =          1.000000000000000E+00
(PID.TID 0000.0001) // CMAX =          1.000000000000000E+00
(PID.TID 0000.0001) // CINT =          0.000000000000000E+00
(PID.TID 0000.0001) // SYMBOLS (CMIN->CMAX): -abcdefghijklmnopqrstuvwxyz+
(PID.TID 0000.0001) //                  0.0: .
(PID.TID 0000.0001) // RANGE I (Lo:Hi:Step):(    -3:    34:     1)
(PID.TID 0000.0001) // RANGE J (Lo:Hi:Step):(    34:    -3:    -1)
(PID.TID 0000.0001) // RANGE K (Lo:Hi:Step):(   1:   1:   1)
(PID.TID 0000.0001) // =======================================================
(PID.TID 0000.0001) // =======================================================
(PID.TID 0000.0001) // END OF FIELD                                          =
(PID.TID 0000.0001) // =======================================================
(PID.TID 0000.0001) 
(PID.TID 0000.0001) // =======================================================
(PID.TID 0000.0001) // Field hFacW at iteration          0
(PID.TID 0000.0001) // CMIN =          1.000000000000000E+00
(PID.TID 0000.0001) // CMAX =          1.000000000000000E+00
(PID.TID 0000.0001) // CINT =          0.000000000000000E+00
(PID.TID 0000.0001) // SYMBOLS (CMIN->CMAX): -abcdefghijklmnopqrstuvwxyz+
(PID.TID 0000.0001) //                  0.0: .
(PID.TID 0000.0001) // RANGE I (Lo:Hi:Step):(    -3:    34:     1)
(PID.TID 0000.0001) // RANGE J (Lo:Hi:Step):(    34:    -3:    -1)
(PID.TID 0000.0001) // RANGE K (Lo:Hi:Step):(   1:   1:   1)
(PID.TID 0000.0001) // =======================================================
(PID.TID 0000.0001) // =======================================================
(PID.TID 0000.0001) // END OF FIELD                                          =
(PID.TID 0000.0001) // =======================================================
(PID.TID 0000.0001) 
(PID.TID 0000.0001) // =======================================================
(PID.TID 0000.0001) // Field hFacS at iteration          0
(PID.TID 0000.0001) // CMIN =          1.000000000000000E+00
(PID.TID 0000.0001) // CMAX =          1.000000000000000E+00
(PID.TID 0000.0001) // CINT =          0.000000000000000E+00
(PID.TID 0000.0001) // SYMBOLS (CMIN->CMAX): -abcdefghijklmnopqrstuvwxyz+
(PID.TID 0000.0001) //                  0.0: .
(PID.TID 0000.0001) // RANGE I (Lo:Hi:Step):(    -3:    34:     1)
(PID.TID 0000.0001) // RANGE J (Lo:Hi:Step):(    34:    -3:    -1)
(PID.TID 0000.0001) // RANGE K (Lo:Hi:Step):(   1:   1:   1)
(PID.TID 0000.0001) // =======================================================
(PID.TID 0000.0001) // =======================================================
(PID.TID 0000.0001) // END OF FIELD                                          =
(PID.TID 0000.0001) // =======================================================
(PID.TID 0000.0001) 
(PID.TID 0000.0001) GAD_INIT_FIXED: GAD_OlMinSize=  2  0  2
(PID.TID 0000.0001) 
(PID.TID 0000.0001) // ===================================
(PID.TID 0000.0001) // GAD parameters :
(PID.TID 0000.0001) // ===================================
(PID.TID 0000.0001) tempAdvScheme =   /* Temp. Horiz.Advection scheme selector */
(PID.TID 0000.0001)                      30
(PID.TID 0000.0001)     ;
(PID.TID 0000.0001) tempVertAdvScheme =   /* Temp. Vert. Advection scheme selector */
(PID.TID 0000.0001)                       3
(PID.TID 0000.0001)     ;
(PID.TID 0000.0001) tempMultiDimAdvec =   /* use Muti-Dim Advec method for Temp */
(PID.TID 0000.0001)                   T
(PID.TID 0000.0001)     ;
(PID.TID 0000.0001) tempSOM_Advection = /* use 2nd Order Moment Advection for Temp */
(PID.TID 0000.0001)                   F
(PID.TID 0000.0001)     ;
(PID.TID 0000.0001) AdamsBashforthGt = /* apply Adams-Bashforth extrapolation on Gt */
(PID.TID 0000.0001)                   F
(PID.TID 0000.0001)     ;
(PID.TID 0000.0001) AdamsBashforth_T = /* apply Adams-Bashforth extrapolation on Temp */
(PID.TID 0000.0001)                   F
(PID.TID 0000.0001)     ;
(PID.TID 0000.0001) saltAdvScheme =   /* Salt. Horiz.advection scheme selector */
(PID.TID 0000.0001)                      30
(PID.TID 0000.0001)     ;
(PID.TID 0000.0001) saltVertAdvScheme =   /* Salt. Vert. Advection scheme selector */
(PID.TID 0000.0001)                       3
(PID.TID 0000.0001)     ;
(PID.TID 0000.0001) saltMultiDimAdvec =   /* use Muti-Dim Advec method for Salt */
(PID.TID 0000.0001)                   T
(PID.TID 0000.0001)     ;
(PID.TID 0000.0001) saltSOM_Advection = /* use 2nd Order Moment Advection for Salt */
(PID.TID 0000.0001)                   F
(PID.TID 0000.0001)     ;
(PID.TID 0000.0001) AdamsBashforthGs = /* apply Adams-Bashforth extrapolation on Gs */
(PID.TID 0000.0001)                   F
(PID.TID 0000.0001)     ;
(PID.TID 0000.0001) AdamsBashforth_S = /* apply Adams-Bashforth extrapolation on Salt */
(PID.TID 0000.0001)                   F
(PID.TID 0000.0001)     ;
(PID.TID 0000.0001) // ===================================
(PID.TID 0000.0001)  MDS_READ_FIELD: opening global file: viscA4Dfld.bin
(PID.TID 0000.0001)  MDS_READ_FIELD: opening global file: viscA4Zfld.bin
(PID.TID 0000.0001)  SEAICE_INIT_FIXED:  5 sea ice thickness categories
(PID.TID 0000.0001)  SEAICE_INIT_FIXED: Hlimit =   0.00  0.64  1.39  2.47  4.57 999.9
(PID.TID 0000.0001) // =======================================================
(PID.TID 0000.0001) // Seaice configuration (SEAICE_PARM01) >>> START <<<
(PID.TID 0000.0001) // =======================================================
(PID.TID 0000.0001) 
(PID.TID 0000.0001)    Seaice time stepping configuration   > START <
(PID.TID 0000.0001)    ----------------------------------------------
(PID.TID 0000.0001) SEAICE_deltaTtherm= /* thermodynamic timestep */
(PID.TID 0000.0001)                 9.000000000000000E+02
(PID.TID 0000.0001)     ;
(PID.TID 0000.0001) SEAICE_deltaTdyn  = /* dynamic timestep */
(PID.TID 0000.0001)                 9.000000000000000E+02
(PID.TID 0000.0001)     ;
(PID.TID 0000.0001) SEAICE_deltaTevp  = /* EVP timestep */
(PID.TID 0000.0001)                 1.234567000000000E+05
(PID.TID 0000.0001)     ;
(PID.TID 0000.0001) SEAICEuseBDF2  = /* use backw. differencing for mom. eq. */
(PID.TID 0000.0001)                   F
(PID.TID 0000.0001)     ;
(PID.TID 0000.0001) SEAICEupdateOceanStress= /* update Ocean surf. stress */
(PID.TID 0000.0001)                   F
(PID.TID 0000.0001)     ;
(PID.TID 0000.0001) SEAICErestoreUnderIce  = /* restore T and S under ice */
(PID.TID 0000.0001)                   F
(PID.TID 0000.0001)     ;
(PID.TID 0000.0001) 
(PID.TID 0000.0001)    Seaice dynamics configuration   > START <
(PID.TID 0000.0001)    ------------------------------------------
(PID.TID 0000.0001) SEAICEuseDYNAMICS = /* use dynamics */
(PID.TID 0000.0001)                   T
(PID.TID 0000.0001)     ;
(PID.TID 0000.0001) model grid type   = /* type of sea ice model grid */
(PID.TID 0000.0001)               'C-GRID'
(PID.TID 0000.0001)     ;
(PID.TID 0000.0001) SEAICEuseStrImpCpl = /* use strongly implicit coupling */
(PID.TID 0000.0001)                   F
(PID.TID 0000.0001)     ;
(PID.TID 0000.0001) SEAICEusePicardAsPrecon = /* Picard as preconditioner */
(PID.TID 0000.0001)                   F
(PID.TID 0000.0001)     ;
(PID.TID 0000.0001) SEAICEuseLSR      = /* use default Picard-LSR solver */
(PID.TID 0000.0001)                   T
(PID.TID 0000.0001)     ;
(PID.TID 0000.0001) SEAICEuseKrylov   = /* use Picard-Krylov solver */
(PID.TID 0000.0001)                   F
(PID.TID 0000.0001)     ;
(PID.TID 0000.0001) SEAICEuseEVP      = /* use EVP solver rather than LSR */
(PID.TID 0000.0001)                   F
(PID.TID 0000.0001)     ;
(PID.TID 0000.0001) SEAICEuseJFNK     = /* use JFNK solver */
(PID.TID 0000.0001)                   F
(PID.TID 0000.0001)     ;
(PID.TID 0000.0001) OCEAN_drag        = /* air-ocean drag coefficient */
(PID.TID 0000.0001)                 8.154100000000000E-04
(PID.TID 0000.0001)     ;
(PID.TID 0000.0001) SEAICE_drag       = /* air-ice drag coefficient */
(PID.TID 0000.0001)                 2.000000000000000E-03
(PID.TID 0000.0001)     ;
(PID.TID 0000.0001) SEAICE_drag_south      = /* Southern Ocean SEAICE_drag */
(PID.TID 0000.0001)                 2.000000000000000E-03
(PID.TID 0000.0001)     ;
(PID.TID 0000.0001) SEAICE_waterDrag  = /* water-ice drag * density */
(PID.TID 0000.0001)                 5.350800000000000E+00
(PID.TID 0000.0001)     ;
(PID.TID 0000.0001) SEAICE_waterDrag_south = /* Southern Ocean waterDrag */
(PID.TID 0000.0001)                 5.350800000000000E+00
(PID.TID 0000.0001)     ;
(PID.TID 0000.0001) SEAICEuseTilt     = /* include surface tilt in dyna. */
(PID.TID 0000.0001)                   T
(PID.TID 0000.0001)     ;
(PID.TID 0000.0001) SEAICEuseTEM      = /* use truncated ellipse rheology */
(PID.TID 0000.0001)                   F
(PID.TID 0000.0001)     ;
(PID.TID 0000.0001) SEAICE_strength   = /* sea-ice strength Pstar */
(PID.TID 0000.0001)                 2.678000000000000E+04
(PID.TID 0000.0001)     ;
(PID.TID 0000.0001) SEAICE_cStar      = /* sea-ice strength parameter cStar */
(PID.TID 0000.0001)                 2.000000000000000E+01
(PID.TID 0000.0001)     ;
(PID.TID 0000.0001) SEAICEpressReplFac= /* press. replacement method factor */
(PID.TID 0000.0001)                 1.000000000000000E+00
(PID.TID 0000.0001)     ;
(PID.TID 0000.0001) SEAICE_tensilFac  = /* sea-ice tensile strength factor */
(PID.TID 0000.0001)                 0.000000000000000E+00
(PID.TID 0000.0001)     ;
(PID.TID 0000.0001) SEAICE_tensilDepth= /* crit. depth for tensile strength */
(PID.TID 0000.0001)                 0.000000000000000E+00
(PID.TID 0000.0001)     ;
(PID.TID 0000.0001) SEAICEpresH0   = /* sea-ice strength Heff threshold */
(PID.TID 0000.0001)                 1.000000000000000E+00
(PID.TID 0000.0001)     ;
(PID.TID 0000.0001) SEAICEpresPow0 = /* exponent for Heff<SEAICEpresH0 */
(PID.TID 0000.0001)                       1
(PID.TID 0000.0001)     ;
(PID.TID 0000.0001) SEAICEpresPow1 = /* exponent for Heff>SEAICEpresH0 */
(PID.TID 0000.0001)                       1
(PID.TID 0000.0001)     ;
(PID.TID 0000.0001) SEAICEetaZmethod = /* method computing eta at Z-point */
(PID.TID 0000.0001)                       0
(PID.TID 0000.0001)     ;
(PID.TID 0000.0001) SEAICE_zetaMin    = /* lower bound for viscosity */
(PID.TID 0000.0001)                 0.000000000000000E+00
(PID.TID 0000.0001)     ;
(PID.TID 0000.0001) SEAICE_eccen    = /* elliptical yield curve eccent */
(PID.TID 0000.0001)                 2.000000000000000E+00
(PID.TID 0000.0001)     ;
(PID.TID 0000.0001) SEAICEstressFactor    = /* wind stress scaling factor */
(PID.TID 0000.0001)                 1.000000000000000E+00
(PID.TID 0000.0001)     ;
(PID.TID 0000.0001) SEAICE_airTurnAngle    = /* air-ice turning angle */
(PID.TID 0000.0001)                 0.000000000000000E+00
(PID.TID 0000.0001)     ;
(PID.TID 0000.0001) SEAICE_waterTurnAngle  = /* ice-water turning angle */
(PID.TID 0000.0001)                 0.000000000000000E+00
(PID.TID 0000.0001)     ;
(PID.TID 0000.0001) SEAICEuseMetricTerms = /* use metric terms */
(PID.TID 0000.0001)                   T
(PID.TID 0000.0001)     ;
(PID.TID 0000.0001) SEAICE_no_slip    = /* no slip boundary conditions */
(PID.TID 0000.0001)                   F
(PID.TID 0000.0001)     ;
(PID.TID 0000.0001) SEAICE_2ndOrderBC = /* 2nd order no slip boundary conditions */
(PID.TID 0000.0001)                   F
(PID.TID 0000.0001)     ;
(PID.TID 0000.0001) SEAICE_clipVeloctities = /* impose max. vels. */
(PID.TID 0000.0001)                   F
(PID.TID 0000.0001)     ;
(PID.TID 0000.0001) useHB87stressCoupling  = /* altern. ice-ocean stress */
(PID.TID 0000.0001)                   F
(PID.TID 0000.0001)     ;
(PID.TID 0000.0001) SEAICEscaleSurfStress  = /* scale atm. and ocean-surface stress with AREA */
(PID.TID 0000.0001)                   F
(PID.TID 0000.0001)     ;
(PID.TID 0000.0001) SEAICE_maskRHS    = /* mask RHS of solver */
(PID.TID 0000.0001)                   F
(PID.TID 0000.0001)     ;
(PID.TID 0000.0001) SEAICEaddSnowMass = /* add snow mass to seaiceMassC/U/V */
(PID.TID 0000.0001)                   F
(PID.TID 0000.0001)     ;
(PID.TID 0000.0001) LSR_mixIniGuess = /* mix free-drift sol. into LSR initial Guess */
(PID.TID 0000.0001)                      -1
(PID.TID 0000.0001)     ;
(PID.TID 0000.0001) SEAICE_LSRrelaxU  = /* LSR solver: relaxation parameter */
(PID.TID 0000.0001)                 9.500000000000000E-01
(PID.TID 0000.0001)     ;
(PID.TID 0000.0001) SEAICE_LSRrelaxV  = /* LSR solver: relaxation parameter */
(PID.TID 0000.0001)                 9.500000000000000E-01
(PID.TID 0000.0001)     ;
(PID.TID 0000.0001) LSR_ERROR         = /* sets accuracy of LSR solver */
(PID.TID 0000.0001)                 1.000000000000000E-12
(PID.TID 0000.0001)     ;
(PID.TID 0000.0001) SOLV_NCHECK       = /* test interval for LSR solver */
(PID.TID 0000.0001)                       2
(PID.TID 0000.0001)     ;
(PID.TID 0000.0001) SEAICEuseMultiTileSolver = /* use full domain tri-diag solver */
(PID.TID 0000.0001)                   F
(PID.TID 0000.0001)     ;
(PID.TID 0000.0001) SEAICE_OLx = /* overlap for LSR/preconditioner */
(PID.TID 0000.0001)                       0
(PID.TID 0000.0001)     ;
(PID.TID 0000.0001) SEAICE_OLy = /* overlap for LSR/preconditioner */
(PID.TID 0000.0001)                       0
(PID.TID 0000.0001)     ;
(PID.TID 0000.0001) SEAICEnonLinIterMax = /* max. number of nonlinear solver steps */
(PID.TID 0000.0001)                       2
(PID.TID 0000.0001)     ;
(PID.TID 0000.0001) SEAICElinearIterMax = /* max. number of linear solver steps */
(PID.TID 0000.0001)                    1500
(PID.TID 0000.0001)     ;
(PID.TID 0000.0001) SEAICEnonLinTol     = /* non-linear solver tolerance */
(PID.TID 0000.0001)                 0.000000000000000E+00
(PID.TID 0000.0001)     ;
(PID.TID 0000.0001) 
(PID.TID 0000.0001)    Seaice advection diffusion config,   > START <
(PID.TID 0000.0001)    -----------------------------------------------
(PID.TID 0000.0001) SEAICEmomAdvection = /* advect sea ice momentum */
(PID.TID 0000.0001)                   F
(PID.TID 0000.0001)     ;
(PID.TID 0000.0001) SEAICEadvHeff = /* advect effective ice thickness */
(PID.TID 0000.0001)                   T
(PID.TID 0000.0001)     ;
(PID.TID 0000.0001) SEAICEadvArea = /* advect fractional ice area */
(PID.TID 0000.0001)                   T
(PID.TID 0000.0001)     ;
(PID.TID 0000.0001) SEAICEadvSnow = /* advect snow layer together with ice */
(PID.TID 0000.0001)                   T
(PID.TID 0000.0001)     ;
(PID.TID 0000.0001) SEAICEadvScheme   = /* advection scheme for ice */
(PID.TID 0000.0001)                      77
(PID.TID 0000.0001)     ;
(PID.TID 0000.0001) SEAICEadvSchArea   = /* advection scheme for area */
(PID.TID 0000.0001)                      77
(PID.TID 0000.0001)     ;
(PID.TID 0000.0001) SEAICEadvSchHeff   = /* advection scheme for thickness */
(PID.TID 0000.0001)                      77
(PID.TID 0000.0001)     ;
(PID.TID 0000.0001) SEAICEadvSchSnow   = /* advection scheme for snow */
(PID.TID 0000.0001)                      77
(PID.TID 0000.0001)     ;
(PID.TID 0000.0001) SEAICEdiffKhArea   = /* diffusivity (m^2/s) for area */
(PID.TID 0000.0001)                 0.000000000000000E+00
(PID.TID 0000.0001)     ;
(PID.TID 0000.0001) SEAICEdiffKhHeff   = /* diffusivity (m^2/s) for heff */
(PID.TID 0000.0001)                 0.000000000000000E+00
(PID.TID 0000.0001)     ;
(PID.TID 0000.0001) SEAICEdiffKhSnow   = /* diffusivity (m^2/s) for snow */
(PID.TID 0000.0001)                 0.000000000000000E+00
(PID.TID 0000.0001)     ;
(PID.TID 0000.0001) DIFF1             = /* parameter used in advect.F [m/s] */
(PID.TID 0000.0001)                 0.000000000000000E+00
(PID.TID 0000.0001)     ;
(PID.TID 0000.0001) 
(PID.TID 0000.0001)    Seaice thermodynamics configuration   > START <
(PID.TID 0000.0001)    -----------------------------------------------
(PID.TID 0000.0001) SEAICE_rhoIce     = /* density of sea ice (kg/m3) */
(PID.TID 0000.0001)                 9.100000000000000E+02
(PID.TID 0000.0001)     ;
(PID.TID 0000.0001) SEAICE_rhoSnow    = /* density of snow (kg/m3) */
(PID.TID 0000.0001)                 3.300000000000000E+02
(PID.TID 0000.0001)     ;
(PID.TID 0000.0001) SEAICE_rhoAir     = /* density of air (kg/m3) */
(PID.TID 0000.0001)                 1.300000000000000E+00
(PID.TID 0000.0001)     ;
(PID.TID 0000.0001) usePW79thermodynamics  = /* default 0-layer TD */
(PID.TID 0000.0001)                   F
(PID.TID 0000.0001)     ;
(PID.TID 0000.0001)    pkg/seaice thermodynamics is OFF
(PID.TID 0000.0001) 
(PID.TID 0000.0001)    Seaice initialization and IO config.,   > START <
(PID.TID 0000.0001)    -------------------------------------------------
(PID.TID 0000.0001) SEAICE_initialHEFF= /* initial sea-ice thickness */
(PID.TID 0000.0001)                 0.000000000000000E+00
(PID.TID 0000.0001)     ;
(PID.TID 0000.0001) AreaFile = /* Initial ice concentration File */
(PID.TID 0000.0001)               'const100.bin'
(PID.TID 0000.0001)     ;
(PID.TID 0000.0001) HeffFile = /* Initial effective ice thickness File */
(PID.TID 0000.0001)               'const+20.bin'
(PID.TID 0000.0001)     ;
(PID.TID 0000.0001) HsnowFile = /* Initial snow thickness File */
(PID.TID 0000.0001)               'const_00.bin'
(PID.TID 0000.0001)     ;
(PID.TID 0000.0001) uIceFile = /* Initial U-ice velocity File */
(PID.TID 0000.0001)               ''
(PID.TID 0000.0001)     ;
(PID.TID 0000.0001) vIceFile = /* Initial V-ice velocity File */
(PID.TID 0000.0001)               ''
(PID.TID 0000.0001)     ;
(PID.TID 0000.0001) SEAICEwriteState  = /* write sea ice state to file */
(PID.TID 0000.0001)                   T
(PID.TID 0000.0001)     ;
(PID.TID 0000.0001) SEAICE_monFreq  = /* monitor frequency */
(PID.TID 0000.0001)                 7.200000000000000E+03
(PID.TID 0000.0001)     ;
(PID.TID 0000.0001) SEAICE_dumpFreq   = /* dump frequency */
(PID.TID 0000.0001)                 0.000000000000000E+00
(PID.TID 0000.0001)     ;
(PID.TID 0000.0001) SEAICE_taveFreq   = /* time-averaging frequency */
(PID.TID 0000.0001)                 0.000000000000000E+00
(PID.TID 0000.0001)     ;
(PID.TID 0000.0001) SEAICE_mon_stdio  = /* write monitor to std-outp */
(PID.TID 0000.0001)                   T
(PID.TID 0000.0001)     ;
(PID.TID 0000.0001) SEAICE_dump_mdsio = /* write snap-shot   using MDSIO */
(PID.TID 0000.0001)                   T
(PID.TID 0000.0001)     ;
(PID.TID 0000.0001) SEAICE_tave_mdsio = /* write TimeAverage using MDSIO */
(PID.TID 0000.0001)                   T
(PID.TID 0000.0001)     ;
(PID.TID 0000.0001) 
(PID.TID 0000.0001)    Seaice regularization numbers,   > START <
(PID.TID 0000.0001)    -----------------------------------------------
(PID.TID 0000.0001) SEAICE_deltaMin   = /* reduce singularities in Delta */
(PID.TID 0000.0001)                 1.000000000000000E-10
(PID.TID 0000.0001)     ;
(PID.TID 0000.0001) SEAICE_EPS        = /* small number */
(PID.TID 0000.0001)                 1.000000000000000E-10
(PID.TID 0000.0001)     ;
(PID.TID 0000.0001) SEAICE_EPS_SQ     = /* small number squared */
(PID.TID 0000.0001)                 1.000000000000000E-20
(PID.TID 0000.0001)     ;
(PID.TID 0000.0001) SEAICE_area_reg   = /* reduce derivative singularities */
(PID.TID 0000.0001)                 1.000000000000000E-05
(PID.TID 0000.0001)     ;
(PID.TID 0000.0001) SEAICE_hice_reg   = /* reduce derivative singularities */
(PID.TID 0000.0001)                 5.000000000000000E-02
(PID.TID 0000.0001)     ;
(PID.TID 0000.0001) SEAICE_area_floor = /* reduce derivative singularities */
(PID.TID 0000.0001)                 1.000000000000000E-05
(PID.TID 0000.0001)     ;
(PID.TID 0000.0001) 
(PID.TID 0000.0001) // =======================================================
(PID.TID 0000.0001) // Seaice configuration (SEAICE_PARM01) >>> END <<<
(PID.TID 0000.0001) // =======================================================
(PID.TID 0000.0001) 
(PID.TID 0000.0001) CTRL_INIT_REC: Getting record indices for
(PID.TID 0000.0001) CTRL_INIT_REC: Record indices for :
(PID.TID 0000.0001) CTRL_INIT_REC: startrec =          1, endrec =          1
(PID.TID 0000.0001) CTRL_INIT_REC: Getting record indices for
(PID.TID 0000.0001) CTRL_INIT_REC: Record indices for :
(PID.TID 0000.0001) CTRL_INIT_REC: startrec =          1, endrec =          1
(PID.TID 0000.0001) CTRL_INIT_REC: Getting record indices for
(PID.TID 0000.0001) CTRL_INIT_REC: Record indices for :
(PID.TID 0000.0001) CTRL_INIT_REC: startrec =          1, endrec =          1
(PID.TID 0000.0001) CTRL_INIT_REC: Getting record indices for
(PID.TID 0000.0001) CTRL_INIT_REC: Record indices for :
(PID.TID 0000.0001) CTRL_INIT_REC: startrec =          1, endrec =          1
(PID.TID 0000.0001) CTRL_INIT_REC: Getting record indices for
(PID.TID 0000.0001) CTRL_INIT_REC: Record indices for :
(PID.TID 0000.0001) CTRL_INIT_REC: startrec =          1, endrec =          1
(PID.TID 0000.0001) CTRL_INIT_REC: Getting record indices for
(PID.TID 0000.0001) CTRL_INIT_REC: Record indices for :
(PID.TID 0000.0001) CTRL_INIT_REC: startrec =          1, endrec =          1
(PID.TID 0000.0001) CTRL_INIT_REC: Getting record indices for
(PID.TID 0000.0001) CTRL_INIT_REC: Record indices for :
(PID.TID 0000.0001) CTRL_INIT_REC: startrec =          1, endrec =          1
(PID.TID 0000.0001) CTRL_INIT_REC: Getting record indices for
(PID.TID 0000.0001) CTRL_INIT_REC: Record indices for :
(PID.TID 0000.0001) CTRL_INIT_REC: startrec =          1, endrec =          1
(PID.TID 0000.0001) ctrl-wet 1:    nvarlength =        34632
(PID.TID 0000.0001) ctrl-wet 2: surface wet C =          312
(PID.TID 0000.0001) ctrl-wet 3: surface wet W =          312
(PID.TID 0000.0001) ctrl-wet 4: surface wet S =          283
(PID.TID 0000.0001) ctrl-wet 4a:surface wet V =            0
(PID.TID 0000.0001) ctrl-wet 5: 3D wet points =        11544
(PID.TID 0000.0001) ctrl-wet 6: no recs for i =     1           0
(PID.TID 0000.0001) ctrl-wet 6: no recs for i =     2           0
(PID.TID 0000.0001) ctrl-wet 6: no recs for i =     3           0
(PID.TID 0000.0001) ctrl-wet 6: no recs for i =     4           0
(PID.TID 0000.0001) ctrl-wet 6: no recs for i =     5           0
(PID.TID 0000.0001) ctrl-wet 6: no recs for i =     6           0
(PID.TID 0000.0001) ctrl-wet 6: no recs for i =     7           0
(PID.TID 0000.0001) ctrl-wet 6: no recs for i =     8           0
(PID.TID 0000.0001) ctrl-wet 6: no recs for i =     9           0
(PID.TID 0000.0001) ctrl-wet 6: no recs for i =    10           0
(PID.TID 0000.0001) ctrl-wet 6: no recs for i =    11           0
(PID.TID 0000.0001) ctrl-wet 6: no recs for i =    12           0
(PID.TID 0000.0001) ctrl-wet 6: no recs for i =    13           0
(PID.TID 0000.0001) ctrl-wet 6: no recs for i =    14           0
(PID.TID 0000.0001) ctrl-wet 6: no recs for i =    15           0
(PID.TID 0000.0001) ctrl-wet 6: no recs for i =    16           0
(PID.TID 0000.0001) ctrl-wet 6: no recs for i =    17           0
(PID.TID 0000.0001) ctrl-wet 6: no recs for i =    18           0
(PID.TID 0000.0001) ctrl-wet 6: no recs for i =    19           0
(PID.TID 0000.0001) ctrl-wet 6: no recs for i =    20           0
(PID.TID 0000.0001) ctrl-wet 6: no recs for i =    21           0
(PID.TID 0000.0001) ctrl-wet 6: no recs for i =    22           0
(PID.TID 0000.0001) ctrl-wet 6: no recs for i =    23           0
(PID.TID 0000.0001) ctrl-wet 6: no recs for i =    24           0
(PID.TID 0000.0001) ctrl-wet 6: no recs for i =    25           0
(PID.TID 0000.0001) ctrl-wet 6: no recs for i =    26           0
(PID.TID 0000.0001) ctrl-wet 6: no recs for i =    27           0
(PID.TID 0000.0001) ctrl-wet 6: no recs for i =    28           0
(PID.TID 0000.0001) ctrl-wet 6: no recs for i =    29           0
(PID.TID 0000.0001) ctrl-wet 6: no recs for i =    30           0
(PID.TID 0000.0001) ctrl-wet 6: no recs for i =    31           0
(PID.TID 0000.0001) ctrl-wet 6: no recs for i =    32           0
(PID.TID 0000.0001) ctrl-wet 6: no recs for i =    33           0
(PID.TID 0000.0001) ctrl-wet 6: no recs for i =    34           0
(PID.TID 0000.0001) ctrl-wet 6: no recs for i =    35           0
(PID.TID 0000.0001) ctrl-wet 6: no recs for i =    36           0
(PID.TID 0000.0001) ctrl-wet 6: no recs for i =    37           0
(PID.TID 0000.0001) ctrl-wet 6: no recs for i =    38           0
(PID.TID 0000.0001) ctrl-wet 6: no recs for i =    39           0
(PID.TID 0000.0001) ctrl-wet 6: no recs for i =    40           0
(PID.TID 0000.0001) ctrl-wet 6: no recs for i =    41           0
(PID.TID 0000.0001) ctrl-wet 6: no recs for i =    42           0
(PID.TID 0000.0001) ctrl-wet 6: no recs for i =    43           0
(PID.TID 0000.0001) ctrl-wet 6: no recs for i =    44           0
(PID.TID 0000.0001) ctrl-wet 6: no recs for i =    45           0
(PID.TID 0000.0001) ctrl-wet 6: no recs for i =    46           0
(PID.TID 0000.0001) ctrl-wet 6: no recs for i =    47           0
(PID.TID 0000.0001) ctrl-wet 6: no recs for i =    48           0
(PID.TID 0000.0001) ctrl-wet 6: no recs for i =    49           0
(PID.TID 0000.0001) ctrl-wet 6: no recs for i =    50           0
(PID.TID 0000.0001) ctrl-wet 6: no recs for i =    51           0
(PID.TID 0000.0001) ctrl-wet 6: no recs for i =    52           0
(PID.TID 0000.0001) ctrl-wet 6: no recs for i =    53           0
(PID.TID 0000.0001) ctrl-wet 6: no recs for i =    54           0
(PID.TID 0000.0001) ctrl-wet 6: no recs for i =    55           0
(PID.TID 0000.0001) ctrl-wet 6: no recs for i =    56           0
(PID.TID 0000.0001) ctrl-wet 6: no recs for i =    57           0
(PID.TID 0000.0001) ctrl-wet 6: no recs for i =    58           0
(PID.TID 0000.0001) ctrl-wet 6: no recs for i =    59           0
(PID.TID 0000.0001) ctrl-wet 6: no recs for i =    60           0
(PID.TID 0000.0001) ctrl-wet 6: no recs for i =    61           0
(PID.TID 0000.0001) ctrl-wet 6: no recs for i =    62           0
(PID.TID 0000.0001) ctrl-wet 6: no recs for i =    63           0
(PID.TID 0000.0001) ctrl-wet 6: no recs for i =    64           0
(PID.TID 0000.0001) ctrl-wet 6: no recs for i =    65           0
(PID.TID 0000.0001) ctrl-wet 6: no recs for i =    66           0
(PID.TID 0000.0001) ctrl-wet 6: no recs for i =    67           0
(PID.TID 0000.0001) ctrl-wet 6: no recs for i =    68           0
(PID.TID 0000.0001) ctrl-wet 6: no recs for i =    69           0
(PID.TID 0000.0001) ctrl-wet 6: no recs for i =    70           0
(PID.TID 0000.0001) ctrl-wet 6: no recs for i =    71           0
(PID.TID 0000.0001) ctrl-wet 6: no recs for i =    72           0
(PID.TID 0000.0001) ctrl-wet 6: no recs for i =    73           0
(PID.TID 0000.0001) ctrl-wet 6: no recs for i =    74           0
(PID.TID 0000.0001) ctrl-wet 6: no recs for i =    75           0
(PID.TID 0000.0001) ctrl-wet 6: no recs for i =    76           0
(PID.TID 0000.0001) ctrl-wet 6: no recs for i =    77           0
(PID.TID 0000.0001) ctrl-wet 6: no recs for i =    78           0
(PID.TID 0000.0001) ctrl-wet 6: no recs for i =    79           0
(PID.TID 0000.0001) ctrl-wet 6: no recs for i =    80           0
(PID.TID 0000.0001) ctrl-wet 6: no recs for i =    81           0
(PID.TID 0000.0001) ctrl-wet 6: no recs for i =    82           0
(PID.TID 0000.0001) ctrl-wet 6: no recs for i =    83           0
(PID.TID 0000.0001) ctrl-wet 6: no recs for i =    84           0
(PID.TID 0000.0001) ctrl-wet 6: no recs for i =    85           0
(PID.TID 0000.0001) ctrl-wet 6: no recs for i =    86           0
(PID.TID 0000.0001) ctrl-wet 6: no recs for i =    87           0
(PID.TID 0000.0001) ctrl-wet 6: no recs for i =    88           0
(PID.TID 0000.0001) ctrl-wet 6: no recs for i =    89           0
(PID.TID 0000.0001) ctrl-wet 6: no recs for i =    90           0
(PID.TID 0000.0001) ctrl-wet 6: no recs for i =    91           0
(PID.TID 0000.0001) ctrl-wet 6: no recs for i =    92           0
(PID.TID 0000.0001) ctrl-wet 6: no recs for i =    93           0
(PID.TID 0000.0001) ctrl-wet 6: no recs for i =    94           0
(PID.TID 0000.0001) ctrl-wet 6: no recs for i =    95           0
(PID.TID 0000.0001) ctrl-wet 6: no recs for i =    96           0
(PID.TID 0000.0001) ctrl-wet 6: no recs for i =    97           0
(PID.TID 0000.0001) ctrl-wet 6: no recs for i =    98           0
(PID.TID 0000.0001) ctrl-wet 6: no recs for i =    99           0
(PID.TID 0000.0001) ctrl-wet 6: no recs for i =   100           0
(PID.TID 0000.0001) ctrl-wet 6: no recs for i =   101           0
(PID.TID 0000.0001) ctrl-wet 6: no recs for i =   102           0
(PID.TID 0000.0001) ctrl-wet 6: no recs for i =   103           0
(PID.TID 0000.0001) ctrl-wet 6: no recs for i =   104           0
(PID.TID 0000.0001) ctrl-wet 6: no recs for i =   105           0
(PID.TID 0000.0001) ctrl-wet 6: no recs for i =   106           0
(PID.TID 0000.0001) ctrl-wet 6: no recs for i =   107           0
(PID.TID 0000.0001) ctrl-wet 6: no recs for i =   108           0
(PID.TID 0000.0001) ctrl-wet 6: no recs for i =   109           0
(PID.TID 0000.0001) ctrl-wet 6: no recs for i =   110           0
(PID.TID 0000.0001) ctrl-wet 6: no recs for i =   111           0
(PID.TID 0000.0001) ctrl-wet 6: no recs for i =   112           0
(PID.TID 0000.0001) ctrl-wet 6: no recs for i =   113           0
(PID.TID 0000.0001) ctrl-wet 6: no recs for i =   114           0
(PID.TID 0000.0001) ctrl-wet 6: no recs for i =   115           0
(PID.TID 0000.0001) ctrl-wet 6: no recs for i =   116           0
(PID.TID 0000.0001) ctrl-wet 6: no recs for i =   117           0
(PID.TID 0000.0001) ctrl-wet 6: no recs for i =   118           0
(PID.TID 0000.0001) ctrl-wet 6: no recs for i =   119           0
(PID.TID 0000.0001) ctrl-wet 6: no recs for i =   120           0
(PID.TID 0000.0001) ctrl-wet 6: no recs for i =   121           0
(PID.TID 0000.0001) ctrl-wet 6: no recs for i =   122           0
(PID.TID 0000.0001) ctrl-wet 6: no recs for i =   123           0
(PID.TID 0000.0001) ctrl-wet 6: no recs for i =   124           0
(PID.TID 0000.0001) ctrl-wet 6: no recs for i =   125           0
(PID.TID 0000.0001) ctrl-wet 6: no recs for i =   126           0
(PID.TID 0000.0001) ctrl-wet 6: no recs for i =   127           0
(PID.TID 0000.0001) ctrl-wet 6: no recs for i =   128           0
(PID.TID 0000.0001) ctrl-wet 6: no recs for i =   129           0
(PID.TID 0000.0001) ctrl-wet 6: no recs for i =   130           0
(PID.TID 0000.0001) ctrl-wet 6: no recs for i =   131           0
(PID.TID 0000.0001) ctrl-wet 6: no recs for i =   132           0
(PID.TID 0000.0001) ctrl-wet 6: no recs for i =   133           0
(PID.TID 0000.0001) ctrl-wet 6: no recs for i =   134           0
(PID.TID 0000.0001) ctrl-wet 6: no recs for i =   135           0
(PID.TID 0000.0001) ctrl-wet 6: no recs for i =   136           0
(PID.TID 0000.0001) ctrl-wet 6: no recs for i =   137           0
(PID.TID 0000.0001) ctrl-wet 6: no recs for i =   138           0
(PID.TID 0000.0001) ctrl-wet 6: no recs for i =   139           0
(PID.TID 0000.0001) ctrl-wet 6: no recs for i =   140           0
(PID.TID 0000.0001) ctrl-wet 6: no recs for i =   141           0
(PID.TID 0000.0001) ctrl-wet 6: no recs for i =   142           0
(PID.TID 0000.0001) ctrl-wet 6: no recs for i =   143           0
(PID.TID 0000.0001) ctrl-wet 6: no recs for i =   144           0
(PID.TID 0000.0001) ctrl-wet 6: no recs for i =   145           0
(PID.TID 0000.0001) ctrl-wet 6: no recs for i =   146           0
(PID.TID 0000.0001) ctrl-wet 6: no recs for i =   147           0
(PID.TID 0000.0001) ctrl-wet 6: no recs for i =   148           0
(PID.TID 0000.0001) ctrl-wet 6: no recs for i =   149           0
(PID.TID 0000.0001) ctrl-wet 6: no recs for i =   150           0
(PID.TID 0000.0001) ctrl-wet 6: no recs for i =   151           0
(PID.TID 0000.0001) ctrl-wet 6: no recs for i =   152           0
(PID.TID 0000.0001) ctrl-wet 6: no recs for i =   153           0
(PID.TID 0000.0001) ctrl-wet 6: no recs for i =   154           0
(PID.TID 0000.0001) ctrl-wet 6: no recs for i =   155           0
(PID.TID 0000.0001) ctrl-wet 6: no recs for i =   156           0
(PID.TID 0000.0001) ctrl-wet 6: no recs for i =   157           0
(PID.TID 0000.0001) ctrl-wet 6: no recs for i =   158           0
(PID.TID 0000.0001) ctrl-wet 6: no recs for i =   159           0
(PID.TID 0000.0001) ctrl-wet 6: no recs for i =   160           0
(PID.TID 0000.0001) ctrl-wet 6: no recs for i =   161           0
(PID.TID 0000.0001) ctrl-wet 6: no recs for i =   162           0
(PID.TID 0000.0001) ctrl-wet 6: no recs for i =   163           0
(PID.TID 0000.0001) ctrl-wet 6: no recs for i =   164           0
(PID.TID 0000.0001) ctrl-wet 6: no recs for i =   165           0
(PID.TID 0000.0001) ctrl-wet 6: no recs for i =   166           0
(PID.TID 0000.0001) ctrl-wet 6: no recs for i =   167           0
(PID.TID 0000.0001) ctrl-wet 6: no recs for i =   168           0
(PID.TID 0000.0001) ctrl-wet 6: no recs for i =   169           0
(PID.TID 0000.0001) ctrl-wet 6: no recs for i =   170           0
(PID.TID 0000.0001) ctrl-wet 6: no recs for i =   171           0
(PID.TID 0000.0001) ctrl-wet 6: no recs for i =   172           0
(PID.TID 0000.0001) ctrl-wet 6: no recs for i =   173           0
(PID.TID 0000.0001) ctrl-wet 6: no recs for i =   174           0
(PID.TID 0000.0001) ctrl-wet 6: no recs for i =   175           0
(PID.TID 0000.0001) ctrl-wet 6: no recs for i =   176           0
(PID.TID 0000.0001) ctrl-wet 6: no recs for i =   177           0
(PID.TID 0000.0001) ctrl-wet 6: no recs for i =   178           0
(PID.TID 0000.0001) ctrl-wet 6: no recs for i =   179           0
(PID.TID 0000.0001) ctrl-wet 6: no recs for i =   180           0
(PID.TID 0000.0001) ctrl-wet 6: no recs for i =   181           0
(PID.TID 0000.0001) ctrl-wet 6: no recs for i =   182           0
(PID.TID 0000.0001) ctrl-wet 6: no recs for i =   183           0
(PID.TID 0000.0001) ctrl-wet 6: no recs for i =   184           0
(PID.TID 0000.0001) ctrl-wet 6: no recs for i =   185           0
(PID.TID 0000.0001) ctrl-wet 6: no recs for i =   186           0
(PID.TID 0000.0001) ctrl-wet 6: no recs for i =   187           0
(PID.TID 0000.0001) ctrl-wet 6: no recs for i =   188           0
(PID.TID 0000.0001) ctrl-wet 6: no recs for i =   189           0
(PID.TID 0000.0001) ctrl-wet 6: no recs for i =   190           0
(PID.TID 0000.0001) ctrl-wet 6: no recs for i =   191           0
(PID.TID 0000.0001) ctrl-wet 6: no recs for i =   192           0
(PID.TID 0000.0001) ctrl-wet 6: no recs for i =   193           0
(PID.TID 0000.0001) ctrl-wet 6: no recs for i =   194           0
(PID.TID 0000.0001) ctrl-wet 6: no recs for i =   195           0
(PID.TID 0000.0001) ctrl-wet 6: no recs for i =   196           0
(PID.TID 0000.0001) ctrl-wet 6: no recs for i =   197           0
(PID.TID 0000.0001) ctrl-wet 6: no recs for i =   198           0
(PID.TID 0000.0001) ctrl-wet 6: no recs for i =   199           0
(PID.TID 0000.0001) ctrl-wet 6: no recs for i =   200           0
(PID.TID 0000.0001) ctrl-wet 6: no recs for i =   201           1
(PID.TID 0000.0001) ctrl-wet 6: no recs for i =   202           1
(PID.TID 0000.0001) ctrl-wet 6: no recs for i =   203           1
(PID.TID 0000.0001) ctrl-wet 6: no recs for i =   204           0
(PID.TID 0000.0001) ctrl-wet 6: no recs for i =   205           0
(PID.TID 0000.0001) ctrl-wet 6: no recs for i =   206           0
(PID.TID 0000.0001) ctrl-wet 6: no recs for i =   207           0
(PID.TID 0000.0001) ctrl-wet 6: no recs for i =   208           0
(PID.TID 0000.0001) ctrl-wet 6: no recs for i =   209           0
(PID.TID 0000.0001) ctrl-wet 6: no recs for i =   210           0
(PID.TID 0000.0001) ctrl-wet 6: no recs for i =   211           0
(PID.TID 0000.0001) ctrl-wet 6: no recs for i =   212           0
(PID.TID 0000.0001) ctrl-wet 6: no recs for i =   213           0
(PID.TID 0000.0001) ctrl-wet 6: no recs for i =   214           0
(PID.TID 0000.0001) ctrl-wet 6: no recs for i =   215           0
(PID.TID 0000.0001) ctrl-wet 6: no recs for i =   216           0
(PID.TID 0000.0001) ctrl-wet 6: no recs for i =   217           0
(PID.TID 0000.0001) ctrl-wet 6: no recs for i =   218           0
(PID.TID 0000.0001) ctrl-wet 6: no recs for i =   219           0
(PID.TID 0000.0001) ctrl-wet 6: no recs for i =   220           0
(PID.TID 0000.0001) ctrl-wet 6: no recs for i =   221           0
(PID.TID 0000.0001) ctrl-wet 6: no recs for i =   222           0
(PID.TID 0000.0001) ctrl-wet 6: no recs for i =   223           0
(PID.TID 0000.0001) ctrl-wet 6: no recs for i =   224           0
(PID.TID 0000.0001) ctrl-wet 6: no recs for i =   225           0
(PID.TID 0000.0001) ctrl-wet 6: no recs for i =   226           0
(PID.TID 0000.0001) ctrl-wet 6: no recs for i =   227           0
(PID.TID 0000.0001) ctrl-wet 6: no recs for i =   228           0
(PID.TID 0000.0001) ctrl-wet 6: no recs for i =   229           0
(PID.TID 0000.0001) ctrl-wet 6: no recs for i =   230           0
(PID.TID 0000.0001) ctrl-wet 6: no recs for i =   231           0
(PID.TID 0000.0001) ctrl-wet 6: no recs for i =   232           0
(PID.TID 0000.0001) ctrl-wet 6: no recs for i =   233           0
(PID.TID 0000.0001) ctrl-wet 6: no recs for i =   234           0
(PID.TID 0000.0001) ctrl-wet 6: no recs for i =   235           0
(PID.TID 0000.0001) ctrl-wet 6: no recs for i =   236           0
(PID.TID 0000.0001) ctrl-wet 6: no recs for i =   237           0
(PID.TID 0000.0001) ctrl-wet 6: no recs for i =   238           0
(PID.TID 0000.0001) ctrl-wet 6: no recs for i =   239           0
(PID.TID 0000.0001) ctrl-wet 6: no recs for i =   240           0
(PID.TID 0000.0001) ctrl-wet 6: no recs for i =   241           0
(PID.TID 0000.0001) ctrl-wet 6: no recs for i =   242           0
(PID.TID 0000.0001) ctrl-wet 6: no recs for i =   243           0
(PID.TID 0000.0001) ctrl-wet 6: no recs for i =   244           0
(PID.TID 0000.0001) ctrl-wet 6: no recs for i =   245           0
(PID.TID 0000.0001) ctrl-wet 6: no recs for i =   246           0
(PID.TID 0000.0001) ctrl-wet 6: no recs for i =   247           0
(PID.TID 0000.0001) ctrl-wet 6: no recs for i =   248           0
(PID.TID 0000.0001) ctrl-wet 6: no recs for i =   249           0
(PID.TID 0000.0001) ctrl-wet 6: no recs for i =   250           0
(PID.TID 0000.0001) ctrl-wet 6: no recs for i =   251           0
(PID.TID 0000.0001) ctrl-wet 6: no recs for i =   252           0
(PID.TID 0000.0001) ctrl-wet 6: no recs for i =   253           0
(PID.TID 0000.0001) ctrl-wet 6: no recs for i =   254           0
(PID.TID 0000.0001) ctrl-wet 6: no recs for i =   255           0
(PID.TID 0000.0001) ctrl-wet 6: no recs for i =   256           0
(PID.TID 0000.0001) ctrl-wet 6: no recs for i =   257           0
(PID.TID 0000.0001) ctrl-wet 6: no recs for i =   258           0
(PID.TID 0000.0001) ctrl-wet 6: no recs for i =   259           0
(PID.TID 0000.0001) ctrl-wet 6: no recs for i =   260           0
(PID.TID 0000.0001) ctrl-wet 6: no recs for i =   261           0
(PID.TID 0000.0001) ctrl-wet 6: no recs for i =   262           0
(PID.TID 0000.0001) ctrl-wet 6: no recs for i =   263           0
(PID.TID 0000.0001) ctrl-wet 6: no recs for i =   264           0
(PID.TID 0000.0001) ctrl-wet 6: no recs for i =   265           0
(PID.TID 0000.0001) ctrl-wet 6: no recs for i =   266           0
(PID.TID 0000.0001) ctrl-wet 6: no recs for i =   267           0
(PID.TID 0000.0001) ctrl-wet 6: no recs for i =   268           0
(PID.TID 0000.0001) ctrl-wet 6: no recs for i =   269           0
(PID.TID 0000.0001) ctrl-wet 6: no recs for i =   270           0
(PID.TID 0000.0001) ctrl-wet 6: no recs for i =   271           0
(PID.TID 0000.0001) ctrl-wet 6: no recs for i =   272           0
(PID.TID 0000.0001) ctrl-wet 6: no recs for i =   273           0
(PID.TID 0000.0001) ctrl-wet 6: no recs for i =   274           0
(PID.TID 0000.0001) ctrl-wet 6: no recs for i =   275           0
(PID.TID 0000.0001) ctrl-wet 6: no recs for i =   276           0
(PID.TID 0000.0001) ctrl-wet 6: no recs for i =   277           0
(PID.TID 0000.0001) ctrl-wet 6: no recs for i =   278           0
(PID.TID 0000.0001) ctrl-wet 6: no recs for i =   279           0
(PID.TID 0000.0001) ctrl-wet 6: no recs for i =   280           0
(PID.TID 0000.0001) ctrl-wet 6: no recs for i =   281           0
(PID.TID 0000.0001) ctrl-wet 6: no recs for i =   282           0
(PID.TID 0000.0001) ctrl-wet 6: no recs for i =   283           0
(PID.TID 0000.0001) ctrl-wet 6: no recs for i =   284           0
(PID.TID 0000.0001) ctrl-wet 6: no recs for i =   285           0
(PID.TID 0000.0001) ctrl-wet 6: no recs for i =   286           0
(PID.TID 0000.0001) ctrl-wet 6: no recs for i =   287           0
(PID.TID 0000.0001) ctrl-wet 6: no recs for i =   288           0
(PID.TID 0000.0001) ctrl-wet 6: no recs for i =   289           0
(PID.TID 0000.0001) ctrl-wet 6: no recs for i =   290           0
(PID.TID 0000.0001) ctrl-wet 6: no recs for i =   291           0
(PID.TID 0000.0001) ctrl-wet 6: no recs for i =   292           0
(PID.TID 0000.0001) ctrl-wet 6: no recs for i =   293           0
(PID.TID 0000.0001) ctrl-wet 6: no recs for i =   294           0
(PID.TID 0000.0001) ctrl-wet 6: no recs for i =   295           0
(PID.TID 0000.0001) ctrl-wet 6: no recs for i =   296           0
(PID.TID 0000.0001) ctrl-wet 6: no recs for i =   297           0
(PID.TID 0000.0001) ctrl-wet 6: no recs for i =   298           0
(PID.TID 0000.0001) ctrl-wet 6: no recs for i =   299           0
(PID.TID 0000.0001) ctrl-wet 6: no recs for i =   300           0
(PID.TID 0000.0001) ctrl-wet 6: no recs for i =   301           0
(PID.TID 0000.0001) ctrl-wet 6: no recs for i =   302           0
(PID.TID 0000.0001) ctrl-wet 6: no recs for i =   303           0
(PID.TID 0000.0001) ctrl-wet 6: no recs for i =   304           0
(PID.TID 0000.0001) ctrl-wet 6: no recs for i =   305           0
(PID.TID 0000.0001) ctrl-wet 6: no recs for i =   306           0
(PID.TID 0000.0001) ctrl-wet 6: no recs for i =   307           0
(PID.TID 0000.0001) ctrl-wet 6: no recs for i =   308           0
(PID.TID 0000.0001) ctrl-wet 6: no recs for i =   309           0
(PID.TID 0000.0001) ctrl-wet 6: no recs for i =   310           0
(PID.TID 0000.0001) ctrl-wet 6: no recs for i =   311           0
(PID.TID 0000.0001) ctrl-wet 6: no recs for i =   312           0
(PID.TID 0000.0001) ctrl-wet 6: no recs for i =   313           0
(PID.TID 0000.0001) ctrl-wet 6: no recs for i =   314           0
(PID.TID 0000.0001) ctrl-wet 6: no recs for i =   315           0
(PID.TID 0000.0001) ctrl-wet 6: no recs for i =   316           0
(PID.TID 0000.0001) ctrl-wet 6: no recs for i =   317           0
(PID.TID 0000.0001) ctrl-wet 6: no recs for i =   318           0
(PID.TID 0000.0001) ctrl-wet 6: no recs for i =   319           0
(PID.TID 0000.0001) ctrl-wet 6: no recs for i =   320           0
(PID.TID 0000.0001) ctrl-wet 6: no recs for i =   321           0
(PID.TID 0000.0001) ctrl-wet 6: no recs for i =   322           0
(PID.TID 0000.0001) ctrl-wet 6: no recs for i =   323           0
(PID.TID 0000.0001) ctrl-wet 6: no recs for i =   324           0
(PID.TID 0000.0001) ctrl-wet 6: no recs for i =   325           0
(PID.TID 0000.0001) ctrl-wet 6: no recs for i =   326           0
(PID.TID 0000.0001) ctrl-wet 6: no recs for i =   327           0
(PID.TID 0000.0001) ctrl-wet 6: no recs for i =   328           0
(PID.TID 0000.0001) ctrl-wet 6: no recs for i =   329           0
(PID.TID 0000.0001) ctrl-wet 6: no recs for i =   330           0
(PID.TID 0000.0001) ctrl-wet 6: no recs for i =   331           0
(PID.TID 0000.0001) ctrl-wet 6: no recs for i =   332           0
(PID.TID 0000.0001) ctrl-wet 6: no recs for i =   333           0
(PID.TID 0000.0001) ctrl-wet 6: no recs for i =   334           0
(PID.TID 0000.0001) ctrl-wet 6: no recs for i =   335           0
(PID.TID 0000.0001) ctrl-wet 6: no recs for i =   336           0
(PID.TID 0000.0001) ctrl-wet 6: no recs for i =   337           0
(PID.TID 0000.0001) ctrl-wet 6: no recs for i =   338           0
(PID.TID 0000.0001) ctrl-wet 6: no recs for i =   339           0
(PID.TID 0000.0001) ctrl-wet 6: no recs for i =   340           0
(PID.TID 0000.0001) ctrl-wet 6: no recs for i =   341           0
(PID.TID 0000.0001) ctrl-wet 6: no recs for i =   342           0
(PID.TID 0000.0001) ctrl-wet 6: no recs for i =   343           0
(PID.TID 0000.0001) ctrl-wet 6: no recs for i =   344           0
(PID.TID 0000.0001) ctrl-wet 6: no recs for i =   345           0
(PID.TID 0000.0001) ctrl-wet 6: no recs for i =   346           0
(PID.TID 0000.0001) ctrl-wet 6: no recs for i =   347           0
(PID.TID 0000.0001) ctrl-wet 6: no recs for i =   348           0
(PID.TID 0000.0001) ctrl-wet 6: no recs for i =   349           0
(PID.TID 0000.0001) ctrl-wet 6: no recs for i =   350           0
(PID.TID 0000.0001) ctrl-wet 6: no recs for i =   351           0
(PID.TID 0000.0001) ctrl-wet 6: no recs for i =   352           0
(PID.TID 0000.0001) ctrl-wet 6: no recs for i =   353           0
(PID.TID 0000.0001) ctrl-wet 6: no recs for i =   354           0
(PID.TID 0000.0001) ctrl-wet 6: no recs for i =   355           0
(PID.TID 0000.0001) ctrl-wet 6: no recs for i =   356           0
(PID.TID 0000.0001) ctrl-wet 6: no recs for i =   357           0
(PID.TID 0000.0001) ctrl-wet 6: no recs for i =   358           0
(PID.TID 0000.0001) ctrl-wet 6: no recs for i =   359           0
(PID.TID 0000.0001) ctrl-wet 6: no recs for i =   360           0
(PID.TID 0000.0001) ctrl-wet 6: no recs for i =   361           0
(PID.TID 0000.0001) ctrl-wet 6: no recs for i =   362           0
(PID.TID 0000.0001) ctrl-wet 6: no recs for i =   363           0
(PID.TID 0000.0001) ctrl-wet 6: no recs for i =   364           0
(PID.TID 0000.0001) ctrl-wet 6: no recs for i =   365           0
(PID.TID 0000.0001) ctrl-wet 6: no recs for i =   366           0
(PID.TID 0000.0001) ctrl-wet 6: no recs for i =   367           0
(PID.TID 0000.0001) ctrl-wet 6: no recs for i =   368           0
(PID.TID 0000.0001) ctrl-wet 6: no recs for i =   369           0
(PID.TID 0000.0001) ctrl-wet 6: no recs for i =   370           0
(PID.TID 0000.0001) ctrl-wet 6: no recs for i =   371           0
(PID.TID 0000.0001) ctrl-wet 6: no recs for i =   372           0
(PID.TID 0000.0001) ctrl-wet 6: no recs for i =   373           0
(PID.TID 0000.0001) ctrl-wet 6: no recs for i =   374           0
(PID.TID 0000.0001) ctrl-wet 6: no recs for i =   375           0
(PID.TID 0000.0001) ctrl-wet 6: no recs for i =   376           0
(PID.TID 0000.0001) ctrl-wet 6: no recs for i =   377           0
(PID.TID 0000.0001) ctrl-wet 6: no recs for i =   378           0
(PID.TID 0000.0001) ctrl-wet 6: no recs for i =   379           0
(PID.TID 0000.0001) ctrl-wet 6: no recs for i =   380           0
(PID.TID 0000.0001) ctrl-wet 6: no recs for i =   381           0
(PID.TID 0000.0001) ctrl-wet 6: no recs for i =   382           0
(PID.TID 0000.0001) ctrl-wet 6: no recs for i =   383           0
(PID.TID 0000.0001) ctrl-wet 6: no recs for i =   384           0
(PID.TID 0000.0001) ctrl-wet 6: no recs for i =   385           0
(PID.TID 0000.0001) ctrl-wet 6: no recs for i =   386           0
(PID.TID 0000.0001) ctrl-wet 6: no recs for i =   387           0
(PID.TID 0000.0001) ctrl-wet 6: no recs for i =   388           0
(PID.TID 0000.0001) ctrl-wet 6: no recs for i =   389           0
(PID.TID 0000.0001) ctrl-wet 6: no recs for i =   390           0
(PID.TID 0000.0001) ctrl-wet 6: no recs for i =   391           0
(PID.TID 0000.0001) ctrl-wet 6: no recs for i =   392           0
(PID.TID 0000.0001) ctrl-wet 6: no recs for i =   393           0
(PID.TID 0000.0001) ctrl-wet 6: no recs for i =   394           0
(PID.TID 0000.0001) ctrl-wet 6: no recs for i =   395           0
(PID.TID 0000.0001) ctrl-wet 6: no recs for i =   396           0
(PID.TID 0000.0001) ctrl-wet 6: no recs for i =   397           0
(PID.TID 0000.0001) ctrl-wet 6: no recs for i =   398           0
(PID.TID 0000.0001) ctrl-wet 6: no recs for i =   399           0
(PID.TID 0000.0001) ctrl-wet 6: no recs for i =   400           0
(PID.TID 0000.0001) ctrl-wet 7: flux         23088
(PID.TID 0000.0001) ctrl-wet 8: atmos        23088
(PID.TID 0000.0001) ctrl-wet -------------------------------------------------
(PID.TID 0000.0001) ctrl-wet 13: global nvarlength for Nr =   50     7220976
(PID.TID 0000.0001) ctrl-wet -------------------------------------------------
(PID.TID 0000.0001) ctrl-wet 14: global nWet C/S/W/V k=    1       60646       59295       59493           0
(PID.TID 0000.0001) ctrl-wet 14: global nWet C/S/W/V k=    2       60646       59295       59493           0
(PID.TID 0000.0001) ctrl-wet 14: global nWet C/S/W/V k=    3       59874       58517       58725           0
(PID.TID 0000.0001) ctrl-wet 14: global nWet C/S/W/V k=    4       59387       58040       58258           0
(PID.TID 0000.0001) ctrl-wet 14: global nWet C/S/W/V k=    5       58882       57536       57754           0
(PID.TID 0000.0001) ctrl-wet 14: global nWet C/S/W/V k=    6       58399       57057       57276           0
(PID.TID 0000.0001) ctrl-wet 14: global nWet C/S/W/V k=    7       58052       56735       56936           0
(PID.TID 0000.0001) ctrl-wet 14: global nWet C/S/W/V k=    8       57781       56461       56669           0
(PID.TID 0000.0001) ctrl-wet 14: global nWet C/S/W/V k=    9       57530       56212       56416           0
(PID.TID 0000.0001) ctrl-wet 14: global nWet C/S/W/V k=   10       57283       55964       56154           0
(PID.TID 0000.0001) ctrl-wet 14: global nWet C/S/W/V k=   11       57022       55702       55883           0
(PID.TID 0000.0001) ctrl-wet 14: global nWet C/S/W/V k=   12       56818       55497       55681           0
(PID.TID 0000.0001) ctrl-wet 14: global nWet C/S/W/V k=   13       56634       55322       55509           0
(PID.TID 0000.0001) ctrl-wet 14: global nWet C/S/W/V k=   14       56430       55125       55312           0
(PID.TID 0000.0001) ctrl-wet 14: global nWet C/S/W/V k=   15       56238       54935       55117           0
(PID.TID 0000.0001) ctrl-wet 14: global nWet C/S/W/V k=   16       55975       54689       54858           0
(PID.TID 0000.0001) ctrl-wet 14: global nWet C/S/W/V k=   17       55703       54421       54600           0
(PID.TID 0000.0001) ctrl-wet 14: global nWet C/S/W/V k=   18       55358       54075       54251           0
(PID.TID 0000.0001) ctrl-wet 14: global nWet C/S/W/V k=   19       54964       53666       53853           0
(PID.TID 0000.0001) ctrl-wet 14: global nWet C/S/W/V k=   20       54471       53205       53372           0
(PID.TID 0000.0001) ctrl-wet 14: global nWet C/S/W/V k=   21       53952       52716       52877           0
(PID.TID 0000.0001) ctrl-wet 14: global nWet C/S/W/V k=   22       53489       52249       52409           0
(PID.TID 0000.0001) ctrl-wet 14: global nWet C/S/W/V k=   23       52892       51633       51797           0
(PID.TID 0000.0001) ctrl-wet 14: global nWet C/S/W/V k=   24       52223       50961       51129           0
(PID.TID 0000.0001) ctrl-wet 14: global nWet C/S/W/V k=   25       51696       50480       50635           0
(PID.TID 0000.0001) ctrl-wet 14: global nWet C/S/W/V k=   26       51259       50075       50241           0
(PID.TID 0000.0001) ctrl-wet 14: global nWet C/S/W/V k=   27       50929       49774       49935           0
(PID.TID 0000.0001) ctrl-wet 14: global nWet C/S/W/V k=   28       50664       49532       49678           0
(PID.TID 0000.0001) ctrl-wet 14: global nWet C/S/W/V k=   29       50438       49306       49450           0
(PID.TID 0000.0001) ctrl-wet 14: global nWet C/S/W/V k=   30       50187       49035       49179           0
(PID.TID 0000.0001) ctrl-wet 14: global nWet C/S/W/V k=   31       49964       48805       48937           0
(PID.TID 0000.0001) ctrl-wet 14: global nWet C/S/W/V k=   32       49700       48530       48662           0
(PID.TID 0000.0001) ctrl-wet 14: global nWet C/S/W/V k=   33       49431       48260       48383           0
(PID.TID 0000.0001) ctrl-wet 14: global nWet C/S/W/V k=   34       49176       47993       48108           0
(PID.TID 0000.0001) ctrl-wet 14: global nWet C/S/W/V k=   35       48854       47652       47764           0
(PID.TID 0000.0001) ctrl-wet 14: global nWet C/S/W/V k=   36       48501       47264       47375           0
(PID.TID 0000.0001) ctrl-wet 14: global nWet C/S/W/V k=   37       48098       46846       46951           0
(PID.TID 0000.0001) ctrl-wet 14: global nWet C/S/W/V k=   38       47523       46253       46362           0
(PID.TID 0000.0001) ctrl-wet 14: global nWet C/S/W/V k=   39       46849       45558       45657           0
(PID.TID 0000.0001) ctrl-wet 14: global nWet C/S/W/V k=   40       45984       44670       44751           0
(PID.TID 0000.0001) ctrl-wet 14: global nWet C/S/W/V k=   41       44793       43419       43459           0
(PID.TID 0000.0001) ctrl-wet 14: global nWet C/S/W/V k=   42       42984       41497       41533           0
(PID.TID 0000.0001) ctrl-wet 14: global nWet C/S/W/V k=   43       40302       38691       38718           0
(PID.TID 0000.0001) ctrl-wet 14: global nWet C/S/W/V k=   44       36689       35007       35032           0
(PID.TID 0000.0001) ctrl-wet 14: global nWet C/S/W/V k=   45       31681       30069       29999           0
(PID.TID 0000.0001) ctrl-wet 14: global nWet C/S/W/V k=   46       25595       24028       24031           0
(PID.TID 0000.0001) ctrl-wet 14: global nWet C/S/W/V k=   47       18224       16890       16872           0
(PID.TID 0000.0001) ctrl-wet 14: global nWet C/S/W/V k=   48       11407       10397       10351           0
(PID.TID 0000.0001) ctrl-wet 14: global nWet C/S/W/V k=   49        4597        3913        3912           0
(PID.TID 0000.0001) ctrl-wet 14: global nWet C/S/W/V k=   50         818         624         622           0
(PID.TID 0000.0001) ctrl-wet -------------------------------------------------
(PID.TID 0000.0001) ctrl-wet -------------------------------------------------
(PID.TID 0000.0001) ctrl-wet -------------------------------------------------
(PID.TID 0000.0001) ctrl_init: no. of control variables:            3
(PID.TID 0000.0001) ctrl_init: control vector length:         7220976
(PID.TID 0000.0001) 
(PID.TID 0000.0001) // =======================================================
(PID.TID 0000.0001) // control vector configuration  >>> START <<<
(PID.TID 0000.0001) // =======================================================
(PID.TID 0000.0001) 
(PID.TID 0000.0001)  Total number of ocean points per tile:
(PID.TID 0000.0001)  --------------------------------------
(PID.TID 0000.0001)  snx*sny*nr =    45000
(PID.TID 0000.0001) 
(PID.TID 0000.0001)  Number of ocean points per tile:
(PID.TID 0000.0001)  --------------------------------
(PID.TID 0000.0001)  bi,bj,#(c/s/w): 0001 0001 011544 010207 011460
(PID.TID 0000.0001) 
(PID.TID 0000.0001)  Settings of generic controls:
(PID.TID 0000.0001)  -----------------------------
(PID.TID 0000.0001) 
(PID.TID 0000.0001)  ctrlUseGen  =     T /* use generic controls */
(PID.TID 0000.0001)  -> 3d control, genarr3d no.  1 is in use
(PID.TID 0000.0001)       file       = xx_kapgm
(PID.TID 0000.0001)       weight     = wt_ones.data
(PID.TID 0000.0001)  -> 3d control, genarr3d no.  2 is in use
(PID.TID 0000.0001)       file       = xx_kapredi
(PID.TID 0000.0001)       weight     = wt_ones.data
(PID.TID 0000.0001)  -> 3d control, genarr3d no.  3 is in use
(PID.TID 0000.0001)       file       = xx_diffkr
(PID.TID 0000.0001)       weight     = wt_ones.data
(PID.TID 0000.0001) 
(PID.TID 0000.0001) // =======================================================
(PID.TID 0000.0001) // control vector configuration  >>> END <<<
(PID.TID 0000.0001) // =======================================================
(PID.TID 0000.0001) 
(PID.TID 0000.0001) ------------------------------------------------------------
(PID.TID 0000.0001) DIAGNOSTICS_SET_LEVELS: done
(PID.TID 0000.0001)  Total Nb of available Diagnostics: ndiagt=   300
(PID.TID 0000.0001)  write list of available Diagnostics to file: available_diagnostics.log
(PID.TID 0000.0001) SETDIAG: Allocate  1 x  1 Levels for Diagnostic #    86 oceQnet
(PID.TID 0000.0001) SETDIAG: Allocate  1 x  1 Levels for Diagnostic #    87 oceQsw
(PID.TID 0000.0001) SETDIAG: Allocate  1 x  1 Levels for Diagnostic #    84 oceFWflx
(PID.TID 0000.0001) SETDIAG: Allocate  1 x  1 Levels for Diagnostic #    85 oceSflux
(PID.TID 0000.0001) SETDIAG: Allocate  1 x  1 Levels for Diagnostic #    80 oceTAUX
(PID.TID 0000.0001) SETDIAG: Allocate  1 x  1 Levels for Diagnostic #    81 oceTAUY
(PID.TID 0000.0001) SETDIAG: Allocate 50 x  1 Levels for Diagnostic #    26 THETA
(PID.TID 0000.0001) SETDIAG: Allocate 50 x  1 Levels for Diagnostic #    27 SALT
(PID.TID 0000.0001) SETDIAG: Allocate 50 x  1 Levels for Diagnostic #    30 UVEL
(PID.TID 0000.0001) SETDIAG: Allocate 50 x  1 Levels for Diagnostic #    31 VVEL
(PID.TID 0000.0001) SETDIAG: Allocate  1 x  1 Levels for Diagnostic #   214 SIarea
(PID.TID 0000.0001) SETDIAG: Allocate  1 x  1 Levels for Diagnostic #   217 SIheff
(PID.TID 0000.0001) SETDIAG: Allocate  1 x  1 Levels for Diagnostic #   219 SIhsnow
(PID.TID 0000.0001) SETDIAG: Allocate  1 x  1 Levels for Diagnostic #    83 sIceLoad
(PID.TID 0000.0001) SETDIAG: Allocate  1 x  1 Levels for Diagnostic #   223 SIuice
(PID.TID 0000.0001) SETDIAG: Allocate  1 x  1 Levels for Diagnostic #   224 SIvice
(PID.TID 0000.0001) SETDIAG: Allocate  1 x  1 Levels for Diagnostic #   225 SItaux
(PID.TID 0000.0001) SETDIAG: Allocate  1 x  1 Levels for Diagnostic #   226 SItauy
(PID.TID 0000.0001) SETDIAG: Allocate  5 x  1 Levels for Diagnostic #   285 SIareaN
(PID.TID 0000.0001) SETDIAG: Allocate  5 x  1 Levels for Diagnostic #   284 SIheffN
(PID.TID 0000.0001) SETDIAG: Allocate  5 x  1 Levels for Diagnostic #   286 SIhsnowN
(PID.TID 0000.0001)   space allocated for all diagnostics:     229 levels
(PID.TID 0000.0001)   set mate pointer for diag #    80  oceTAUX  , Parms: UU      U1 , mate:    81
(PID.TID 0000.0001)   set mate pointer for diag #    81  oceTAUY  , Parms: VV      U1 , mate:    80
(PID.TID 0000.0001)   set mate pointer for diag #    30  UVEL     , Parms: UUR     MR , mate:    31
(PID.TID 0000.0001)   set mate pointer for diag #    31  VVEL     , Parms: VVR     MR , mate:    30
(PID.TID 0000.0001)   set mate pointer for diag #   223  SIuice   , Parms: UU      M1 , mate:   224
(PID.TID 0000.0001)   set mate pointer for diag #   224  SIvice   , Parms: VV      M1 , mate:   223
(PID.TID 0000.0001)   set mate pointer for diag #   225  SItaux   , Parms: UU      U1 , mate:   226
(PID.TID 0000.0001)   set mate pointer for diag #   226  SItauy   , Parms: VV      U1 , mate:   225
(PID.TID 0000.0001) DIAGNOSTICS_SET_POINTERS: Set levels for Outp.Stream: surfDiag
(PID.TID 0000.0001)  Levels:       1.
(PID.TID 0000.0001) DIAGNOSTICS_SET_POINTERS: Set levels for Outp.Stream: iceDiag
(PID.TID 0000.0001)  Levels:       1.
(PID.TID 0000.0001) DIAGNOSTICS_SET_POINTERS: Set levels for Outp.Stream: iceNcat
(PID.TID 0000.0001)  Levels:       1.   2.   3.   4.   5.
(PID.TID 0000.0001) DIAGNOSTICS_SET_POINTERS: done
(PID.TID 0000.0001) ------------------------------------------------------------
(PID.TID 0000.0001) DIAGSTATS_SET_REGIONS: define   0 regions:
(PID.TID 0000.0001) ------------------------------------------------------------
(PID.TID 0000.0001) SETDIAG: Allocate  1 Levels for Stats-Diag #   214 SIarea
(PID.TID 0000.0001) SETDIAG: Allocate  1 Levels for Stats-Diag #   217 SIheff
(PID.TID 0000.0001) SETDIAG: Allocate  1 Levels for Stats-Diag #   219 SIhsnow
(PID.TID 0000.0001) SETDIAG: Allocate  1 Levels for Stats-Diag #    83 sIceLoad
(PID.TID 0000.0001) SETDIAG: Allocate  1 Levels for Stats-Diag #   223 SIuice
(PID.TID 0000.0001) SETDIAG: Allocate  1 Levels for Stats-Diag #   224 SIvice
(PID.TID 0000.0001) SETDIAG: Allocate  1 Levels for Stats-Diag #   225 SItaux
(PID.TID 0000.0001) SETDIAG: Allocate  1 Levels for Stats-Diag #   226 SItauy
(PID.TID 0000.0001)   space allocated for all stats-diags:       8 levels
(PID.TID 0000.0001) DIAGSTATS_SET_POINTERS: done
(PID.TID 0000.0001) ------------------------------------------------------------
(PID.TID 0000.0001) DIAGSTATS_INI_IO: open file: iceStDiag.0000000001.txt , unit=    37
(PID.TID 0000.0001) INI_GLOBAL_DOMAIN: Found   0 CS-corner Pts in the domain
(PID.TID 0000.0001) %MON fCori_max                    =   1.4584096177006E-04
(PID.TID 0000.0001) %MON fCori_min                    =  -1.4429171327635E-04
(PID.TID 0000.0001) %MON fCori_mean                   =  -1.9531894197173E-06
(PID.TID 0000.0001) %MON fCori_sd                     =   1.0434730642309E-04
(PID.TID 0000.0001) %MON fCoriG_max                   =   1.4584247033981E-04
(PID.TID 0000.0001) %MON fCoriG_min                   =  -1.4435339896041E-04
(PID.TID 0000.0001) %MON fCoriG_mean                  =  -1.9303770726087E-06
(PID.TID 0000.0001) %MON fCoriG_sd                    =   1.0435958182593E-04
(PID.TID 0000.0001) %MON fCoriCos_max                 =   1.4584158744890E-04
(PID.TID 0000.0001) %MON fCoriCos_min                 =   6.6334365221135E-07
(PID.TID 0000.0001) %MON fCoriCos_mean                =   9.3876998486639E-05
(PID.TID 0000.0001) %MON fCoriCos_sd                  =   3.9559575367967E-05
(PID.TID 0000.0001) INI_CG2D: CG2D normalisation factor =  7.1522409280111305E-05
(PID.TID 0000.0001) INI_CG2D: cg2dTolerance = 2.845112656120382E-05 (Area=3.5801386115E+14)
(PID.TID 0000.0001) 
(PID.TID 0000.0001) // =======================================================
(PID.TID 0000.0001) // Model configuration
(PID.TID 0000.0001) // =======================================================
(PID.TID 0000.0001) //
(PID.TID 0000.0001) // "Physical" paramters ( PARM01 in namelist )
(PID.TID 0000.0001) //
(PID.TID 0000.0001) buoyancyRelation = /* Type of relation to get Buoyancy */
(PID.TID 0000.0001)               'OCEANIC'
(PID.TID 0000.0001)     ;
(PID.TID 0000.0001) fluidIsAir   =  /* fluid major constituent is Air */
(PID.TID 0000.0001)                   F
(PID.TID 0000.0001)     ;
(PID.TID 0000.0001) fluidIsWater =  /* fluid major constituent is Water */
(PID.TID 0000.0001)                   T
(PID.TID 0000.0001)     ;
(PID.TID 0000.0001) usingPCoords =  /* use p (or p*) vertical coordinate */
(PID.TID 0000.0001)                   F
(PID.TID 0000.0001)     ;
(PID.TID 0000.0001) usingZCoords =  /* use z (or z*) vertical coordinate */
(PID.TID 0000.0001)                   T
(PID.TID 0000.0001)     ;
(PID.TID 0000.0001) tRef =   /* Reference temperature profile ( oC or K ) */
(PID.TID 0000.0001)     3 @  2.300000000000000E+01,             /* K =  1:  3 */
(PID.TID 0000.0001)     3 @  2.200000000000000E+01,             /* K =  4:  6 */
(PID.TID 0000.0001)                 2.100000000000000E+01,      /* K =  7 */
(PID.TID 0000.0001)     2 @  2.000000000000000E+01,             /* K =  8:  9 */
(PID.TID 0000.0001)                 1.900000000000000E+01,      /* K = 10 */
(PID.TID 0000.0001)     2 @  1.800000000000000E+01,             /* K = 11: 12 */
(PID.TID 0000.0001)                 1.700000000000000E+01,      /* K = 13 */
(PID.TID 0000.0001)     2 @  1.600000000000000E+01,             /* K = 14: 15 */
(PID.TID 0000.0001)                 1.500000000000000E+01,      /* K = 16 */
(PID.TID 0000.0001)                 1.400000000000000E+01,      /* K = 17 */
(PID.TID 0000.0001)                 1.300000000000000E+01,      /* K = 18 */
(PID.TID 0000.0001)                 1.200000000000000E+01,      /* K = 19 */
(PID.TID 0000.0001)                 1.100000000000000E+01,      /* K = 20 */
(PID.TID 0000.0001)     2 @  9.000000000000000E+00,             /* K = 21: 22 */
(PID.TID 0000.0001)                 8.000000000000000E+00,      /* K = 23 */
(PID.TID 0000.0001)                 7.000000000000000E+00,      /* K = 24 */
(PID.TID 0000.0001)     2 @  6.000000000000000E+00,             /* K = 25: 26 */
(PID.TID 0000.0001)     2 @  5.000000000000000E+00,             /* K = 27: 28 */
(PID.TID 0000.0001)     3 @  4.000000000000000E+00,             /* K = 29: 31 */
(PID.TID 0000.0001)     3 @  3.000000000000000E+00,             /* K = 32: 34 */
(PID.TID 0000.0001)     4 @  2.000000000000000E+00,             /* K = 35: 38 */
(PID.TID 0000.0001)    12 @  1.000000000000000E+00              /* K = 39: 50 */
(PID.TID 0000.0001)     ;
(PID.TID 0000.0001) sRef =   /* Reference salinity profile ( psu ) */
(PID.TID 0000.0001)    50 @  3.450000000000000E+01              /* K =  1: 50 */
(PID.TID 0000.0001)     ;
(PID.TID 0000.0001) useStrainTensionVisc= /* Use StrainTension Form of Viscous Operator */
(PID.TID 0000.0001)                   F
(PID.TID 0000.0001)     ;
(PID.TID 0000.0001) useVariableVisc = /* Use variable horizontal viscosity */
(PID.TID 0000.0001)                   T
(PID.TID 0000.0001)     ;
(PID.TID 0000.0001) useHarmonicVisc = /* Use harmonic horizontal viscosity */
(PID.TID 0000.0001)                   T
(PID.TID 0000.0001)     ;
(PID.TID 0000.0001) useBiharmonicVisc= /* Use biharmonic horiz.  viscosity */
(PID.TID 0000.0001)                   T
(PID.TID 0000.0001)     ;
(PID.TID 0000.0001) useSmag3D = /* Use isotropic 3-D Smagorinsky viscosity */
(PID.TID 0000.0001)                   F
(PID.TID 0000.0001)     ;
(PID.TID 0000.0001) viscAh  =   /* Lateral harmonic viscosity ( m^2/s ) */
(PID.TID 0000.0001)                 1.000000000000000E+00
(PID.TID 0000.0001)     ;
(PID.TID 0000.0001) viscAhMax = /* Maximum lateral harmonic viscosity ( m^2/s ) */
(PID.TID 0000.0001)                 1.000000000000000E+21
(PID.TID 0000.0001)     ;
(PID.TID 0000.0001) viscAhGrid = /* Grid dependent lateral harmonic viscosity ( non-dim. ) */
(PID.TID 0000.0001)                 2.000000000000000E-02
(PID.TID 0000.0001)     ;
(PID.TID 0000.0001) useFullLeith = /* Use Full Form of Leith Viscosity on/off flag*/
(PID.TID 0000.0001)                   F
(PID.TID 0000.0001)     ;
(PID.TID 0000.0001) useAreaViscLength = /* Use area for visc length instead of geom. mean*/
(PID.TID 0000.0001)                   F
(PID.TID 0000.0001)     ;
(PID.TID 0000.0001) viscC2leith = /* Leith harmonic visc. factor (on grad(vort),non-dim.) */
(PID.TID 0000.0001)                 0.000000000000000E+00
(PID.TID 0000.0001)     ;
(PID.TID 0000.0001) viscC2leithD = /* Leith harmonic viscosity factor (on grad(div),non-dim.)*/
(PID.TID 0000.0001)                 0.000000000000000E+00
(PID.TID 0000.0001)     ;
(PID.TID 0000.0001) viscC2smag = /* Smagorinsky harmonic viscosity factor (non-dim.) */
(PID.TID 0000.0001)                 0.000000000000000E+00
(PID.TID 0000.0001)     ;
(PID.TID 0000.0001) viscA4  =   /* Lateral biharmonic viscosity ( m^4/s ) */
(PID.TID 0000.0001)                 0.000000000000000E+00
(PID.TID 0000.0001)     ;
(PID.TID 0000.0001) viscA4Max = /* Maximum biharmonic viscosity ( m^2/s ) */
(PID.TID 0000.0001)                 1.000000000000000E+21
(PID.TID 0000.0001)     ;
(PID.TID 0000.0001) viscA4Grid = /* Grid dependent biharmonic viscosity ( non-dim. ) */
(PID.TID 0000.0001)                 0.000000000000000E+00
(PID.TID 0000.0001)     ;
(PID.TID 0000.0001) viscC4leith = /* Leith biharm viscosity factor (on grad(vort), non-dim.)*/
(PID.TID 0000.0001)                 0.000000000000000E+00
(PID.TID 0000.0001)     ;
(PID.TID 0000.0001) viscC4leithD = /* Leith biharm viscosity factor (on grad(div), non-dim.) */
(PID.TID 0000.0001)                 0.000000000000000E+00
(PID.TID 0000.0001)     ;
(PID.TID 0000.0001) viscC4Smag = /* Smagorinsky biharm viscosity factor (non-dim) */
(PID.TID 0000.0001)                 0.000000000000000E+00
(PID.TID 0000.0001)     ;
(PID.TID 0000.0001) no_slip_sides =  /* Viscous BCs: No-slip sides */
(PID.TID 0000.0001)                   T
(PID.TID 0000.0001)     ;
(PID.TID 0000.0001) sideDragFactor = /* side-drag scaling factor (non-dim) */
(PID.TID 0000.0001)                 2.000000000000000E+00
(PID.TID 0000.0001)     ;
(PID.TID 0000.0001) viscArNr = /* vertical profile of vertical viscosity ( m^2/s )*/
(PID.TID 0000.0001)    50 @  5.000000000000000E-05              /* K =  1: 50 */
(PID.TID 0000.0001)     ;
(PID.TID 0000.0001) no_slip_bottom =  /* Viscous BCs: No-slip bottom */
(PID.TID 0000.0001)                   T
(PID.TID 0000.0001)     ;
(PID.TID 0000.0001) bottomVisc_pCell = /* Partial-cell in bottom Visc. BC */
(PID.TID 0000.0001)                   F
(PID.TID 0000.0001)     ;
(PID.TID 0000.0001) bottomDragLinear = /* linear bottom-drag coefficient ( m/s ) */
(PID.TID 0000.0001)                 0.000000000000000E+00
(PID.TID 0000.0001)     ;
(PID.TID 0000.0001) bottomDragQuadratic = /* quadratic bottom-drag coefficient (-) */
(PID.TID 0000.0001)                 1.000000000000000E-03
(PID.TID 0000.0001)     ;
(PID.TID 0000.0001) selectBotDragQuadr = /* select quadratic bottom drag options */
(PID.TID 0000.0001)                       0
(PID.TID 0000.0001)     ;
(PID.TID 0000.0001) diffKhT =   /* Laplacian diffusion of heat laterally ( m^2/s ) */
(PID.TID 0000.0001)                 1.000000000000000E+01
(PID.TID 0000.0001)     ;
(PID.TID 0000.0001) diffK4T =   /* Biharmonic diffusion of heat laterally ( m^4/s ) */
(PID.TID 0000.0001)                 0.000000000000000E+00
(PID.TID 0000.0001)     ;
(PID.TID 0000.0001) diffKhS =   /* Laplacian diffusion of salt laterally ( m^2/s ) */
(PID.TID 0000.0001)                 1.000000000000000E+01
(PID.TID 0000.0001)     ;
(PID.TID 0000.0001) diffK4S =   /* Biharmonic diffusion of salt laterally ( m^4/s ) */
(PID.TID 0000.0001)                 0.000000000000000E+00
(PID.TID 0000.0001)     ;
(PID.TID 0000.0001) diffKrNrT = /* vertical profile of vertical diffusion of Temp ( m^2/s )*/
(PID.TID 0000.0001)    50 @  1.000000000000000E-05              /* K =  1: 50 */
(PID.TID 0000.0001)     ;
(PID.TID 0000.0001) diffKrNrS = /* vertical profile of vertical diffusion of Salt ( m^2/s )*/
(PID.TID 0000.0001)    50 @  1.000000000000000E-05              /* K =  1: 50 */
(PID.TID 0000.0001)     ;
(PID.TID 0000.0001) diffKrBL79surf = /* Surface diffusion for Bryan and Lewis 79 ( m^2/s ) */
(PID.TID 0000.0001)                 0.000000000000000E+00
(PID.TID 0000.0001)     ;
(PID.TID 0000.0001) diffKrBL79deep = /* Deep diffusion for Bryan and Lewis 1979 ( m^2/s ) */
(PID.TID 0000.0001)                 0.000000000000000E+00
(PID.TID 0000.0001)     ;
(PID.TID 0000.0001) diffKrBL79scl = /* Depth scale for Bryan and Lewis 1979 ( m ) */
(PID.TID 0000.0001)                 2.000000000000000E+02
(PID.TID 0000.0001)     ;
(PID.TID 0000.0001) diffKrBL79Ho = /* Turning depth for Bryan and Lewis 1979 ( m ) */
(PID.TID 0000.0001)                -2.000000000000000E+03
(PID.TID 0000.0001)     ;
(PID.TID 0000.0001) ivdc_kappa = /* Implicit Vertical Diffusivity for Convection ( m^2/s) */
(PID.TID 0000.0001)                 1.000000000000000E+01
(PID.TID 0000.0001)     ;
(PID.TID 0000.0001) hMixCriteria=  /* Criteria for mixed-layer diagnostic */
(PID.TID 0000.0001)                -8.000000000000000E-01
(PID.TID 0000.0001)     ;
(PID.TID 0000.0001) dRhoSmall =  /* Parameter for mixed-layer diagnostic */
(PID.TID 0000.0001)                 1.000000000000000E-06
(PID.TID 0000.0001)     ;
(PID.TID 0000.0001) hMixSmooth=  /* Smoothing parameter for mixed-layer diagnostic */
(PID.TID 0000.0001)                 0.000000000000000E+00
(PID.TID 0000.0001)     ;
(PID.TID 0000.0001) eosType =  /* Type of Equation of State */
(PID.TID 0000.0001)               'JMD95Z'
(PID.TID 0000.0001)     ;
(PID.TID 0000.0001) selectP_inEOS_Zc = /* select pressure to use in EOS (0,1,2,3) */
(PID.TID 0000.0001)                       0
(PID.TID 0000.0001)     0= -g*rhoConst*z ; 1= pRef (from tRef,sRef); 2= Hyd P ; 3= Hyd+NH P
(PID.TID 0000.0001)     ;
(PID.TID 0000.0001) HeatCapacity_Cp =  /* Specific heat capacity ( J/kg/K ) */
(PID.TID 0000.0001)                 3.994000000000000E+03
(PID.TID 0000.0001)     ;
(PID.TID 0000.0001) celsius2K = /* 0 degree Celsius converted to Kelvin ( K ) */
(PID.TID 0000.0001)                 2.731500000000000E+02
(PID.TID 0000.0001)     ;
(PID.TID 0000.0001) rhoConst  = /* Reference density (Boussinesq)  ( kg/m^3 ) */
(PID.TID 0000.0001)                 1.029000000000000E+03
(PID.TID 0000.0001)     ;
(PID.TID 0000.0001) rhoFacC = /* normalized Reference density @ cell-Center (-) */
(PID.TID 0000.0001)    50 @  1.000000000000000E+00              /* K =  1: 50 */
(PID.TID 0000.0001)     ;
(PID.TID 0000.0001) rhoFacF = /* normalized Reference density @ W-Interface (-) */
(PID.TID 0000.0001)    51 @  1.000000000000000E+00              /* K =  1: 51 */
(PID.TID 0000.0001)     ;
(PID.TID 0000.0001) rhoConstFresh = /* Fresh-water reference density ( kg/m^3 ) */
(PID.TID 0000.0001)                 1.000000000000000E+03
(PID.TID 0000.0001)     ;
(PID.TID 0000.0001) gravity =   /* Gravitational acceleration ( m/s^2 ) */
(PID.TID 0000.0001)                 9.810000000000000E+00
(PID.TID 0000.0001)     ;
(PID.TID 0000.0001) gBaro =   /* Barotropic gravity ( m/s^2 ) */
(PID.TID 0000.0001)                 9.810000000000000E+00
(PID.TID 0000.0001)     ;
(PID.TID 0000.0001) gravFacC = /* gravity factor (vs surf.) @ cell-Center (-) */
(PID.TID 0000.0001)    50 @  1.000000000000000E+00              /* K =  1: 50 */
(PID.TID 0000.0001)     ;
(PID.TID 0000.0001) gravFacF = /* gravity factor (vs surf.) @ W-Interface (-) */
(PID.TID 0000.0001)    51 @  1.000000000000000E+00              /* K =  1: 51 */
(PID.TID 0000.0001)     ;
(PID.TID 0000.0001) rotationPeriod =   /* Rotation Period ( s ) */
(PID.TID 0000.0001)                 8.616400000000000E+04
(PID.TID 0000.0001)     ;
(PID.TID 0000.0001) omega =   /* Angular velocity ( rad/s ) */
(PID.TID 0000.0001)                 7.292123516990375E-05
(PID.TID 0000.0001)     ;
(PID.TID 0000.0001) f0 =   /* Reference coriolis parameter ( 1/s ) */
(PID.TID 0000.0001)                 1.000000000000000E-04
(PID.TID 0000.0001)     ;
(PID.TID 0000.0001) beta =   /* Beta ( 1/(m.s) ) */
(PID.TID 0000.0001)                 9.999999999999999E-12
(PID.TID 0000.0001)     ;
(PID.TID 0000.0001) fPrime =   /* Second coriolis parameter ( 1/s ) */
(PID.TID 0000.0001)                 0.000000000000000E+00
(PID.TID 0000.0001)     ;
(PID.TID 0000.0001) rigidLid =   /* Rigid lid on/off flag */
(PID.TID 0000.0001)                   F
(PID.TID 0000.0001)     ;
(PID.TID 0000.0001) implicitFreeSurface =   /* Implicit free surface on/off flag */
(PID.TID 0000.0001)                   T
(PID.TID 0000.0001)     ;
(PID.TID 0000.0001) freeSurfFac =   /* Implicit free surface factor */
(PID.TID 0000.0001)                 1.000000000000000E+00
(PID.TID 0000.0001)     ;
(PID.TID 0000.0001) implicSurfPress =  /* Surface Pressure implicit factor (0-1)*/
(PID.TID 0000.0001)                 1.000000000000000E+00
(PID.TID 0000.0001)     ;
(PID.TID 0000.0001) implicDiv2DFlow =  /* Barot. Flow Div. implicit factor (0-1)*/
(PID.TID 0000.0001)                 1.000000000000000E+00
(PID.TID 0000.0001)     ;
(PID.TID 0000.0001) uniformLin_PhiSurf = /* use uniform Bo_surf on/off flag*/
(PID.TID 0000.0001)                   T
(PID.TID 0000.0001)     ;
(PID.TID 0000.0001) uniformFreeSurfLev = /* free-surface level-index is uniform */
(PID.TID 0000.0001)                   T
(PID.TID 0000.0001)     ;
(PID.TID 0000.0001) hFacMin =   /* minimum partial cell factor (hFac) */
(PID.TID 0000.0001)                 2.000000000000000E-01
(PID.TID 0000.0001)     ;
(PID.TID 0000.0001) hFacMinDr = /* minimum partial cell thickness ( m) */
(PID.TID 0000.0001)                 5.000000000000000E+00
(PID.TID 0000.0001)     ;
(PID.TID 0000.0001) exactConserv =  /* Exact Volume Conservation on/off flag*/
(PID.TID 0000.0001)                   T
(PID.TID 0000.0001)     ;
(PID.TID 0000.0001) linFSConserveTr = /* Tracer correction for Lin Free Surface on/off flag*/
(PID.TID 0000.0001)                   F
(PID.TID 0000.0001)     ;
(PID.TID 0000.0001) nonlinFreeSurf = /* Non-linear Free Surf. options (-1,0,1,2,3)*/
(PID.TID 0000.0001)                       4
(PID.TID 0000.0001)      -1,0= Off ; 1,2,3= On, 2=+rescale gU,gV, 3=+update cg2d solv.
(PID.TID 0000.0001)     ;
(PID.TID 0000.0001) hFacInf =   /* lower threshold for hFac (nonlinFreeSurf only)*/
(PID.TID 0000.0001)                 2.000000000000000E-01
(PID.TID 0000.0001)     ;
(PID.TID 0000.0001) hFacSup =   /* upper threshold for hFac (nonlinFreeSurf only)*/
(PID.TID 0000.0001)                 2.000000000000000E+00
(PID.TID 0000.0001)     ;
(PID.TID 0000.0001) select_rStar = /* r* Vertical coord. options (=0 r coord.; >0 uses r*)*/
(PID.TID 0000.0001)                       2
(PID.TID 0000.0001)     ;
(PID.TID 0000.0001) useRealFreshWaterFlux = /* Real Fresh Water Flux on/off flag*/
(PID.TID 0000.0001)                   T
(PID.TID 0000.0001)     ;
(PID.TID 0000.0001) temp_EvPrRn = /* Temp. of Evap/Prec/R (UNSET=use local T)(oC)*/
(PID.TID 0000.0001)                 1.234567000000000E+05
(PID.TID 0000.0001)     ;
(PID.TID 0000.0001) salt_EvPrRn = /* Salin. of Evap/Prec/R (UNSET=use local S)(psu)*/
(PID.TID 0000.0001)                 0.000000000000000E+00
(PID.TID 0000.0001)     ;
(PID.TID 0000.0001) selectAddFluid = /* option for mass source/sink of fluid (=0: off) */
(PID.TID 0000.0001)                       0
(PID.TID 0000.0001)     ;
(PID.TID 0000.0001) temp_addMass = /* Temp. of addMass array (UNSET=use local T)(oC)*/
(PID.TID 0000.0001)                 1.234567000000000E+05
(PID.TID 0000.0001)     ;
(PID.TID 0000.0001) salt_addMass = /* Salin. of addMass array (UNSET=use local S)(psu)*/
(PID.TID 0000.0001)                 0.000000000000000E+00
(PID.TID 0000.0001)     ;
(PID.TID 0000.0001) use3Dsolver = /* use 3-D pressure solver on/off flag */
(PID.TID 0000.0001)                   F
(PID.TID 0000.0001)     ;
(PID.TID 0000.0001) nonHydrostatic =  /* Non-Hydrostatic on/off flag */
(PID.TID 0000.0001)                   F
(PID.TID 0000.0001)     ;
(PID.TID 0000.0001) nh_Am2 = /* Non-Hydrostatic terms scaling factor */
(PID.TID 0000.0001)                 1.000000000000000E+00
(PID.TID 0000.0001)     ;
(PID.TID 0000.0001) implicitNHPress = /* Non-Hyd Pressure implicit factor (0-1)*/
(PID.TID 0000.0001)                 1.000000000000000E+00
(PID.TID 0000.0001)     ;
(PID.TID 0000.0001) selectNHfreeSurf = /* Non-Hyd (free-)Surface option */
(PID.TID 0000.0001)                       0
(PID.TID 0000.0001)     ;
(PID.TID 0000.0001) quasiHydrostatic = /* Quasi-Hydrostatic on/off flag */
(PID.TID 0000.0001)                   F
(PID.TID 0000.0001)     ;
(PID.TID 0000.0001) calc_wVelocity = /* vertical velocity calculation on/off flag */
(PID.TID 0000.0001)                   T
(PID.TID 0000.0001)     ;
(PID.TID 0000.0001) momStepping =  /* Momentum equation on/off flag */
(PID.TID 0000.0001)                   T
(PID.TID 0000.0001)     ;
(PID.TID 0000.0001) vectorInvariantMomentum= /* Vector-Invariant Momentum on/off */
(PID.TID 0000.0001)                   T
(PID.TID 0000.0001)     ;
(PID.TID 0000.0001) momAdvection =  /* Momentum advection on/off flag */
(PID.TID 0000.0001)                   T
(PID.TID 0000.0001)     ;
(PID.TID 0000.0001) momViscosity =  /* Momentum viscosity on/off flag */
(PID.TID 0000.0001)                   T
(PID.TID 0000.0001)     ;
(PID.TID 0000.0001) momImplVertAdv= /* Momentum implicit vert. advection on/off*/
(PID.TID 0000.0001)                   F
(PID.TID 0000.0001)     ;
(PID.TID 0000.0001) implicitViscosity = /* Implicit viscosity on/off flag */
(PID.TID 0000.0001)                   T
(PID.TID 0000.0001)     ;
(PID.TID 0000.0001) selectImplicitDrag= /* Implicit bot Drag options (0,1,2)*/
(PID.TID 0000.0001)                       0
(PID.TID 0000.0001)     0= Expl. ; 1= Impl. on provis. Vel ; 2= Fully Impl (with surf.P)
(PID.TID 0000.0001)     ;
(PID.TID 0000.0001) metricTerms =  /* metric-Terms on/off flag */
(PID.TID 0000.0001)                   F
(PID.TID 0000.0001)     ;
(PID.TID 0000.0001) useNHMTerms = /* Non-Hydrostatic Metric-Terms on/off */
(PID.TID 0000.0001)                   F
(PID.TID 0000.0001)     ;
(PID.TID 0000.0001) selectCoriMap = /* Coriolis Map options (0,1,2,3)*/
(PID.TID 0000.0001)                       2
(PID.TID 0000.0001)     0= f-Plane ; 1= Beta-Plane ; 2= Spherical ; 3= read from file
(PID.TID 0000.0001)     ;
(PID.TID 0000.0001) use3dCoriolis = /* 3-D Coriolis on/off flag */
(PID.TID 0000.0001)                   F
(PID.TID 0000.0001)     ;
(PID.TID 0000.0001) useCoriolis =  /* Coriolis on/off flag */
(PID.TID 0000.0001)                   T
(PID.TID 0000.0001)     ;
(PID.TID 0000.0001) useCDscheme =  /* CD scheme on/off flag */
(PID.TID 0000.0001)                   F
(PID.TID 0000.0001)     ;
(PID.TID 0000.0001) useEnergyConservingCoriolis= /* Flx-Form Coriolis scheme flag */
(PID.TID 0000.0001)                   F
(PID.TID 0000.0001)     ;
(PID.TID 0000.0001) useJamartWetPoints= /* Coriolis WetPoints method flag */
(PID.TID 0000.0001)                   T
(PID.TID 0000.0001)     ;
(PID.TID 0000.0001) useJamartMomAdv= /* V.I Non-linear terms Jamart flag */
(PID.TID 0000.0001)                   F
(PID.TID 0000.0001)     ;
(PID.TID 0000.0001) useAbsVorticity= /* V.I Works with f+zeta in Coriolis */
(PID.TID 0000.0001)                   F
(PID.TID 0000.0001)     ;
(PID.TID 0000.0001) selectVortScheme= /* V.I Scheme selector for Vorticity-Term */
(PID.TID 0000.0001)                       1
(PID.TID 0000.0001)    = 0 : enstrophy (Shallow-Water Eq.) conserving scheme by Sadourny, JAS 75
(PID.TID 0000.0001)    = 1 : same as 0 with modified hFac
(PID.TID 0000.0001)    = 2 : energy conserving scheme (used by Sadourny in JAS 75 paper)
(PID.TID 0000.0001)    = 3 : energy (general) and enstrophy (2D, nonDiv.) conserving scheme
(PID.TID 0000.0001)          from Sadourny (Burridge & Haseler, ECMWF Rep.4, 1977)
(PID.TID 0000.0001)     ;
(PID.TID 0000.0001) upwindVorticity= /* V.I Upwind bias vorticity flag */
(PID.TID 0000.0001)                   F
(PID.TID 0000.0001)     ;
(PID.TID 0000.0001) highOrderVorticity= /* V.I High order vort. advect. flag */
(PID.TID 0000.0001)                   F
(PID.TID 0000.0001)     ;
(PID.TID 0000.0001) upwindShear= /* V.I Upwind vertical Shear advection flag */
(PID.TID 0000.0001)                   F
(PID.TID 0000.0001)     ;
(PID.TID 0000.0001) selectKEscheme= /* V.I Kinetic Energy scheme selector */
(PID.TID 0000.0001)                       0
(PID.TID 0000.0001)     ;
(PID.TID 0000.0001) momForcing =  /* Momentum forcing on/off flag */
(PID.TID 0000.0001)                   T
(PID.TID 0000.0001)     ;
(PID.TID 0000.0001) momTidalForcing = /* Momentum Tidal forcing on/off flag */
(PID.TID 0000.0001)                   T
(PID.TID 0000.0001)     ;
(PID.TID 0000.0001) momPressureForcing =  /* Momentum pressure term on/off flag */
(PID.TID 0000.0001)                   T
(PID.TID 0000.0001)     ;
(PID.TID 0000.0001) implicitIntGravWave= /* Implicit Internal Gravity Wave flag */
(PID.TID 0000.0001)                   F
(PID.TID 0000.0001)     ;
(PID.TID 0000.0001) staggerTimeStep =    /* Stagger time stepping on/off flag */
(PID.TID 0000.0001)                   T
(PID.TID 0000.0001)     ;
(PID.TID 0000.0001) doResetHFactors = /* reset thickness factors @ each time-step */
(PID.TID 0000.0001)                   F
(PID.TID 0000.0001)     ;
(PID.TID 0000.0001) multiDimAdvection =  /* enable/disable Multi-Dim Advection */
(PID.TID 0000.0001)                   T
(PID.TID 0000.0001)     ;
(PID.TID 0000.0001) useMultiDimAdvec =   /* Multi-Dim Advection is/is-not used */
(PID.TID 0000.0001)                   T
(PID.TID 0000.0001)     ;
(PID.TID 0000.0001) implicitDiffusion = /* Implicit Diffusion on/off flag */
(PID.TID 0000.0001)                   T
(PID.TID 0000.0001)     ;
(PID.TID 0000.0001) tempStepping =  /* Temperature equation on/off flag */
(PID.TID 0000.0001)                   T
(PID.TID 0000.0001)     ;
(PID.TID 0000.0001) tempAdvection = /* Temperature advection on/off flag */
(PID.TID 0000.0001)                   T
(PID.TID 0000.0001)     ;
(PID.TID 0000.0001) tempImplVertAdv = /* Temp. implicit vert. advection on/off */
(PID.TID 0000.0001)                   T
(PID.TID 0000.0001)     ;
(PID.TID 0000.0001) tempForcing  =  /* Temperature forcing on/off flag */
(PID.TID 0000.0001)                   T
(PID.TID 0000.0001)     ;
(PID.TID 0000.0001) balanceQnet  =  /* balance net heat-flux on/off flag */
(PID.TID 0000.0001)                   F
(PID.TID 0000.0001)     ;
(PID.TID 0000.0001) doThetaClimRelax = /* apply SST relaxation on/off flag */
(PID.TID 0000.0001)                   F
(PID.TID 0000.0001)     ;
(PID.TID 0000.0001) balanceThetaClimRelax= /* balance SST relaxation on/off flag */
(PID.TID 0000.0001)                   F
(PID.TID 0000.0001)     ;
(PID.TID 0000.0001) tempIsActiveTr = /* Temp. is a dynamically Active Tracer */
(PID.TID 0000.0001)                   T
(PID.TID 0000.0001)     ;
(PID.TID 0000.0001) saltStepping =  /* Salinity equation on/off flag */
(PID.TID 0000.0001)                   T
(PID.TID 0000.0001)     ;
(PID.TID 0000.0001) saltAdvection = /* Salinity advection on/off flag */
(PID.TID 0000.0001)                   T
(PID.TID 0000.0001)     ;
(PID.TID 0000.0001) saltImplVertAdv = /* Sali. implicit vert. advection on/off */
(PID.TID 0000.0001)                   T
(PID.TID 0000.0001)     ;
(PID.TID 0000.0001) saltForcing  =  /* Salinity forcing on/off flag */
(PID.TID 0000.0001)                   T
(PID.TID 0000.0001)     ;
(PID.TID 0000.0001) balanceEmPmR =  /* balance net fresh-water flux on/off flag */
(PID.TID 0000.0001)                   F
(PID.TID 0000.0001)     ;
(PID.TID 0000.0001) doSaltClimRelax = /* apply SSS relaxation on/off flag */
(PID.TID 0000.0001)                   F
(PID.TID 0000.0001)     ;
(PID.TID 0000.0001) balanceSaltClimRelax= /* balance SSS relaxation on/off flag */
(PID.TID 0000.0001)                   T
(PID.TID 0000.0001)     ;
(PID.TID 0000.0001) saltIsActiveTr = /* Salt  is a dynamically Active Tracer */
(PID.TID 0000.0001)                   T
(PID.TID 0000.0001)     ;
(PID.TID 0000.0001)  readBinaryPrec = /* Precision used for reading binary files */
(PID.TID 0000.0001)                      32
(PID.TID 0000.0001)     ;
(PID.TID 0000.0001) writeBinaryPrec = /* Precision used for writing binary files */
(PID.TID 0000.0001)                      32
(PID.TID 0000.0001)     ;
(PID.TID 0000.0001)  rwSuffixType =   /* select format of mds file suffix */
(PID.TID 0000.0001)                       0
(PID.TID 0000.0001)    = 0 : myIter (I10.10) ;   = 1 : 100*myTime (100th sec) ;
(PID.TID 0000.0001)    = 2 : myTime (seconds);   = 3 : myTime/360 (10th of hr);
(PID.TID 0000.0001)    = 4 : myTime/3600 (hours)
(PID.TID 0000.0001)     ;
(PID.TID 0000.0001)  globalFiles = /* write "global" (=not per tile) files */
(PID.TID 0000.0001)                   F
(PID.TID 0000.0001)     ;
(PID.TID 0000.0001)  useSingleCpuIO = /* only master MPI process does I/O */
(PID.TID 0000.0001)                   T
(PID.TID 0000.0001)     ;
(PID.TID 0000.0001)  useSingleCpuInput = /* only master process reads input */
(PID.TID 0000.0001)                   T
(PID.TID 0000.0001)     ;
(PID.TID 0000.0001) /* debLev[*]  : level of debug & auxiliary message printing */
(PID.TID 0000.0001) debLevZero =  0 ; /* level of disabled aux. msg printing */
(PID.TID 0000.0001)    debLevA =  1 ; /* level of minimum  aux. msg printing */
(PID.TID 0000.0001)    debLevB =  2 ; /* level of low aux. print (report read-file opening)*/
(PID.TID 0000.0001)    debLevC =  3 ; /* level of moderate debug prt (most pkgs debug msg) */
(PID.TID 0000.0001)    debLevD =  4 ; /* level of enhanced debug prt (add DEBUG_STATS prt) */
(PID.TID 0000.0001)    debLevE =  5 ; /* level of extensive debug printing */
(PID.TID 0000.0001) debugLevel =  /* select debug printing level */
(PID.TID 0000.0001)                       2
(PID.TID 0000.0001)     ;
(PID.TID 0000.0001)  plotLevel =  /* select PLOT_FIELD printing level */
(PID.TID 0000.0001)                       2
(PID.TID 0000.0001)     ;
(PID.TID 0000.0001) //
(PID.TID 0000.0001) // Elliptic solver(s) paramters ( PARM02 in namelist )
(PID.TID 0000.0001) //
(PID.TID 0000.0001) cg2dMaxIters =   /* Upper limit on 2d con. grad iterations  */
(PID.TID 0000.0001)                     300
(PID.TID 0000.0001)     ;
(PID.TID 0000.0001) cg2dChkResFreq =   /* 2d con. grad convergence test frequency */
(PID.TID 0000.0001)                       1
(PID.TID 0000.0001)     ;
(PID.TID 0000.0001) cg2dUseMinResSol= /* use cg2d last-iter(=0) / min-resid.(=1) solution */
(PID.TID 0000.0001)                       0
(PID.TID 0000.0001)     ;
(PID.TID 0000.0001) cg2dTargetResidual =   /* 2d con. grad target residual  */
(PID.TID 0000.0001)                 1.000000000000000E-07
(PID.TID 0000.0001)     ;
(PID.TID 0000.0001) cg2dTargetResWunit =   /* CG2d target residual [W units] */
(PID.TID 0000.0001)                 1.000000000000000E-12
(PID.TID 0000.0001)     ;
(PID.TID 0000.0001) cg2dPreCondFreq =   /* Freq. for updating cg2d preconditioner */
(PID.TID 0000.0001)                       1
(PID.TID 0000.0001)     ;
(PID.TID 0000.0001) useSRCGSolver =  /* use single reduction CG solver(s) */
(PID.TID 0000.0001)                   F
(PID.TID 0000.0001)     ;
(PID.TID 0000.0001) printResidualFreq = /* Freq. for printing CG residual */
(PID.TID 0000.0001)                       0
(PID.TID 0000.0001)     ;
(PID.TID 0000.0001) //
(PID.TID 0000.0001) // Time stepping paramters ( PARM03 in namelist )
(PID.TID 0000.0001) //
(PID.TID 0000.0001) deltaTMom =   /* Momentum equation timestep ( s ) */
(PID.TID 0000.0001)                 9.000000000000000E+02
(PID.TID 0000.0001)     ;
(PID.TID 0000.0001) deltaTFreeSurf = /* FreeSurface equation timestep ( s ) */
(PID.TID 0000.0001)                 9.000000000000000E+02
(PID.TID 0000.0001)     ;
(PID.TID 0000.0001) dTtracerLev =  /* Tracer equation timestep ( s ) */
(PID.TID 0000.0001)    50 @  9.000000000000000E+02              /* K =  1: 50 */
(PID.TID 0000.0001)     ;
(PID.TID 0000.0001) deltaTClock  =   /* Model clock timestep ( s ) */
(PID.TID 0000.0001)                 9.000000000000000E+02
(PID.TID 0000.0001)     ;
(PID.TID 0000.0001) cAdjFreq =   /* Convective adjustment interval ( s ) */
(PID.TID 0000.0001)                 0.000000000000000E+00
(PID.TID 0000.0001)     ;
(PID.TID 0000.0001) momForcingOutAB = /* =1: take Momentum Forcing out of Adams-Bash. stepping */
(PID.TID 0000.0001)                       1
(PID.TID 0000.0001)     ;
(PID.TID 0000.0001) tracForcingOutAB = /* =1: take T,S,pTr Forcing out of Adams-Bash. stepping */
(PID.TID 0000.0001)                       1
(PID.TID 0000.0001)     ;
(PID.TID 0000.0001) momDissip_In_AB = /* put Dissipation Tendency in Adams-Bash. stepping */
(PID.TID 0000.0001)                   F
(PID.TID 0000.0001)     ;
(PID.TID 0000.0001) doAB_onGtGs = /* apply AB on Tendencies (rather than on T,S)*/
(PID.TID 0000.0001)                   T
(PID.TID 0000.0001)     ;
(PID.TID 0000.0001) abEps =   /* Adams-Bashforth-2 stabilizing weight */
(PID.TID 0000.0001)                 1.000000000000000E-01
(PID.TID 0000.0001)     ;
(PID.TID 0000.0001) applyExchUV_early = /* Apply EXCH to U,V earlier in time-step */
(PID.TID 0000.0001)                   F
(PID.TID 0000.0001)     ;
(PID.TID 0000.0001) pickupStrictlyMatch= /* stop if pickup do not strictly match */
(PID.TID 0000.0001)                   F
(PID.TID 0000.0001)     ;
(PID.TID 0000.0001) nIter0   =   /* Run starting timestep number */
(PID.TID 0000.0001)                       1
(PID.TID 0000.0001)     ;
(PID.TID 0000.0001) nTimeSteps = /* Number of timesteps */
(PID.TID 0000.0001)                      96
(PID.TID 0000.0001)     ;
(PID.TID 0000.0001) nEndIter =   /* Run ending timestep number */
(PID.TID 0000.0001)                      97
(PID.TID 0000.0001)     ;
(PID.TID 0000.0001) baseTime =   /* Model base time ( s ) */
(PID.TID 0000.0001)                 0.000000000000000E+00
(PID.TID 0000.0001)     ;
(PID.TID 0000.0001) startTime =  /* Run start time ( s ) */
(PID.TID 0000.0001)                 9.000000000000000E+02
(PID.TID 0000.0001)     ;
(PID.TID 0000.0001) endTime  =   /* Integration ending time ( s ) */
(PID.TID 0000.0001)                 8.730000000000000E+04
(PID.TID 0000.0001)     ;
(PID.TID 0000.0001) pChkPtFreq = /* Permanent restart/pickup file interval ( s ) */
(PID.TID 0000.0001)                 8.640000000000000E+04
(PID.TID 0000.0001)     ;
(PID.TID 0000.0001) chkPtFreq  = /* Rolling restart/pickup file interval ( s ) */
(PID.TID 0000.0001)                 8.640000000000000E+04
(PID.TID 0000.0001)     ;
(PID.TID 0000.0001) pickup_write_mdsio =   /* Model IO flag. */
(PID.TID 0000.0001)                   T
(PID.TID 0000.0001)     ;
(PID.TID 0000.0001) pickup_read_mdsio =   /* Model IO flag. */
(PID.TID 0000.0001)                   T
(PID.TID 0000.0001)     ;
(PID.TID 0000.0001) writePickupAtEnd =   /* Model IO flag. */
(PID.TID 0000.0001)                   T
(PID.TID 0000.0001)     ;
(PID.TID 0000.0001) dumpFreq =   /* Model state write out interval ( s ). */
(PID.TID 0000.0001)                 0.000000000000000E+00
(PID.TID 0000.0001)     ;
(PID.TID 0000.0001) dumpInitAndLast= /* write out Initial & Last iter. model state */
(PID.TID 0000.0001)                   T
(PID.TID 0000.0001)     ;
(PID.TID 0000.0001) snapshot_mdsio =   /* Model IO flag. */
(PID.TID 0000.0001)                   T
(PID.TID 0000.0001)     ;
(PID.TID 0000.0001) monitorFreq =   /* Monitor output interval ( s ). */
(PID.TID 0000.0001)                 7.200000000000000E+03
(PID.TID 0000.0001)     ;
(PID.TID 0000.0001) monitorSelect = /* select group of variables to monitor */
(PID.TID 0000.0001)                       3
(PID.TID 0000.0001)     ;
(PID.TID 0000.0001) monitor_stdio =   /* Model IO flag. */
(PID.TID 0000.0001)                   T
(PID.TID 0000.0001)     ;
(PID.TID 0000.0001) externForcingPeriod =   /* forcing period (s) */
(PID.TID 0000.0001)                 0.000000000000000E+00
(PID.TID 0000.0001)     ;
(PID.TID 0000.0001) externForcingCycle =   /* period of the cyle (s). */
(PID.TID 0000.0001)                 0.000000000000000E+00
(PID.TID 0000.0001)     ;
(PID.TID 0000.0001) tauThetaClimRelax =   /* relaxation time scale (s) */
(PID.TID 0000.0001)                 0.000000000000000E+00
(PID.TID 0000.0001)     ;
(PID.TID 0000.0001) tauSaltClimRelax =   /* relaxation time scale (s) */
(PID.TID 0000.0001)                 0.000000000000000E+00
(PID.TID 0000.0001)     ;
(PID.TID 0000.0001) latBandClimRelax =   /* max. Lat. where relaxation */
(PID.TID 0000.0001)                 1.800000000000000E+02
(PID.TID 0000.0001)     ;
(PID.TID 0000.0001) //
(PID.TID 0000.0001) // Gridding paramters ( PARM04 in namelist )
(PID.TID 0000.0001) //
(PID.TID 0000.0001) usingCartesianGrid = /* Cartesian coordinates flag ( True/False ) */
(PID.TID 0000.0001)                   F
(PID.TID 0000.0001)     ;
(PID.TID 0000.0001) usingCylindricalGrid = /* Cylindrical coordinates flag ( True/False ) */
(PID.TID 0000.0001)                   F
(PID.TID 0000.0001)     ;
(PID.TID 0000.0001) usingSphericalPolarGrid = /* Spherical coordinates flag ( True/False ) */
(PID.TID 0000.0001)                   F
(PID.TID 0000.0001)     ;
(PID.TID 0000.0001) usingCurvilinearGrid = /* Curvilinear coordinates flag ( True/False ) */
(PID.TID 0000.0001)                   T
(PID.TID 0000.0001)     ;
(PID.TID 0000.0001) useMin4hFacEdges = /* set hFacW,S as minimum of adjacent hFacC factor */
(PID.TID 0000.0001)                   F
(PID.TID 0000.0001)     ;
(PID.TID 0000.0001) interViscAr_pCell = /* account for partial-cell in interior vert. viscosity */
(PID.TID 0000.0001)                   F
(PID.TID 0000.0001)     ;
(PID.TID 0000.0001) interDiffKr_pCell = /* account for partial-cell in interior vert. diffusion */
(PID.TID 0000.0001)                   F
(PID.TID 0000.0001)     ;
(PID.TID 0000.0001) pCellMix_select = /* option to enhance mixing near surface & bottom */
(PID.TID 0000.0001)                       0
(PID.TID 0000.0001)     ;
(PID.TID 0000.0001) selectSigmaCoord = /* Hybrid-Sigma Vert. Coordinate option */
(PID.TID 0000.0001)                       0
(PID.TID 0000.0001)     ;
(PID.TID 0000.0001) rSigmaBnd = /* r/sigma transition ( units of r ==  m ) */
(PID.TID 0000.0001)                 1.234567000000000E+05
(PID.TID 0000.0001)     ;
(PID.TID 0000.0001) rkSign =   /* index orientation relative to vertical coordinate */
(PID.TID 0000.0001)                -1.000000000000000E+00
(PID.TID 0000.0001)     ;
(PID.TID 0000.0001) gravitySign = /* gravity orientation relative to vertical coordinate */
(PID.TID 0000.0001)                -1.000000000000000E+00
(PID.TID 0000.0001)     ;
(PID.TID 0000.0001) seaLev_Z =  /* reference height of sea-level [m] */
(PID.TID 0000.0001)                 0.000000000000000E+00
(PID.TID 0000.0001)     ;
(PID.TID 0000.0001) top_Pres =  /* reference pressure at the top [Pa] */
(PID.TID 0000.0001)                 0.000000000000000E+00
(PID.TID 0000.0001)     ;
(PID.TID 0000.0001) mass2rUnit = /* convert mass per unit area [kg/m2] to r-units [m] */
(PID.TID 0000.0001)                 9.718172983479105E-04
(PID.TID 0000.0001)     ;
(PID.TID 0000.0001) rUnit2mass = /* convert r-units [m] to mass per unit area [kg/m2] */
(PID.TID 0000.0001)                 1.029000000000000E+03
(PID.TID 0000.0001)     ;
(PID.TID 0000.0001) drC =   /* C spacing ( units of r ) */
(PID.TID 0000.0001)                 5.000000000000000E+00,      /* K =  1 */
(PID.TID 0000.0001)     6 @  1.000000000000000E+01,             /* K =  2:  7 */
(PID.TID 0000.0001)                 1.000500000000000E+01,      /* K =  8 */
(PID.TID 0000.0001)                 1.002000000000000E+01,      /* K =  9 */
(PID.TID 0000.0001)                 1.007000000000000E+01,      /* K = 10 */
(PID.TID 0000.0001)                 1.021500000000000E+01,      /* K = 11 */
(PID.TID 0000.0001)                 1.056000000000000E+01,      /* K = 12 */
(PID.TID 0000.0001)                 1.128000000000000E+01,      /* K = 13 */
(PID.TID 0000.0001)                 1.259000000000000E+01,      /* K = 14 */
(PID.TID 0000.0001)                 1.473000000000000E+01,      /* K = 15 */
(PID.TID 0000.0001)                 1.793000000000000E+01,      /* K = 16 */
(PID.TID 0000.0001)                 2.233500000000000E+01,      /* K = 17 */
(PID.TID 0000.0001)                 2.797500000000000E+01,      /* K = 18 */
(PID.TID 0000.0001)                 3.476000000000001E+01,      /* K = 19 */
(PID.TID 0000.0001)                 4.246000000000000E+01,      /* K = 20 */
(PID.TID 0000.0001)                 5.075000000000000E+01,      /* K = 21 */
(PID.TID 0000.0001)                 5.925000000000000E+01,      /* K = 22 */
(PID.TID 0000.0001)                 6.753999999999999E+01,      /* K = 23 */
(PID.TID 0000.0001)                 7.524000000000001E+01,      /* K = 24 */
(PID.TID 0000.0001)                 8.202500000000001E+01,      /* K = 25 */
(PID.TID 0000.0001)                 8.766500000000001E+01,      /* K = 26 */
(PID.TID 0000.0001)                 9.206999999999999E+01,      /* K = 27 */
(PID.TID 0000.0001)                 9.527000000000000E+01,      /* K = 28 */
(PID.TID 0000.0001)                 9.741499999999999E+01,      /* K = 29 */
(PID.TID 0000.0001)                 9.875000000000000E+01,      /* K = 30 */
(PID.TID 0000.0001)                 9.963000000000000E+01,      /* K = 31 */
(PID.TID 0000.0001)                 1.006700000000000E+02,      /* K = 32 */
(PID.TID 0000.0001)                 1.029450000000000E+02,      /* K = 33 */
(PID.TID 0000.0001)                 1.079450000000000E+02,      /* K = 34 */
(PID.TID 0000.0001)                 1.170800000000000E+02,      /* K = 35 */
(PID.TID 0000.0001)                 1.309600000000000E+02,      /* K = 36 */
(PID.TID 0000.0001)                 1.490150000000000E+02,      /* K = 37 */
(PID.TID 0000.0001)                 1.698850000000000E+02,      /* K = 38 */
(PID.TID 0000.0001)                 1.921900000000000E+02,      /* K = 39 */
(PID.TID 0000.0001)                 2.150250000000000E+02,      /* K = 40 */
(PID.TID 0000.0001)                 2.380000000000000E+02,      /* K = 41 */
(PID.TID 0000.0001)                 2.610000000000000E+02,      /* K = 42 */
(PID.TID 0000.0001)                 2.840000000000000E+02,      /* K = 43 */
(PID.TID 0000.0001)                 3.070000000000000E+02,      /* K = 44 */
(PID.TID 0000.0001)                 3.300000000000000E+02,      /* K = 45 */
(PID.TID 0000.0001)                 3.530000000000000E+02,      /* K = 46 */
(PID.TID 0000.0001)                 3.760000000000000E+02,      /* K = 47 */
(PID.TID 0000.0001)                 3.990000000000000E+02,      /* K = 48 */
(PID.TID 0000.0001)                 4.220000000000000E+02,      /* K = 49 */
(PID.TID 0000.0001)                 4.450000000000000E+02,      /* K = 50 */
(PID.TID 0000.0001)                 2.282500000000000E+02       /* K = 51 */
(PID.TID 0000.0001)     ;
(PID.TID 0000.0001) drF =   /* W spacing ( units of r ) */
(PID.TID 0000.0001)     7 @  1.000000000000000E+01,             /* K =  1:  7 */
(PID.TID 0000.0001)                 1.001000000000000E+01,      /* K =  8 */
(PID.TID 0000.0001)                 1.003000000000000E+01,      /* K =  9 */
(PID.TID 0000.0001)                 1.011000000000000E+01,      /* K = 10 */
(PID.TID 0000.0001)                 1.032000000000000E+01,      /* K = 11 */
(PID.TID 0000.0001)                 1.080000000000000E+01,      /* K = 12 */
(PID.TID 0000.0001)                 1.176000000000000E+01,      /* K = 13 */
(PID.TID 0000.0001)                 1.342000000000000E+01,      /* K = 14 */
(PID.TID 0000.0001)                 1.604000000000000E+01,      /* K = 15 */
(PID.TID 0000.0001)                 1.982000000000000E+01,      /* K = 16 */
(PID.TID 0000.0001)                 2.485000000000000E+01,      /* K = 17 */
(PID.TID 0000.0001)                 3.110000000000000E+01,      /* K = 18 */
(PID.TID 0000.0001)                 3.842000000000000E+01,      /* K = 19 */
(PID.TID 0000.0001)                 4.650000000000000E+01,      /* K = 20 */
(PID.TID 0000.0001)                 5.500000000000000E+01,      /* K = 21 */
(PID.TID 0000.0001)                 6.350000000000000E+01,      /* K = 22 */
(PID.TID 0000.0001)                 7.158000000000000E+01,      /* K = 23 */
(PID.TID 0000.0001)                 7.890000000000001E+01,      /* K = 24 */
(PID.TID 0000.0001)                 8.515000000000001E+01,      /* K = 25 */
(PID.TID 0000.0001)                 9.018000000000001E+01,      /* K = 26 */
(PID.TID 0000.0001)                 9.395999999999999E+01,      /* K = 27 */
(PID.TID 0000.0001)                 9.658000000000000E+01,      /* K = 28 */
(PID.TID 0000.0001)                 9.825000000000000E+01,      /* K = 29 */
(PID.TID 0000.0001)                 9.925000000000000E+01,      /* K = 30 */
(PID.TID 0000.0001)                 1.000100000000000E+02,      /* K = 31 */
(PID.TID 0000.0001)                 1.013300000000000E+02,      /* K = 32 */
(PID.TID 0000.0001)                 1.045600000000000E+02,      /* K = 33 */
(PID.TID 0000.0001)                 1.113300000000000E+02,      /* K = 34 */
(PID.TID 0000.0001)                 1.228300000000000E+02,      /* K = 35 */
(PID.TID 0000.0001)                 1.390900000000000E+02,      /* K = 36 */
(PID.TID 0000.0001)                 1.589400000000000E+02,      /* K = 37 */
(PID.TID 0000.0001)                 1.808300000000000E+02,      /* K = 38 */
(PID.TID 0000.0001)                 2.035500000000000E+02,      /* K = 39 */
(PID.TID 0000.0001)                 2.265000000000000E+02,      /* K = 40 */
(PID.TID 0000.0001)                 2.495000000000000E+02,      /* K = 41 */
(PID.TID 0000.0001)                 2.725000000000000E+02,      /* K = 42 */
(PID.TID 0000.0001)                 2.955000000000000E+02,      /* K = 43 */
(PID.TID 0000.0001)                 3.185000000000000E+02,      /* K = 44 */
(PID.TID 0000.0001)                 3.415000000000000E+02,      /* K = 45 */
(PID.TID 0000.0001)                 3.645000000000000E+02,      /* K = 46 */
(PID.TID 0000.0001)                 3.875000000000000E+02,      /* K = 47 */
(PID.TID 0000.0001)                 4.105000000000000E+02,      /* K = 48 */
(PID.TID 0000.0001)                 4.335000000000000E+02,      /* K = 49 */
(PID.TID 0000.0001)                 4.565000000000000E+02       /* K = 50 */
(PID.TID 0000.0001)     ;
(PID.TID 0000.0001) radius_fromHorizGrid = /* sphere Radius of input horiz. grid */
(PID.TID 0000.0001)                 6.370000000000000E+06
(PID.TID 0000.0001)     ;
(PID.TID 0000.0001) rSphere =  /* Radius ( ignored - cartesian, m - spherical ) */
(PID.TID 0000.0001)                 6.370000000000000E+06
(PID.TID 0000.0001)     ;
(PID.TID 0000.0001) deepAtmosphere = /* Deep/Shallow Atmosphere flag (True/False) */
(PID.TID 0000.0001)                   F
(PID.TID 0000.0001)     ;
(PID.TID 0000.0001) xC =  /* xC(:,1,:,1) : P-point X coord ( deg. or m if cartesian) */
(PID.TID 0000.0001)                -4.081468768806280E+01,      /* I =  1 */
(PID.TID 0000.0001)                -3.957104986057077E+01,      /* I =  2 */
(PID.TID 0000.0001)                -3.832217028656162E+01,      /* I =  3 */
(PID.TID 0000.0001)                -3.706844413107324E+01,      /* I =  4 */
(PID.TID 0000.0001)                -3.581028225779612E+01,      /* I =  5 */
(PID.TID 0000.0001)                -3.454811012006861E+01,      /* I =  6 */
(PID.TID 0000.0001)                -3.328236654497336E+01,      /* I =  7 */
(PID.TID 0000.0001)                -3.201350241727823E+01,      /* I =  8 */
(PID.TID 0000.0001)                -3.074197927113779E+01,      /* I =  9 */
(PID.TID 0000.0001)                -2.946826779826338E+01,      /* I = 10 */
(PID.TID 0000.0001)                -2.819284628214859E+01,      /* I = 11 */
(PID.TID 0000.0001)                -2.691619896217756E+01,      /* I = 12 */
(PID.TID 0000.0001)                -2.563881425705264E+01,      /* I = 13 */
(PID.TID 0000.0001)                -2.436118574294736E+01,      /* I = 14 */
(PID.TID 0000.0001)                -2.308380103782244E+01,      /* I = 15 */
(PID.TID 0000.0001)                -2.180715371785141E+01,      /* I = 16 */
(PID.TID 0000.0001)                -2.053173220173662E+01,      /* I = 17 */
(PID.TID 0000.0001)                -1.925802072886221E+01,      /* I = 18 */
(PID.TID 0000.0001)                -1.798649758272177E+01,      /* I = 19 */
(PID.TID 0000.0001)                -1.671763345502664E+01,      /* I = 20 */
(PID.TID 0000.0001)                -1.545188987993139E+01,      /* I = 21 */
(PID.TID 0000.0001)                -1.418971774220388E+01,      /* I = 22 */
(PID.TID 0000.0001)                -1.293155586892676E+01,      /* I = 23 */
(PID.TID 0000.0001)                -1.167782971343838E+01,      /* I = 24 */
(PID.TID 0000.0001)                -1.042895013942923E+01,      /* I = 25 */
(PID.TID 0000.0001)                -9.185312311937196E+00,      /* I = 26 */
(PID.TID 0000.0001)                -7.947294700425999E+00,      /* I = 27 */
(PID.TID 0000.0001)                -6.715258197621779E+00,      /* I = 28 */
(PID.TID 0000.0001)                -5.489545357070952E+00,      /* I = 29 */
(PID.TID 0000.0001)                -4.270479749729759E+00       /* I = 30 */
(PID.TID 0000.0001)     ;
(PID.TID 0000.0001) yC =  /* yC(1,:,1,:) : P-point Y coord ( deg. or m if cartesian) */
(PID.TID 0000.0001)                -8.146222940368236E+01,      /* J =  1 */
(PID.TID 0000.0001)                -8.113083815286421E+01,      /* J =  2 */
(PID.TID 0000.0001)                -8.079504828233755E+01,      /* J =  3 */
(PID.TID 0000.0001)                -8.045491317322768E+01,      /* J =  4 */
(PID.TID 0000.0001)                -8.011048280590389E+01,      /* J =  5 */
(PID.TID 0000.0001)                -7.976180430515704E+01,      /* J =  6 */
(PID.TID 0000.0001)                -7.940892240526760E+01,      /* J =  7 */
(PID.TID 0000.0001)                -7.905187984845006E+01,      /* J =  8 */
(PID.TID 0000.0001)                -7.869071772754813E+01,      /* J =  9 */
(PID.TID 0000.0001)                -7.832547578199167E+01,      /* J = 10 */
(PID.TID 0000.0001)                -7.795619265432416E+01,      /* J = 11 */
(PID.TID 0000.0001)                -7.758290611340497E+01,      /* J = 12 */
(PID.TID 0000.0001)                -7.720565324926896E+01,      /* J = 13 */
(PID.TID 0000.0001)                -7.682447064385434E+01,      /* J = 14 */
(PID.TID 0000.0001)                -7.643939452107085E+01,      /* J = 15 */
(PID.TID 0000.0001)                -7.605046087901695E+01,      /* J = 16 */
(PID.TID 0000.0001)                -7.565770560699295E+01,      /* J = 17 */
(PID.TID 0000.0001)                -7.526116458910658E+01,      /* J = 18 */
(PID.TID 0000.0001)                -7.486087379640449E+01,      /* J = 19 */
(PID.TID 0000.0001)                -7.445686936886233E+01,      /* J = 20 */
(PID.TID 0000.0001)                -7.404918768854837E+01,      /* J = 21 */
(PID.TID 0000.0001)                -7.363786544493549E+01,      /* J = 22 */
(PID.TID 0000.0001)                -7.322293969328220E+01,      /* J = 23 */
(PID.TID 0000.0001)                -7.280444790682334E+01,      /* J = 24 */
(PID.TID 0000.0001)                -7.238242802328044E+01,      /* J = 25 */
(PID.TID 0000.0001)                -7.195691848614972E+01,      /* J = 26 */
(PID.TID 0000.0001)                -7.152795828082729E+01,      /* J = 27 */
(PID.TID 0000.0001)                -7.109558696482472E+01,      /* J = 28 */
(PID.TID 0000.0001)                -7.065984468855757E+01,      /* J = 29 */
(PID.TID 0000.0001)                -7.022077218177122E+01       /* J = 30 */
(PID.TID 0000.0001)     ;
(PID.TID 0000.0001) rcoord = /* P-point R coordinate (  units of r ) */
(PID.TID 0000.0001)                -5.000000000000000E+00,      /* K =  1 */
(PID.TID 0000.0001)                -1.500000000000000E+01,      /* K =  2 */
(PID.TID 0000.0001)                -2.500000000000000E+01,      /* K =  3 */
(PID.TID 0000.0001)                -3.500000000000000E+01,      /* K =  4 */
(PID.TID 0000.0001)                -4.500000000000000E+01,      /* K =  5 */
(PID.TID 0000.0001)                -5.500000000000000E+01,      /* K =  6 */
(PID.TID 0000.0001)                -6.500000000000000E+01,      /* K =  7 */
(PID.TID 0000.0001)                -7.500500000000000E+01,      /* K =  8 */
(PID.TID 0000.0001)                -8.502499999999999E+01,      /* K =  9 */
(PID.TID 0000.0001)                -9.509500000000000E+01,      /* K = 10 */
(PID.TID 0000.0001)                -1.053100000000000E+02,      /* K = 11 */
(PID.TID 0000.0001)                -1.158700000000000E+02,      /* K = 12 */
(PID.TID 0000.0001)                -1.271500000000000E+02,      /* K = 13 */
(PID.TID 0000.0001)                -1.397400000000000E+02,      /* K = 14 */
(PID.TID 0000.0001)                -1.544700000000000E+02,      /* K = 15 */
(PID.TID 0000.0001)                -1.724000000000000E+02,      /* K = 16 */
(PID.TID 0000.0001)                -1.947350000000000E+02,      /* K = 17 */
(PID.TID 0000.0001)                -2.227100000000000E+02,      /* K = 18 */
(PID.TID 0000.0001)                -2.574700000000000E+02,      /* K = 19 */
(PID.TID 0000.0001)                -2.999300000000000E+02,      /* K = 20 */
(PID.TID 0000.0001)                -3.506800000000000E+02,      /* K = 21 */
(PID.TID 0000.0001)                -4.099300000000000E+02,      /* K = 22 */
(PID.TID 0000.0001)                -4.774700000000000E+02,      /* K = 23 */
(PID.TID 0000.0001)                -5.527100000000000E+02,      /* K = 24 */
(PID.TID 0000.0001)                -6.347350000000000E+02,      /* K = 25 */
(PID.TID 0000.0001)                -7.224000000000000E+02,      /* K = 26 */
(PID.TID 0000.0001)                -8.144700000000000E+02,      /* K = 27 */
(PID.TID 0000.0001)                -9.097400000000000E+02,      /* K = 28 */
(PID.TID 0000.0001)                -1.007155000000000E+03,      /* K = 29 */
(PID.TID 0000.0001)                -1.105905000000000E+03,      /* K = 30 */
(PID.TID 0000.0001)                -1.205535000000000E+03,      /* K = 31 */
(PID.TID 0000.0001)                -1.306205000000000E+03,      /* K = 32 */
(PID.TID 0000.0001)                -1.409150000000000E+03,      /* K = 33 */
(PID.TID 0000.0001)                -1.517095000000000E+03,      /* K = 34 */
(PID.TID 0000.0001)                -1.634175000000000E+03,      /* K = 35 */
(PID.TID 0000.0001)                -1.765135000000000E+03,      /* K = 36 */
(PID.TID 0000.0001)                -1.914150000000000E+03,      /* K = 37 */
(PID.TID 0000.0001)                -2.084035000000000E+03,      /* K = 38 */
(PID.TID 0000.0001)                -2.276225000000000E+03,      /* K = 39 */
(PID.TID 0000.0001)                -2.491250000000000E+03,      /* K = 40 */
(PID.TID 0000.0001)                -2.729250000000000E+03,      /* K = 41 */
(PID.TID 0000.0001)                -2.990250000000000E+03,      /* K = 42 */
(PID.TID 0000.0001)                -3.274250000000000E+03,      /* K = 43 */
(PID.TID 0000.0001)                -3.581250000000000E+03,      /* K = 44 */
(PID.TID 0000.0001)                -3.911250000000000E+03,      /* K = 45 */
(PID.TID 0000.0001)                -4.264250000000000E+03,      /* K = 46 */
(PID.TID 0000.0001)                -4.640250000000000E+03,      /* K = 47 */
(PID.TID 0000.0001)                -5.039250000000000E+03,      /* K = 48 */
(PID.TID 0000.0001)                -5.461250000000000E+03,      /* K = 49 */
(PID.TID 0000.0001)                -5.906250000000000E+03       /* K = 50 */
(PID.TID 0000.0001)     ;
(PID.TID 0000.0001) rF =   /* W-Interf. R coordinate (  units of r ) */
(PID.TID 0000.0001)                 0.000000000000000E+00,      /* K =  1 */
(PID.TID 0000.0001)                -1.000000000000000E+01,      /* K =  2 */
(PID.TID 0000.0001)                -2.000000000000000E+01,      /* K =  3 */
(PID.TID 0000.0001)                -3.000000000000000E+01,      /* K =  4 */
(PID.TID 0000.0001)                -4.000000000000000E+01,      /* K =  5 */
(PID.TID 0000.0001)                -5.000000000000000E+01,      /* K =  6 */
(PID.TID 0000.0001)                -6.000000000000000E+01,      /* K =  7 */
(PID.TID 0000.0001)                -7.000000000000000E+01,      /* K =  8 */
(PID.TID 0000.0001)                -8.001000000000001E+01,      /* K =  9 */
(PID.TID 0000.0001)                -9.004000000000001E+01,      /* K = 10 */
(PID.TID 0000.0001)                -1.001500000000000E+02,      /* K = 11 */
(PID.TID 0000.0001)                -1.104700000000000E+02,      /* K = 12 */
(PID.TID 0000.0001)                -1.212700000000000E+02,      /* K = 13 */
(PID.TID 0000.0001)                -1.330300000000000E+02,      /* K = 14 */
(PID.TID 0000.0001)                -1.464500000000000E+02,      /* K = 15 */
(PID.TID 0000.0001)                -1.624900000000000E+02,      /* K = 16 */
(PID.TID 0000.0001)                -1.823100000000000E+02,      /* K = 17 */
(PID.TID 0000.0001)                -2.071600000000000E+02,      /* K = 18 */
(PID.TID 0000.0001)                -2.382600000000000E+02,      /* K = 19 */
(PID.TID 0000.0001)                -2.766799999999999E+02,      /* K = 20 */
(PID.TID 0000.0001)                -3.231799999999999E+02,      /* K = 21 */
(PID.TID 0000.0001)                -3.781799999999999E+02,      /* K = 22 */
(PID.TID 0000.0001)                -4.416799999999999E+02,      /* K = 23 */
(PID.TID 0000.0001)                -5.132600000000000E+02,      /* K = 24 */
(PID.TID 0000.0001)                -5.921600000000000E+02,      /* K = 25 */
(PID.TID 0000.0001)                -6.773099999999999E+02,      /* K = 26 */
(PID.TID 0000.0001)                -7.674900000000000E+02,      /* K = 27 */
(PID.TID 0000.0001)                -8.614500000000000E+02,      /* K = 28 */
(PID.TID 0000.0001)                -9.580300000000001E+02,      /* K = 29 */
(PID.TID 0000.0001)                -1.056280000000000E+03,      /* K = 30 */
(PID.TID 0000.0001)                -1.155530000000000E+03,      /* K = 31 */
(PID.TID 0000.0001)                -1.255540000000000E+03,      /* K = 32 */
(PID.TID 0000.0001)                -1.356870000000000E+03,      /* K = 33 */
(PID.TID 0000.0001)                -1.461430000000000E+03,      /* K = 34 */
(PID.TID 0000.0001)                -1.572760000000000E+03,      /* K = 35 */
(PID.TID 0000.0001)                -1.695590000000000E+03,      /* K = 36 */
(PID.TID 0000.0001)                -1.834680000000000E+03,      /* K = 37 */
(PID.TID 0000.0001)                -1.993620000000000E+03,      /* K = 38 */
(PID.TID 0000.0001)                -2.174450000000000E+03,      /* K = 39 */
(PID.TID 0000.0001)                -2.378000000000000E+03,      /* K = 40 */
(PID.TID 0000.0001)                -2.604500000000000E+03,      /* K = 41 */
(PID.TID 0000.0001)                -2.854000000000000E+03,      /* K = 42 */
(PID.TID 0000.0001)                -3.126500000000000E+03,      /* K = 43 */
(PID.TID 0000.0001)                -3.422000000000000E+03,      /* K = 44 */
(PID.TID 0000.0001)                -3.740500000000000E+03,      /* K = 45 */
(PID.TID 0000.0001)                -4.082000000000000E+03,      /* K = 46 */
(PID.TID 0000.0001)                -4.446500000000000E+03,      /* K = 47 */
(PID.TID 0000.0001)                -4.834000000000000E+03,      /* K = 48 */
(PID.TID 0000.0001)                -5.244500000000000E+03,      /* K = 49 */
(PID.TID 0000.0001)                -5.678000000000000E+03,      /* K = 50 */
(PID.TID 0000.0001)                -6.134500000000000E+03       /* K = 51 */
(PID.TID 0000.0001)     ;
(PID.TID 0000.0001) deepFacC = /* deep-model grid factor @ cell-Center (-) */
(PID.TID 0000.0001)    50 @  1.000000000000000E+00              /* K =  1: 50 */
(PID.TID 0000.0001)     ;
(PID.TID 0000.0001) deepFacF = /* deep-model grid factor @ W-Interface (-) */
(PID.TID 0000.0001)    51 @  1.000000000000000E+00              /* K =  1: 51 */
(PID.TID 0000.0001)     ;
(PID.TID 0000.0001) rVel2wUnit = /* convert units: rVel -> wSpeed (=1 if z-coord)*/
(PID.TID 0000.0001)    51 @  1.000000000000000E+00              /* K =  1: 51 */
(PID.TID 0000.0001)     ;
(PID.TID 0000.0001) wUnit2rVel = /* convert units: wSpeed -> rVel (=1 if z-coord)*/
(PID.TID 0000.0001)    51 @  1.000000000000000E+00              /* K =  1: 51 */
(PID.TID 0000.0001)     ;
(PID.TID 0000.0001) dBdrRef = /* Vertical grad. of reference buoyancy [(m/s/r)^2] */
(PID.TID 0000.0001)     3 @  0.000000000000000E+00,             /* K =  1:  3 */
(PID.TID 0000.0001)                 2.706065538651213E-04,      /* K =  4 */
(PID.TID 0000.0001)     2 @  0.000000000000000E+00,             /* K =  5:  6 */
(PID.TID 0000.0001)                 2.632794562663490E-04,      /* K =  7 */
(PID.TID 0000.0001)                 2.554318021231947E-04,      /* K =  8 */
(PID.TID 0000.0001)                 0.000000000000000E+00,      /* K =  9 */
(PID.TID 0000.0001)                 2.461524232360561E-04,      /* K = 10 */
(PID.TID 0000.0001)                 2.348694431245364E-04,      /* K = 11 */
(PID.TID 0000.0001)                 0.000000000000000E+00,      /* K = 12 */
(PID.TID 0000.0001)                 2.056847859884566E-04,      /* K = 13 */
(PID.TID 0000.0001)                 1.777764506003336E-04,      /* K = 14 */
(PID.TID 0000.0001)                 0.000000000000000E+00,      /* K = 15 */
(PID.TID 0000.0001)                 1.203533867077665E-04,      /* K = 16 */
(PID.TID 0000.0001)                 9.288540355629585E-05,      /* K = 17 */
(PID.TID 0000.0001)                 7.115862770365155E-05,      /* K = 18 */
(PID.TID 0000.0001)                 5.484365820533800E-05,      /* K = 19 */
(PID.TID 0000.0001)                 4.290935507113214E-05,      /* K = 20 */
(PID.TID 0000.0001)                 6.658747741703880E-05,      /* K = 21 */
(PID.TID 0000.0001)                 0.000000000000000E+00,      /* K = 22 */
(PID.TID 0000.0001)                 2.323718420342036E-05,      /* K = 23 */
(PID.TID 0000.0001)                 1.974682037962757E-05,      /* K = 24 */
(PID.TID 0000.0001)                 1.709468932536602E-05,      /* K = 25 */
(PID.TID 0000.0001)                 0.000000000000000E+00,      /* K = 26 */
(PID.TID 0000.0001)                 1.455436545977052E-05,      /* K = 27 */
(PID.TID 0000.0001)                 0.000000000000000E+00,      /* K = 28 */
(PID.TID 0000.0001)                 1.315287111980149E-05,      /* K = 29 */
(PID.TID 0000.0001)     2 @  0.000000000000000E+00,             /* K = 30: 31 */
(PID.TID 0000.0001)                 1.240968507885233E-05,      /* K = 32 */
(PID.TID 0000.0001)     2 @  0.000000000000000E+00,             /* K = 33: 34 */
(PID.TID 0000.0001)                 1.045141607964570E-05,      /* K = 35 */
(PID.TID 0000.0001)     3 @  0.000000000000000E+00,             /* K = 36: 38 */
(PID.TID 0000.0001)                 6.628797113709505E-06,      /* K = 39 */
(PID.TID 0000.0001)    11 @  0.000000000000000E+00              /* K = 40: 50 */
(PID.TID 0000.0001)     ;
(PID.TID 0000.0001) rotateGrid = /* use rotated grid ( True/False ) */
(PID.TID 0000.0001)                   F
(PID.TID 0000.0001)     ;
(PID.TID 0000.0001) phiEuler = /* Euler angle, rotation about original z-coordinate [rad] */
(PID.TID 0000.0001)                 0.000000000000000E+00
(PID.TID 0000.0001)     ;
(PID.TID 0000.0001) thetaEuler = /* Euler angle, rotation about new x-coordinate [rad] */
(PID.TID 0000.0001)                 0.000000000000000E+00
(PID.TID 0000.0001)     ;
(PID.TID 0000.0001) psiEuler = /* Euler angle, rotation about new z-coordinate [rad] */
(PID.TID 0000.0001)                 0.000000000000000E+00
(PID.TID 0000.0001)     ;
(PID.TID 0000.0001) dxF =  /* dxF(:,1,:,1) ( units: m ) */
(PID.TID 0000.0001)                 2.071152825743187E+04,      /* I =  1 */
(PID.TID 0000.0001)                 2.070365142756831E+04,      /* I =  2 */
(PID.TID 0000.0001)                 2.069635296570141E+04,      /* I =  3 */
(PID.TID 0000.0001)                 2.068965358413176E+04,      /* I =  4 */
(PID.TID 0000.0001)                 2.068357195583360E+04,      /* I =  5 */
(PID.TID 0000.0001)                 2.067812475356784E+04,      /* I =  6 */
(PID.TID 0000.0001)                 2.067332670125947E+04,      /* I =  7 */
(PID.TID 0000.0001)                 2.066919060389092E+04,      /* I =  8 */
(PID.TID 0000.0001)                 2.066572738985245E+04,      /* I =  9 */
(PID.TID 0000.0001)                 2.066294615597989E+04,      /* I = 10 */
(PID.TID 0000.0001)                 2.066085425372315E+04,      /* I = 11 */
(PID.TID 0000.0001)                 2.065945771525925E+04,      /* I = 12 */
(PID.TID 0000.0001)                 2.065874381268158E+04,      /* I = 13 */
(PID.TID 0000.0001)                 2.065874381268158E+04,      /* I = 14 */
(PID.TID 0000.0001)                 2.065945771525925E+04,      /* I = 15 */
(PID.TID 0000.0001)                 2.066085425372316E+04,      /* I = 16 */
(PID.TID 0000.0001)                 2.066294615597989E+04,      /* I = 17 */
(PID.TID 0000.0001)                 2.066572738985245E+04,      /* I = 18 */
(PID.TID 0000.0001)                 2.066919060389088E+04,      /* I = 19 */
(PID.TID 0000.0001)                 2.067332670125956E+04,      /* I = 20 */
(PID.TID 0000.0001)                 2.067812475356780E+04,      /* I = 21 */
(PID.TID 0000.0001)                 2.068357195583360E+04,      /* I = 22 */
(PID.TID 0000.0001)                 2.068965358413182E+04,      /* I = 23 */
(PID.TID 0000.0001)                 2.069635296570133E+04,      /* I = 24 */
(PID.TID 0000.0001)                 2.070365142756836E+04,      /* I = 25 */
(PID.TID 0000.0001)                 2.071152825743182E+04,      /* I = 26 */
(PID.TID 0000.0001)                 2.071996065138743E+04,      /* I = 27 */
(PID.TID 0000.0001)                 2.072892365863983E+04,      /* I = 28 */
(PID.TID 0000.0001)                 2.073839012765668E+04,      /* I = 29 */
(PID.TID 0000.0001)                 2.074833063718403E+04       /* I = 30 */
(PID.TID 0000.0001)     ;
(PID.TID 0000.0001) dxF =  /* dxF(1,:,1,:) ( units: m ) */
(PID.TID 0000.0001)                 2.071152825743187E+04,      /* J =  1 */
(PID.TID 0000.0001)                 2.109117491456033E+04,      /* J =  2 */
(PID.TID 0000.0001)                 2.148525648961724E+04,      /* J =  3 */
(PID.TID 0000.0001)                 2.189377348588603E+04,      /* J =  4 */
(PID.TID 0000.0001)                 2.231672440915243E+04,      /* J =  5 */
(PID.TID 0000.0001)                 2.275410689480659E+04,      /* J =  6 */
(PID.TID 0000.0001)                 2.320591873318126E+04,      /* J =  7 */
(PID.TID 0000.0001)                 2.367215879054831E+04,      /* J =  8 */
(PID.TID 0000.0001)                 2.415282782538908E+04,      /* J =  9 */
(PID.TID 0000.0001)                 2.464792920101809E+04,      /* J = 10 */
(PID.TID 0000.0001)                 2.515746949702995E+04,      /* J = 11 */
(PID.TID 0000.0001)                 2.568145902315334E+04,      /* J = 12 */
(PID.TID 0000.0001)                 2.621991223981432E+04,      /* J = 13 */
(PID.TID 0000.0001)                 2.677284809033052E+04,      /* J = 14 */
(PID.TID 0000.0001)                 2.734029025013979E+04,      /* J = 15 */
(PID.TID 0000.0001)                 2.792226729855568E+04,      /* J = 16 */
(PID.TID 0000.0001)                 2.851881281852892E+04,      /* J = 17 */
(PID.TID 0000.0001)                 2.912996543046302E+04,      /* J = 18 */
(PID.TID 0000.0001)                 2.975576876502299E+04,      /* J = 19 */
(PID.TID 0000.0001)                 3.039627138062681E+04,      /* J = 20 */
(PID.TID 0000.0001)                 3.105152663065675E+04,      /* J = 21 */
(PID.TID 0000.0001)                 3.172159248542454E+04,      /* J = 22 */
(PID.TID 0000.0001)                 3.240653131349731E+04,      /* J = 23 */
(PID.TID 0000.0001)                 3.310640962675057E+04,      /* J = 24 */
(PID.TID 0000.0001)                 3.382129779388320E+04,      /* J = 25 */
(PID.TID 0000.0001)                 3.455126972555294E+04,      /* J = 26 */
(PID.TID 0000.0001)                 3.529640253603521E+04,      /* J = 27 */
(PID.TID 0000.0001)                 3.605677618612848E+04,      /* J = 28 */
(PID.TID 0000.0001)                 3.683247311866502E+04,      /* J = 29 */
(PID.TID 0000.0001)                 3.762357793548112E+04       /* J = 30 */
(PID.TID 0000.0001)     ;
(PID.TID 0000.0001) dyF =  /* dyF(:,1,:,1) ( units: m ) */
(PID.TID 0000.0001)                 3.700742300337598E+04,      /* I =  1 */
(PID.TID 0000.0001)                 3.707905556394973E+04,      /* I =  2 */
(PID.TID 0000.0001)                 3.714471828319018E+04,      /* I =  3 */
(PID.TID 0000.0001)                 3.720441078960103E+04,      /* I =  4 */
(PID.TID 0000.0001)                 3.725813297080282E+04,      /* I =  5 */
(PID.TID 0000.0001)                 3.730588490725751E+04,      /* I =  6 */
(PID.TID 0000.0001)                 3.734766681359038E+04,      /* I =  7 */
(PID.TID 0000.0001)                 3.738347898712025E+04,      /* I =  8 */
(PID.TID 0000.0001)                 3.741332176340629E+04,      /* I =  9 */
(PID.TID 0000.0001)                 3.743719547859261E+04,      /* I = 10 */
(PID.TID 0000.0001)                 3.745510043824806E+04,      /* I = 11 */
(PID.TID 0000.0001)                 3.746703689267323E+04,      /* I = 12 */
(PID.TID 0000.0001)     2 @  3.747300501832417E+04,             /* I = 13: 14 */
(PID.TID 0000.0001)                 3.746703689267323E+04,      /* I = 15 */
(PID.TID 0000.0001)                 3.745510043824806E+04,      /* I = 16 */
(PID.TID 0000.0001)                 3.743719547859261E+04,      /* I = 17 */
(PID.TID 0000.0001)                 3.741332176340628E+04,      /* I = 18 */
(PID.TID 0000.0001)                 3.738347898712024E+04,      /* I = 19 */
(PID.TID 0000.0001)                 3.734766681359040E+04,      /* I = 20 */
(PID.TID 0000.0001)                 3.730588490725750E+04,      /* I = 21 */
(PID.TID 0000.0001)                 3.725813297080281E+04,      /* I = 22 */
(PID.TID 0000.0001)                 3.720441078960103E+04,      /* I = 23 */
(PID.TID 0000.0001)                 3.714471828319017E+04,      /* I = 24 */
(PID.TID 0000.0001)                 3.707905556394973E+04,      /* I = 25 */
(PID.TID 0000.0001)                 3.700742300337599E+04,      /* I = 26 */
(PID.TID 0000.0001)                 3.692982130617692E+04,      /* I = 27 */
(PID.TID 0000.0001)                 3.684625159269555E+04,      /* I = 28 */
(PID.TID 0000.0001)                 3.675671548992459E+04,      /* I = 29 */
(PID.TID 0000.0001)                 3.666121523181524E+04       /* I = 30 */
(PID.TID 0000.0001)     ;
(PID.TID 0000.0001) dyF =  /* dyF(1,:,1,:) ( units: m ) */
(PID.TID 0000.0001)                 3.700742300337598E+04,      /* J =  1 */
(PID.TID 0000.0001)                 3.745555642044499E+04,      /* J =  2 */
(PID.TID 0000.0001)                 3.790206217653974E+04,      /* J =  3 */
(PID.TID 0000.0001)                 3.834684105117956E+04,      /* J =  4 */
(PID.TID 0000.0001)                 3.878979459357282E+04,      /* J =  5 */
(PID.TID 0000.0001)                 3.923082521328924E+04,      /* J =  6 */
(PID.TID 0000.0001)                 3.966983623246408E+04,      /* J =  7 */
(PID.TID 0000.0001)                 4.010673190475840E+04,      /* J =  8 */
(PID.TID 0000.0001)                 4.054141740950450E+04,      /* J =  9 */
(PID.TID 0000.0001)                 4.097379882434454E+04,      /* J = 10 */
(PID.TID 0000.0001)                 4.140378308084428E+04,      /* J = 11 */
(PID.TID 0000.0001)                 4.183127790875583E+04,      /* J = 12 */
(PID.TID 0000.0001)                 4.225619177206317E+04,      /* J = 13 */
(PID.TID 0000.0001)                 4.267843379867976E+04,      /* J = 14 */
(PID.TID 0000.0001)                 4.309791371221616E+04,      /* J = 15 */
(PID.TID 0000.0001)                 4.351454176087940E+04,      /* J = 16 */
(PID.TID 0000.0001)                 4.392822864881465E+04,      /* J = 17 */
(PID.TID 0000.0001)                 4.433888547805120E+04,      /* J = 18 */
(PID.TID 0000.0001)                 4.474642369096899E+04,      /* J = 19 */
(PID.TID 0000.0001)                 4.515075502217317E+04,      /* J = 20 */
(PID.TID 0000.0001)                 4.555179145554101E+04,      /* J = 21 */
(PID.TID 0000.0001)                 4.594944520275577E+04,      /* J = 22 */
(PID.TID 0000.0001)                 4.634362867401398E+04,      /* J = 23 */
(PID.TID 0000.0001)                 4.673425447947427E+04,      /* J = 24 */
(PID.TID 0000.0001)                 4.712123544873745E+04,      /* J = 25 */
(PID.TID 0000.0001)                 4.750448467975499E+04,      /* J = 26 */
(PID.TID 0000.0001)                 4.788391567392174E+04,      /* J = 27 */
(PID.TID 0000.0001)                 4.825944271092693E+04,      /* J = 28 */
(PID.TID 0000.0001)                 4.863098220111143E+04,      /* J = 29 */
(PID.TID 0000.0001)                 4.899845499569884E+04       /* J = 30 */
(PID.TID 0000.0001)     ;
(PID.TID 0000.0001) dxG =  /* dxG(:,1,:,1) ( units: m ) */
(PID.TID 0000.0001)                 2.052711702021451E+04,      /* I =  1 */
(PID.TID 0000.0001)                 2.051953983526162E+04,      /* I =  2 */
(PID.TID 0000.0001)                 2.051251425926268E+04,      /* I =  3 */
(PID.TID 0000.0001)                 2.050606148013825E+04,      /* I =  4 */
(PID.TID 0000.0001)                 2.050020059906299E+04,      /* I =  5 */
(PID.TID 0000.0001)                 2.049494867086169E+04,      /* I =  6 */
(PID.TID 0000.0001)                 2.049032075633103E+04,      /* I =  7 */
(PID.TID 0000.0001)                 2.048632995314923E+04,      /* I =  8 */
(PID.TID 0000.0001)                 2.048298743895549E+04,      /* I =  9 */
(PID.TID 0000.0001)                 2.048030251694177E+04,      /* I = 10 */
(PID.TID 0000.0001)                 2.047828270203973E+04,      /* I = 11 */
(PID.TID 0000.0001)                 2.047693414389448E+04,      /* I = 12 */
(PID.TID 0000.0001)     2 @  2.047624433858785E+04,             /* I = 13: 14 */
(PID.TID 0000.0001)                 2.047693414389443E+04,      /* I = 15 */
(PID.TID 0000.0001)                 2.047828270203978E+04,      /* I = 16 */
(PID.TID 0000.0001)                 2.048030251694177E+04,      /* I = 17 */
(PID.TID 0000.0001)                 2.048298743895548E+04,      /* I = 18 */
(PID.TID 0000.0001)                 2.048632995314927E+04,      /* I = 19 */
(PID.TID 0000.0001)                 2.049032075633093E+04,      /* I = 20 */
(PID.TID 0000.0001)                 2.049494867086174E+04,      /* I = 21 */
(PID.TID 0000.0001)                 2.050020059906297E+04,      /* I = 22 */
(PID.TID 0000.0001)                 2.050606148013830E+04,      /* I = 23 */
(PID.TID 0000.0001)                 2.051251425926268E+04,      /* I = 24 */
(PID.TID 0000.0001)                 2.051953983526163E+04,      /* I = 25 */
(PID.TID 0000.0001)                 2.052711702021443E+04,      /* I = 26 */
(PID.TID 0000.0001)                 2.053522248594683E+04,      /* I = 27 */
(PID.TID 0000.0001)                 2.054383070727552E+04,      /* I = 28 */
(PID.TID 0000.0001)                 2.055291390664790E+04,      /* I = 29 */
(PID.TID 0000.0001)                 2.056244198352907E+04       /* I = 30 */
(PID.TID 0000.0001)     ;
(PID.TID 0000.0001) dxG =  /* dxG(1,:,1,:) ( units: m ) */
(PID.TID 0000.0001)                 2.052711702021451E+04,      /* J =  1 */
(PID.TID 0000.0001)                 2.089954736357391E+04,      /* J =  2 */
(PID.TID 0000.0001)                 2.128641124518697E+04,      /* J =  3 */
(PID.TID 0000.0001)                 2.168771062037700E+04,      /* J =  4 */
(PID.TID 0000.0001)                 2.210344484655194E+04,      /* J =  5 */
(PID.TID 0000.0001)                 2.253361185972884E+04,      /* J =  6 */
(PID.TID 0000.0001)                 2.297820925105574E+04,      /* J =  7 */
(PID.TID 0000.0001)                 2.343723524028478E+04,      /* J =  8 */
(PID.TID 0000.0001)                 2.391068954427550E+04,      /* J =  9 */
(PID.TID 0000.0001)                 2.439857414125275E+04,      /* J = 10 */
(PID.TID 0000.0001)                 2.490089393241153E+04,      /* J = 11 */
(PID.TID 0000.0001)                 2.541765730414359E+04,      /* J = 12 */
(PID.TID 0000.0001)                 2.594887659459613E+04,      /* J = 13 */
(PID.TID 0000.0001)                 2.649456846940333E+04,      /* J = 14 */
(PID.TID 0000.0001)                 2.705475421181358E+04,      /* J = 15 */
(PID.TID 0000.0001)                 2.762945993231310E+04,      /* J = 16 */
(PID.TID 0000.0001)                 2.821871670385097E+04,      /* J = 17 */
(PID.TID 0000.0001)                 2.882256062780631E+04,      /* J = 18 */
(PID.TID 0000.0001)                 2.944103283669238E+04,      /* J = 19 */
(PID.TID 0000.0001)                 3.007417943861200E+04,      /* J = 20 */
(PID.TID 0000.0001)                 3.072205140902393E+04,      /* J = 21 */
(PID.TID 0000.0001)                 3.138470443467240E+04,      /* J = 22 */
(PID.TID 0000.0001)                 3.206219871470027E+04,      /* J = 23 */
(PID.TID 0000.0001)                 3.275459872326910E+04,      /* J = 24 */
(PID.TID 0000.0001)                 3.346197293831744E+04,      /* J = 25 */
(PID.TID 0000.0001)                 3.418439354048331E+04,      /* J = 26 */
(PID.TID 0000.0001)                 3.492193608585089E+04,      /* J = 27 */
(PID.TID 0000.0001)                 3.567467915738818E+04,      /* J = 28 */
(PID.TID 0000.0001)                 3.644270400216877E+04,      /* J = 29 */
(PID.TID 0000.0001)                 3.722609417427087E+04       /* J = 30 */
(PID.TID 0000.0001)     ;
(PID.TID 0000.0001) dyG =  /* dyG(:,1,:,1) ( units: m ) */
(PID.TID 0000.0001)                 3.696936823759973E+04,      /* I =  1 */
(PID.TID 0000.0001)                 3.704398547852144E+04,      /* I =  2 */
(PID.TID 0000.0001)                 3.711263318385338E+04,      /* I =  3 */
(PID.TID 0000.0001)                 3.717531082528212E+04,      /* I =  4 */
(PID.TID 0000.0001)                 3.723201816961422E+04,      /* I =  5 */
(PID.TID 0000.0001)                 3.728275520872145E+04,      /* I =  6 */
(PID.TID 0000.0001)                 3.732752209699158E+04,      /* I =  7 */
(PID.TID 0000.0001)                 3.736631909640826E+04,      /* I =  8 */
(PID.TID 0000.0001)                 3.739914652852553E+04,      /* I =  9 */
(PID.TID 0000.0001)                 3.742600473350589E+04,      /* I = 10 */
(PID.TID 0000.0001)                 3.744689403567852E+04,      /* I = 11 */
(PID.TID 0000.0001)                 3.746181471567877E+04,      /* I = 12 */
(PID.TID 0000.0001)                 3.747076698884368E+04,      /* I = 13 */
(PID.TID 0000.0001)                 3.747376174977726E+04,      /* I = 14 */
(PID.TID 0000.0001)                 3.747076698884368E+04,      /* I = 15 */
(PID.TID 0000.0001)                 3.746181471567877E+04,      /* I = 16 */
(PID.TID 0000.0001)                 3.744689403567852E+04,      /* I = 17 */
(PID.TID 0000.0001)                 3.742600473350589E+04,      /* I = 18 */
(PID.TID 0000.0001)                 3.739914652852552E+04,      /* I = 19 */
(PID.TID 0000.0001)                 3.736631909640826E+04,      /* I = 20 */
(PID.TID 0000.0001)                 3.732752209699157E+04,      /* I = 21 */
(PID.TID 0000.0001)                 3.728275520872146E+04,      /* I = 22 */
(PID.TID 0000.0001)                 3.723201816961422E+04,      /* I = 23 */
(PID.TID 0000.0001)                 3.717531082528211E+04,      /* I = 24 */
(PID.TID 0000.0001)                 3.711263318385338E+04,      /* I = 25 */
(PID.TID 0000.0001)                 3.704398547852145E+04,      /* I = 26 */
(PID.TID 0000.0001)                 3.696936823759972E+04,      /* I = 27 */
(PID.TID 0000.0001)                 3.688878236278851E+04,      /* I = 28 */
(PID.TID 0000.0001)                 3.680222921581766E+04,      /* I = 29 */
(PID.TID 0000.0001)                 3.670971071402137E+04       /* I = 30 */
(PID.TID 0000.0001)     ;
(PID.TID 0000.0001) dyG =  /* dyG(1,:,1,:) ( units: m ) */
(PID.TID 0000.0001)                 3.696936823759973E+04,      /* J =  1 */
(PID.TID 0000.0001)                 3.741746190559281E+04,      /* J =  2 */
(PID.TID 0000.0001)                 3.786390067184393E+04,      /* J =  3 */
(PID.TID 0000.0001)                 3.830858172733455E+04,      /* J =  4 */
(PID.TID 0000.0001)                 3.875140319955796E+04,      /* J =  5 */
(PID.TID 0000.0001)                 3.919226424948571E+04,      /* J =  6 */
(PID.TID 0000.0001)                 3.963106512715793E+04,      /* J =  7 */
(PID.TID 0000.0001)                 4.006770719102380E+04,      /* J =  8 */
(PID.TID 0000.0001)                 4.050209290047463E+04,      /* J =  9 */
(PID.TID 0000.0001)                 4.093412578484027E+04,      /* J = 10 */
(PID.TID 0000.0001)                 4.136371039407872E+04,      /* J = 11 */
(PID.TID 0000.0001)                 4.179075223673176E+04,      /* J = 12 */
(PID.TID 0000.0001)                 4.221515770920290E+04,      /* J = 13 */
(PID.TID 0000.0001)                 4.263683401805614E+04,      /* J = 14 */
(PID.TID 0000.0001)                 4.305568910412182E+04,      /* J = 15 */
(PID.TID 0000.0001)                 4.347163156363047E+04,      /* J = 16 */
(PID.TID 0000.0001)                 4.388457057225752E+04,      /* J = 17 */
(PID.TID 0000.0001)                 4.429441581934092E+04,      /* J = 18 */
(PID.TID 0000.0001)                 4.470107744374240E+04,      /* J = 19 */
(PID.TID 0000.0001)                 4.510446597891348E+04,      /* J = 20 */
(PID.TID 0000.0001)                 4.550449230395439E+04,      /* J = 21 */
(PID.TID 0000.0001)                 4.590106761654920E+04,      /* J = 22 */
(PID.TID 0000.0001)                 4.629410339849156E+04,      /* J = 23 */
(PID.TID 0000.0001)                 4.668351141269982E+04,      /* J = 24 */
(PID.TID 0000.0001)                 4.706920371856177E+04,      /* J = 25 */
(PID.TID 0000.0001)                 4.745109271730031E+04,      /* J = 26 */
(PID.TID 0000.0001)                 4.782909128417812E+04,      /* J = 27 */
(PID.TID 0000.0001)                 4.820311314005602E+04,      /* J = 28 */
(PID.TID 0000.0001)                 4.857307420014453E+04,      /* J = 29 */
(PID.TID 0000.0001)                 4.893889490827491E+04       /* J = 30 */
(PID.TID 0000.0001)     ;
(PID.TID 0000.0001) dxC =  /* dxC(:,1,:,1) ( units: m ) */
(PID.TID 0000.0001)                 2.071567651695695E+04,      /* I =  1 */
(PID.TID 0000.0001)                 2.070751892245589E+04,      /* I =  2 */
(PID.TID 0000.0001)                 2.069992855779408E+04,      /* I =  3 */
(PID.TID 0000.0001)                 2.069292717562287E+04,      /* I =  4 */
(PID.TID 0000.0001)                 2.068653446229046E+04,      /* I =  5 */
(PID.TID 0000.0001)                 2.068076808552306E+04,      /* I =  6 */
(PID.TID 0000.0001)                 2.067564373903614E+04,      /* I =  7 */
(PID.TID 0000.0001)                 2.067117518190149E+04,      /* I =  8 */
(PID.TID 0000.0001)                 2.066737427558298E+04,      /* I =  9 */
(PID.TID 0000.0001)                 2.066425102685107E+04,      /* I = 10 */
(PID.TID 0000.0001)                 2.066181364132844E+04,      /* I = 11 */
(PID.TID 0000.0001)                 2.066006869803818E+04,      /* I = 12 */
(PID.TID 0000.0001)                 2.065902266229015E+04,      /* I = 13 */
(PID.TID 0000.0001)                 2.065863826775786E+04,      /* I = 14 */
(PID.TID 0000.0001)                 2.065902266229016E+04,      /* I = 15 */
(PID.TID 0000.0001)                 2.066006869803813E+04,      /* I = 16 */
(PID.TID 0000.0001)                 2.066181364132850E+04,      /* I = 17 */
(PID.TID 0000.0001)                 2.066425102685108E+04,      /* I = 18 */
(PID.TID 0000.0001)                 2.066737427558298E+04,      /* I = 19 */
(PID.TID 0000.0001)                 2.067117518190149E+04,      /* I = 20 */
(PID.TID 0000.0001)                 2.067564373903615E+04,      /* I = 21 */
(PID.TID 0000.0001)                 2.068076808552304E+04,      /* I = 22 */
(PID.TID 0000.0001)                 2.068653446229045E+04,      /* I = 23 */
(PID.TID 0000.0001)                 2.069292717562287E+04,      /* I = 24 */
(PID.TID 0000.0001)                 2.069992855779413E+04,      /* I = 25 */
(PID.TID 0000.0001)                 2.070751892245584E+04,      /* I = 26 */
(PID.TID 0000.0001)                 2.071567651695691E+04,      /* I = 27 */
(PID.TID 0000.0001)                 2.072437747324421E+04,      /* I = 28 */
(PID.TID 0000.0001)                 2.073359574551806E+04,      /* I = 29 */
(PID.TID 0000.0001)                 2.074330305575613E+04       /* I = 30 */
(PID.TID 0000.0001)     ;
(PID.TID 0000.0001) dxC =  /* dxC(1,:,1,:) ( units: m ) */
(PID.TID 0000.0001)                 2.071567651695695E+04,      /* J =  1 */
(PID.TID 0000.0001)                 2.109563672137949E+04,      /* J =  2 */
(PID.TID 0000.0001)                 2.149002149497106E+04,      /* J =  3 */
(PID.TID 0000.0001)                 2.189882927482529E+04,      /* J =  4 */
(PID.TID 0000.0001)                 2.232205646389843E+04,      /* J =  5 */
(PID.TID 0000.0001)                 2.275969855854128E+04,      /* J =  6 */
(PID.TID 0000.0001)                 2.321175117362029E+04,      /* J =  7 */
(PID.TID 0000.0001)                 2.367821096276529E+04,      /* J =  8 */
(PID.TID 0000.0001)                 2.415907643347346E+04,      /* J =  9 */
(PID.TID 0000.0001)                 2.465434865814045E+04,      /* J = 10 */
(PID.TID 0000.0001)                 2.516403188365780E+04,      /* J = 11 */
(PID.TID 0000.0001)                 2.568813404310613E+04,      /* J = 12 */
(PID.TID 0000.0001)                 2.622666717399572E+04,      /* J = 13 */
(PID.TID 0000.0001)                 2.677964774799169E+04,      /* J = 14 */
(PID.TID 0000.0001)                 2.734709691757753E+04,      /* J = 15 */
(PID.TID 0000.0001)                 2.792904068517491E+04,      /* J = 16 */
(PID.TID 0000.0001)                 2.852551000032625E+04,      /* J = 17 */
(PID.TID 0000.0001)                 2.913654079081990E+04,      /* J = 18 */
(PID.TID 0000.0001)                 2.976217393306023E+04,      /* J = 19 */
(PID.TID 0000.0001)                 3.040245516699173E+04,      /* J = 20 */
(PID.TID 0000.0001)                 3.105743496108396E+04,      /* J = 21 */
(PID.TID 0000.0001)                 3.172716833208323E+04,      /* J = 22 */
(PID.TID 0000.0001)                 3.241171462422546E+04,      /* J = 23 */
(PID.TID 0000.0001)                 3.311113725244482E+04,      /* J = 24 */
(PID.TID 0000.0001)                 3.382550341391024E+04,      /* J = 25 */
(PID.TID 0000.0001)                 3.455488377140061E+04,      /* J = 26 */
(PID.TID 0000.0001)                 3.529935211332738E+04,      /* J = 27 */
(PID.TID 0000.0001)                 3.605898499520765E+04,      /* J = 28 */
(PID.TID 0000.0001)                 3.683386137397906E+04,      /* J = 29 */
(PID.TID 0000.0001)                 3.762406228407349E+04       /* J = 30 */
(PID.TID 0000.0001)     ;
(PID.TID 0000.0001) dyC =  /* dyC(:,1,:,1) ( units: m ) */
(PID.TID 0000.0001)                 3.678277710845771E+04,      /* I =  1 */
(PID.TID 0000.0001)                 3.685438685866048E+04,      /* I =  2 */
(PID.TID 0000.0001)                 3.692002588020908E+04,      /* I =  3 */
(PID.TID 0000.0001)                 3.697969453541307E+04,      /* I =  4 */
(PID.TID 0000.0001)                 3.703339337607873E+04,      /* I =  5 */
(PID.TID 0000.0001)                 3.708112307814123E+04,      /* I =  6 */
(PID.TID 0000.0001)                 3.712288438364359E+04,      /* I =  7 */
(PID.TID 0000.0001)                 3.715867804995441E+04,      /* I =  8 */
(PID.TID 0000.0001)                 3.718850480589901E+04,      /* I =  9 */
(PID.TID 0000.0001)                 3.721236531452968E+04,      /* I = 10 */
(PID.TID 0000.0001)                 3.723026014246432E+04,      /* I = 11 */
(PID.TID 0000.0001)                 3.724218973548726E+04,      /* I = 12 */
(PID.TID 0000.0001)     2 @  3.724815440020872E+04,             /* I = 13: 14 */
(PID.TID 0000.0001)                 3.724218973548726E+04,      /* I = 15 */
(PID.TID 0000.0001)                 3.723026014246432E+04,      /* I = 16 */
(PID.TID 0000.0001)                 3.721236531452968E+04,      /* I = 17 */
(PID.TID 0000.0001)                 3.718850480589901E+04,      /* I = 18 */
(PID.TID 0000.0001)                 3.715867804995440E+04,      /* I = 19 */
(PID.TID 0000.0001)                 3.712288438364359E+04,      /* I = 20 */
(PID.TID 0000.0001)                 3.708112307814122E+04,      /* I = 21 */
(PID.TID 0000.0001)                 3.703339337607873E+04,      /* I = 22 */
(PID.TID 0000.0001)                 3.697969453541307E+04,      /* I = 23 */
(PID.TID 0000.0001)                 3.692002588020908E+04,      /* I = 24 */
(PID.TID 0000.0001)                 3.685438685866047E+04,      /* I = 25 */
(PID.TID 0000.0001)                 3.678277710845772E+04,      /* I = 26 */
(PID.TID 0000.0001)                 3.670519653011381E+04,      /* I = 27 */
(PID.TID 0000.0001)                 3.662164536844059E+04,      /* I = 28 */
(PID.TID 0000.0001)                 3.653212430257830E+04,      /* I = 29 */
(PID.TID 0000.0001)                 3.643663454523116E+04       /* I = 30 */
(PID.TID 0000.0001)     ;
(PID.TID 0000.0001) dyC =  /* dyC(1,:,1,:) ( units: m ) */
(PID.TID 0000.0001)                 3.678277710845771E+04,      /* J =  1 */
(PID.TID 0000.0001)                 3.723168694115569E+04,      /* J =  2 */
(PID.TID 0000.0001)                 3.767901897410101E+04,      /* J =  3 */
(PID.TID 0000.0001)                 3.812467364657602E+04,      /* J =  4 */
(PID.TID 0000.0001)                 3.856855210935249E+04,      /* J =  5 */
(PID.TID 0000.0001)                 3.901055633269680E+04,      /* J =  6 */
(PID.TID 0000.0001)                 3.945058917911859E+04,      /* J =  7 */
(PID.TID 0000.0001)                 3.988855443472220E+04,      /* J =  8 */
(PID.TID 0000.0001)                 4.032435681898361E+04,      /* J =  9 */
(PID.TID 0000.0001)                 4.075790196435841E+04,      /* J = 10 */
(PID.TID 0000.0001)                 4.118909638222960E+04,      /* J = 11 */
(PID.TID 0000.0001)                 4.161784741043697E+04,      /* J = 12 */
(PID.TID 0000.0001)                 4.204406315499045E+04,      /* J = 13 */
(PID.TID 0000.0001)                 4.246765242091182E+04,      /* J = 14 */
(PID.TID 0000.0001)                 4.288852464034393E+04,      /* J = 15 */
(PID.TID 0000.0001)                 4.330658981118225E+04,      /* J = 16 */
(PID.TID 0000.0001)                 4.372175841431943E+04,      /* J = 17 */
(PID.TID 0000.0001)                 4.413394136293020E+04,      /* J = 18 */
(PID.TID 0000.0001)                 4.454304993440304E+04,      /* J = 19 */
(PID.TID 0000.0001)                 4.494899572325061E+04,      /* J = 20 */
(PID.TID 0000.0001)                 4.535169059286820E+04,      /* J = 21 */
(PID.TID 0000.0001)                 4.575104664412256E+04,      /* J = 22 */
(PID.TID 0000.0001)                 4.614697618947234E+04,      /* J = 23 */
(PID.TID 0000.0001)                 4.653939173844085E+04,      /* J = 24 */
(PID.TID 0000.0001)                 4.692820600744408E+04,      /* J = 25 */
(PID.TID 0000.0001)                 4.731333194957835E+04,      /* J = 26 */
(PID.TID 0000.0001)                 4.769468283927006E+04,      /* J = 27 */
(PID.TID 0000.0001)                 4.807217249390641E+04,      /* J = 28 */
(PID.TID 0000.0001)                 4.844571593362943E+04,      /* J = 29 */
(PID.TID 0000.0001)                 4.881523285497380E+04       /* J = 30 */
(PID.TID 0000.0001)     ;
(PID.TID 0000.0001) dxV =  /* dxV(:,1,:,1) ( units: m ) */
(PID.TID 0000.0001)                 2.053110526075532E+04,      /* I =  1 */
(PID.TID 0000.0001)                 2.052326088418283E+04,      /* I =  2 */
(PID.TID 0000.0001)                 2.051595672244828E+04,      /* I =  3 */
(PID.TID 0000.0001)                 2.050921502797681E+04,      /* I =  4 */
(PID.TID 0000.0001)                 2.050305593886370E+04,      /* I =  5 */
(PID.TID 0000.0001)                 2.049749752783181E+04,      /* I =  6 */
(PID.TID 0000.0001)                 2.049255584793284E+04,      /* I =  7 */
(PID.TID 0000.0001)                 2.048824497292525E+04,      /* I =  8 */
(PID.TID 0000.0001)                 2.048457703515834E+04,      /* I =  9 */
(PID.TID 0000.0001)                 2.048156226915133E+04,      /* I = 10 */
(PID.TID 0000.0001)                 2.047920906551970E+04,      /* I = 11 */
(PID.TID 0000.0001)                 2.047752414469434E+04,      /* I = 12 */
(PID.TID 0000.0001)                 2.047651405696554E+04,      /* I = 13 */
(PID.TID 0000.0001)                 2.047614194664622E+04,      /* I = 14 */
(PID.TID 0000.0001)                 2.047651405696559E+04,      /* I = 15 */
(PID.TID 0000.0001)                 2.047752414469430E+04,      /* I = 16 */
(PID.TID 0000.0001)                 2.047920906551971E+04,      /* I = 17 */
(PID.TID 0000.0001)                 2.048156226915138E+04,      /* I = 18 */
(PID.TID 0000.0001)                 2.048457703515829E+04,      /* I = 19 */
(PID.TID 0000.0001)                 2.048824497292535E+04,      /* I = 20 */
(PID.TID 0000.0001)                 2.049255584793274E+04,      /* I = 21 */
(PID.TID 0000.0001)                 2.049749752783187E+04,      /* I = 22 */
(PID.TID 0000.0001)                 2.050305593886373E+04,      /* I = 23 */
(PID.TID 0000.0001)                 2.050921502797675E+04,      /* I = 24 */
(PID.TID 0000.0001)                 2.051595672244826E+04,      /* I = 25 */
(PID.TID 0000.0001)                 2.052326088418290E+04,      /* I = 26 */
(PID.TID 0000.0001)                 2.053110526075532E+04,      /* I = 27 */
(PID.TID 0000.0001)                 2.053946543494557E+04,      /* I = 28 */
(PID.TID 0000.0001)                 2.054831476098181E+04,      /* I = 29 */
(PID.TID 0000.0001)                 2.055762430839241E+04       /* I = 30 */
(PID.TID 0000.0001)     ;
(PID.TID 0000.0001) dxV =  /* dxV(1,:,1,:) ( units: m ) */
(PID.TID 0000.0001)                 2.053110526075532E+04,      /* J =  1 */
(PID.TID 0000.0001)                 2.090385356266093E+04,      /* J =  2 */
(PID.TID 0000.0001)                 2.129102607314009E+04,      /* J =  3 */
(PID.TID 0000.0001)                 2.169262269996662E+04,      /* J =  4 */
(PID.TID 0000.0001)                 2.210864071595607E+04,      /* J =  5 */
(PID.TID 0000.0001)                 2.253907593617405E+04,      /* J =  6 */
(PID.TID 0000.0001)                 2.298392379458377E+04,      /* J =  7 */
(PID.TID 0000.0001)                 2.344318031700113E+04,      /* J =  8 */
(PID.TID 0000.0001)                 2.391684298864163E+04,      /* J =  9 */
(PID.TID 0000.0001)                 2.440491151699962E+04,      /* J = 10 */
(PID.TID 0000.0001)                 2.490738849171163E+04,      /* J = 11 */
(PID.TID 0000.0001)                 2.542427994477456E+04,      /* J = 12 */
(PID.TID 0000.0001)                 2.595559581485789E+04,      /* J = 13 */
(PID.TID 0000.0001)                 2.650135032062733E+04,      /* J = 14 */
(PID.TID 0000.0001)                 2.706156224833991E+04,      /* J = 15 */
(PID.TID 0000.0001)                 2.763625515890197E+04,      /* J = 16 */
(PID.TID 0000.0001)                 2.822545752042790E+04,      /* J = 17 */
(PID.TID 0000.0001)                 2.882920277162976E+04,      /* J = 18 */
(PID.TID 0000.0001)                 2.944752932187136E+04,      /* J = 19 */
(PID.TID 0000.0001)                 3.008048049319959E+04,      /* J = 20 */
(PID.TID 0000.0001)                 3.072810440966728E+04,      /* J = 21 */
(PID.TID 0000.0001)                 3.139045383903842E+04,      /* J = 22 */
(PID.TID 0000.0001)                 3.206758599174654E+04,      /* J = 23 */
(PID.TID 0000.0001)                 3.275956228156967E+04,      /* J = 24 */
(PID.TID 0000.0001)                 3.346644805244220E+04,      /* J = 25 */
(PID.TID 0000.0001)                 3.418831227550044E+04,      /* J = 26 */
(PID.TID 0000.0001)                 3.492522722017510E+04,      /* J = 27 */
(PID.TID 0000.0001)                 3.567726810399632E+04,      /* J = 28 */
(PID.TID 0000.0001)                 3.644451272859776E+04,      /* J = 29 */
(PID.TID 0000.0001)                 3.722704112152557E+04       /* J = 30 */
(PID.TID 0000.0001)     ;
(PID.TID 0000.0001) dyU =  /* dyU(:,1,:,1) ( units: m ) */
(PID.TID 0000.0001)                 3.674473316658630E+04,      /* I =  1 */
(PID.TID 0000.0001)                 3.681932833792822E+04,      /* I =  2 */
(PID.TID 0000.0001)                 3.688795269313092E+04,      /* I =  3 */
(PID.TID 0000.0001)                 3.695060647275718E+04,      /* I =  4 */
(PID.TID 0000.0001)                 3.700729014250917E+04,      /* I =  5 */
(PID.TID 0000.0001)                 3.705800432398131E+04,      /* I =  6 */
(PID.TID 0000.0001)                 3.710274973294064E+04,      /* I =  7 */
(PID.TID 0000.0001)                 3.714152712500728E+04,      /* I =  8 */
(PID.TID 0000.0001)                 3.717433724834998E+04,      /* I =  9 */
(PID.TID 0000.0001)                 3.720118080314009E+04,      /* I = 10 */
(PID.TID 0000.0001)                 3.722205840764935E+04,      /* I = 11 */
(PID.TID 0000.0001)                 3.723697057073888E+04,      /* I = 12 */
(PID.TID 0000.0001)                 3.724591767054543E+04,      /* I = 13 */
(PID.TID 0000.0001)                 3.724891083990022E+04,      /* I = 14 */
(PID.TID 0000.0001)                 3.724591767054542E+04,      /* I = 15 */
(PID.TID 0000.0001)                 3.723697057073889E+04,      /* I = 16 */
(PID.TID 0000.0001)                 3.722205840764935E+04,      /* I = 17 */
(PID.TID 0000.0001)                 3.720118080314008E+04,      /* I = 18 */
(PID.TID 0000.0001)                 3.717433724834998E+04,      /* I = 19 */
(PID.TID 0000.0001)                 3.714152712500728E+04,      /* I = 20 */
(PID.TID 0000.0001)                 3.710274973294063E+04,      /* I = 21 */
(PID.TID 0000.0001)                 3.705800432398131E+04,      /* I = 22 */
(PID.TID 0000.0001)                 3.700729014250917E+04,      /* I = 23 */
(PID.TID 0000.0001)                 3.695060647275716E+04,      /* I = 24 */
(PID.TID 0000.0001)                 3.688795269313094E+04,      /* I = 25 */
(PID.TID 0000.0001)                 3.681932833792821E+04,      /* I = 26 */
(PID.TID 0000.0001)                 3.674473316658630E+04,      /* I = 27 */
(PID.TID 0000.0001)                 3.666416724104654E+04,      /* I = 28 */
(PID.TID 0000.0001)                 3.657763101146962E+04,      /* I = 29 */
(PID.TID 0000.0001)                 3.648512541079492E+04       /* I = 30 */
(PID.TID 0000.0001)     ;
(PID.TID 0000.0001) dyU =  /* dyU(1,:,1,:) ( units: m ) */
(PID.TID 0000.0001)                 3.674473316658630E+04,      /* J =  1 */
(PID.TID 0000.0001)                 3.719361547538896E+04,      /* J =  2 */
(PID.TID 0000.0001)                 3.764089459751266E+04,      /* J =  3 */
(PID.TID 0000.0001)                 3.808646730382765E+04,      /* J =  4 */
(PID.TID 0000.0001)                 3.853023123895088E+04,      /* J =  5 */
(PID.TID 0000.0001)                 3.897208503739593E+04,      /* J =  6 */
(PID.TID 0000.0001)                 3.941192840112046E+04,      /* J =  7 */
(PID.TID 0000.0001)                 3.984966213263487E+04,      /* J =  8 */
(PID.TID 0000.0001)                 4.028518814419441E+04,      /* J =  9 */
(PID.TID 0000.0001)                 4.071840943468107E+04,      /* J = 10 */
(PID.TID 0000.0001)                 4.114923005120406E+04,      /* J = 11 */
(PID.TID 0000.0001)                 4.157755503103340E+04,      /* J = 12 */
(PID.TID 0000.0001)                 4.200329033666767E+04,      /* J = 13 */
(PID.TID 0000.0001)                 4.242634277960793E+04,      /* J = 14 */
(PID.TID 0000.0001)                 4.284661994092684E+04,      /* J = 15 */
(PID.TID 0000.0001)                 4.326403010205203E+04,      /* J = 16 */
(PID.TID 0000.0001)                 4.367848215462093E+04,      /* J = 17 */
(PID.TID 0000.0001)                 4.408988554208750E+04,      /* J = 18 */
(PID.TID 0000.0001)                 4.449815018464295E+04,      /* J = 19 */
(PID.TID 0000.0001)                 4.490318642518511E+04,      /* J = 20 */
(PID.TID 0000.0001)                 4.530490497491705E+04,      /* J = 21 */
(PID.TID 0000.0001)                 4.570321687598708E+04,      /* J = 22 */
(PID.TID 0000.0001)                 4.609803347024994E+04,      /* J = 23 */
(PID.TID 0000.0001)                 4.648926637992392E+04,      /* J = 24 */
(PID.TID 0000.0001)                 4.687682751321772E+04,      /* J = 25 */
(PID.TID 0000.0001)                 4.726062909013533E+04,      /* J = 26 */
(PID.TID 0000.0001)                 4.764058372401170E+04,      /* J = 27 */
(PID.TID 0000.0001)                 4.801660464021451E+04,      /* J = 28 */
(PID.TID 0000.0001)                 4.838860633247659E+04,      /* J = 29 */
(PID.TID 0000.0001)                 4.875650803021456E+04       /* J = 30 */
(PID.TID 0000.0001)     ;
(PID.TID 0000.0001) rA  =  /* rA (:,1,:,1) ( units: m^2 ) */
(PID.TID 0000.0001)                 7.665113621396177E+08,      /* I =  1 */
(PID.TID 0000.0001)                 7.677029697239892E+08,      /* I =  2 */
(PID.TID 0000.0001)                 7.687913877455838E+08,      /* I =  3 */
(PID.TID 0000.0001)                 7.697775979751738E+08,      /* I =  4 */
(PID.TID 0000.0001)                 7.706625466485583E+08,      /* I =  5 */
(PID.TID 0000.0001)                 7.714470546020026E+08,      /* I =  6 */
(PID.TID 0000.0001)                 7.721318586456149E+08,      /* I =  7 */
(PID.TID 0000.0001)                 7.727176271684608E+08,      /* I =  8 */
(PID.TID 0000.0001)                 7.732049082776864E+08,      /* I =  9 */
(PID.TID 0000.0001)                 7.735941717305043E+08,      /* I = 10 */
(PID.TID 0000.0001)                 7.738858051500469E+08,      /* I = 11 */
(PID.TID 0000.0001)                 7.740801100790358E+08,      /* I = 12 */
(PID.TID 0000.0001)                 7.741766386182301E+08,      /* I = 13 */
(PID.TID 0000.0001)                 7.741766369784317E+08,      /* I = 14 */
(PID.TID 0000.0001)                 7.740801094843833E+08,      /* I = 15 */
(PID.TID 0000.0001)                 7.738858062852919E+08,      /* I = 16 */
(PID.TID 0000.0001)                 7.735941726495122E+08,      /* I = 17 */
(PID.TID 0000.0001)                 7.732049061873938E+08,      /* I = 18 */
(PID.TID 0000.0001)                 7.727176277450933E+08,      /* I = 19 */
(PID.TID 0000.0001)                 7.721318658895597E+08,      /* I = 20 */
(PID.TID 0000.0001)                 7.714470531424019E+08,      /* I = 21 */
(PID.TID 0000.0001)                 7.706625470810328E+08,      /* I = 22 */
(PID.TID 0000.0001)                 7.697776024260553E+08,      /* I = 23 */
(PID.TID 0000.0001)                 7.687913844659867E+08,      /* I = 24 */
(PID.TID 0000.0001)                 7.677029712196296E+08,      /* I = 25 */
(PID.TID 0000.0001)                 7.665113646083255E+08,      /* I = 26 */
(PID.TID 0000.0001)                 7.652154604170089E+08,      /* I = 27 */
(PID.TID 0000.0001)                 7.638140926048064E+08,      /* I = 28 */
(PID.TID 0000.0001)                 7.623059927966076E+08,      /* I = 29 */
(PID.TID 0000.0001)                 7.606898330980235E+08       /* I = 30 */
(PID.TID 0000.0001)     ;
(PID.TID 0000.0001) rA  =  /* rA (1,:,1,:) ( units: m^2 ) */
(PID.TID 0000.0001)                 7.665113621396177E+08,      /* J =  1 */
(PID.TID 0000.0001)                 7.900134359449342E+08,      /* J =  2 */
(PID.TID 0000.0001)                 8.143679155417176E+08,      /* J =  3 */
(PID.TID 0000.0001)                 8.395900636155584E+08,      /* J =  4 */
(PID.TID 0000.0001)                 8.656947784023314E+08,      /* J =  5 */
(PID.TID 0000.0001)                 8.926966010402582E+08,      /* J =  6 */
(PID.TID 0000.0001)                 9.206097737377057E+08,      /* J =  7 */
(PID.TID 0000.0001)                 9.494482582794807E+08,      /* J =  8 */
(PID.TID 0000.0001)                 9.792257431806778E+08,      /* J =  9 */
(PID.TID 0000.0001)                 1.009955679131553E+09,      /* J = 10 */
(PID.TID 0000.0001)                 1.041651296044221E+09,      /* J = 11 */
(PID.TID 0000.0001)                 1.074325614369065E+09,      /* J = 12 */
(PID.TID 0000.0001)                 1.107991467925779E+09,      /* J = 13 */
(PID.TID 0000.0001)                 1.142661498173082E+09,      /* J = 14 */
(PID.TID 0000.0001)                 1.178348167164929E+09,      /* J = 15 */
(PID.TID 0000.0001)                 1.215063762235644E+09,      /* J = 16 */
(PID.TID 0000.0001)                 1.252820414073754E+09,      /* J = 17 */
(PID.TID 0000.0001)                 1.291630043617734E+09,      /* J = 18 */
(PID.TID 0000.0001)                 1.331504416619858E+09,      /* J = 19 */
(PID.TID 0000.0001)                 1.372455096362339E+09,      /* J = 20 */
(PID.TID 0000.0001)                 1.414493440828222E+09,      /* J = 21 */
(PID.TID 0000.0001)                 1.457630613639386E+09,      /* J = 22 */
(PID.TID 0000.0001)                 1.501877517761831E+09,      /* J = 23 */
(PID.TID 0000.0001)                 1.547244834049951E+09,      /* J = 24 */
(PID.TID 0000.0001)                 1.593742963439136E+09,      /* J = 25 */
(PID.TID 0000.0001)                 1.641382020566774E+09,      /* J = 26 */
(PID.TID 0000.0001)                 1.690171807481416E+09,      /* J = 27 */
(PID.TID 0000.0001)                 1.740121820832662E+09,      /* J = 28 */
(PID.TID 0000.0001)                 1.791241246411172E+09,      /* J = 29 */
(PID.TID 0000.0001)                 1.843539059771026E+09       /* J = 30 */
(PID.TID 0000.0001)     ;
(PID.TID 0000.0001) rAw =  /* rAw(:,1,:,1) ( units: m^2 ) */
(PID.TID 0000.0001)                 7.658765213139513E+08,      /* I =  1 */
(PID.TID 0000.0001)                 7.671201328724998E+08,      /* I =  2 */
(PID.TID 0000.0001)                 7.682600121490355E+08,      /* I =  3 */
(PID.TID 0000.0001)                 7.692972101823016E+08,      /* I =  4 */
(PID.TID 0000.0001)                 7.702326756407654E+08,      /* I =  5 */
(PID.TID 0000.0001)                 7.710673044850856E+08,      /* I =  6 */
(PID.TID 0000.0001)                 7.718018764844863E+08,      /* I =  7 */
(PID.TID 0000.0001)                 7.724370884091616E+08,      /* I =  8 */
(PID.TID 0000.0001)                 7.729735468223690E+08,      /* I =  9 */
(PID.TID 0000.0001)                 7.734117650170708E+08,      /* I = 10 */
(PID.TID 0000.0001)                 7.737521718456172E+08,      /* I = 11 */
(PID.TID 0000.0001)                 7.739951054308500E+08,      /* I = 12 */
(PID.TID 0000.0001)                 7.741408739107244E+08,      /* I = 13 */
(PID.TID 0000.0001)                 7.741880730050739E+08,      /* I = 14 */
(PID.TID 0000.0001)                 7.741408710636016E+08,      /* I = 15 */
(PID.TID 0000.0001)                 7.739951071427275E+08,      /* I = 16 */
(PID.TID 0000.0001)                 7.737521718095777E+08,      /* I = 17 */
(PID.TID 0000.0001)                 7.734117675938969E+08,      /* I = 18 */
(PID.TID 0000.0001)                 7.729735457051437E+08,      /* I = 19 */
(PID.TID 0000.0001)                 7.724370889497546E+08,      /* I = 20 */
(PID.TID 0000.0001)                 7.718018793856685E+08,      /* I = 21 */
(PID.TID 0000.0001)                 7.710673053320146E+08,      /* I = 22 */
(PID.TID 0000.0001)                 7.702326816053071E+08,      /* I = 23 */
(PID.TID 0000.0001)                 7.692972065242898E+08,      /* I = 24 */
(PID.TID 0000.0001)                 7.682600115363635E+08,      /* I = 25 */
(PID.TID 0000.0001)                 7.671201363863536E+08,      /* I = 26 */
(PID.TID 0000.0001)                 7.658765213499908E+08,      /* I = 27 */
(PID.TID 0000.0001)                 7.645280345158333E+08,      /* I = 28 */
(PID.TID 0000.0001)                 7.630734673343852E+08,      /* I = 29 */
(PID.TID 0000.0001)                 7.615115062009304E+08       /* I = 30 */
(PID.TID 0000.0001)     ;
(PID.TID 0000.0001) rAw =  /* rAw(1,:,1,:) ( units: m^2 ) */
(PID.TID 0000.0001)                 7.658765213139513E+08,      /* J =  1 */
(PID.TID 0000.0001)                 7.893768970448780E+08,      /* J =  2 */
(PID.TID 0000.0001)                 8.137283914516071E+08,      /* J =  3 */
(PID.TID 0000.0001)                 8.389460603348250E+08,      /* J =  4 */
(PID.TID 0000.0001)                 8.650445848102766E+08,      /* J =  5 */
(PID.TID 0000.0001)                 8.920382782103341E+08,      /* J =  6 */
(PID.TID 0000.0001)                 9.199411445401106E+08,      /* J =  7 */
(PID.TID 0000.0001)                 9.487668893433769E+08,      /* J =  8 */
(PID.TID 0000.0001)                 9.785289545527842E+08,      /* J =  9 */
(PID.TID 0000.0001)                 1.009240515336406E+09,      /* J = 10 */
(PID.TID 0000.0001)                 1.040914522930714E+09,      /* J = 11 */
(PID.TID 0000.0001)                 1.073563715488477E+09,      /* J = 12 */
(PID.TID 0000.0001)                 1.107200612276400E+09,      /* J = 13 */
(PID.TID 0000.0001)                 1.141837554111466E+09,      /* J = 14 */
(PID.TID 0000.0001)                 1.177486672294872E+09,      /* J = 15 */
(PID.TID 0000.0001)                 1.214159933192917E+09,      /* J = 16 */
(PID.TID 0000.0001)                 1.251869095602249E+09,      /* J = 17 */
(PID.TID 0000.0001)                 1.290625742284441E+09,      /* J = 18 */
(PID.TID 0000.0001)                 1.330441258846839E+09,      /* J = 19 */
(PID.TID 0000.0001)                 1.371326820624166E+09,      /* J = 20 */
(PID.TID 0000.0001)                 1.413293399742275E+09,      /* J = 21 */
(PID.TID 0000.0001)                 1.456351737475827E+09,      /* J = 22 */
(PID.TID 0000.0001)                 1.500512320083793E+09,      /* J = 23 */
(PID.TID 0000.0001)                 1.545785394792978E+09,      /* J = 24 */
(PID.TID 0000.0001)                 1.592180902277974E+09,      /* J = 25 */
(PID.TID 0000.0001)                 1.639708504465653E+09,      /* J = 26 */
(PID.TID 0000.0001)                 1.688377519501836E+09,      /* J = 27 */
(PID.TID 0000.0001)                 1.738196956421325E+09,      /* J = 28 */
(PID.TID 0000.0001)                 1.789175499722981E+09,      /* J = 29 */
(PID.TID 0000.0001)                 1.841321602441802E+09       /* J = 30 */
(PID.TID 0000.0001)     ;
(PID.TID 0000.0001) rAs =  /* rAs(:,1,:,1) ( units: m^2 ) */
(PID.TID 0000.0001)                 7.550751050606852E+08,      /* I =  1 */
(PID.TID 0000.0001)                 7.562658447772087E+08,      /* I =  2 */
(PID.TID 0000.0001)                 7.573533970032284E+08,      /* I =  3 */
(PID.TID 0000.0001)                 7.583387692957978E+08,      /* I =  4 */
(PID.TID 0000.0001)                 7.592229121974397E+08,      /* I =  5 */
(PID.TID 0000.0001)                 7.600066705467438E+08,      /* I =  6 */
(PID.TID 0000.0001)                 7.606907923080522E+08,      /* I =  7 */
(PID.TID 0000.0001)                 7.612759532224941E+08,      /* I =  8 */
(PID.TID 0000.0001)                 7.617627129118443E+08,      /* I =  9 */
(PID.TID 0000.0001)                 7.621515550445726E+08,      /* I = 10 */
(PID.TID 0000.0001)                 7.624428588466020E+08,      /* I = 11 */
(PID.TID 0000.0001)                 7.626369483673384E+08,      /* I = 12 */
(PID.TID 0000.0001)                 7.627333738515058E+08,      /* I = 13 */
(PID.TID 0000.0001)                 7.627333728604188E+08,      /* I = 14 */
(PID.TID 0000.0001)                 7.626369508901051E+08,      /* I = 15 */
(PID.TID 0000.0001)                 7.624428655319341E+08,      /* I = 16 */
(PID.TID 0000.0001)                 7.621515526659639E+08,      /* I = 17 */
(PID.TID 0000.0001)                 7.617627197953936E+08,      /* I = 18 */
(PID.TID 0000.0001)                 7.612759510961621E+08,      /* I = 19 */
(PID.TID 0000.0001)                 7.606907969030919E+08,      /* I = 20 */
(PID.TID 0000.0001)                 7.600066694295187E+08,      /* I = 21 */
(PID.TID 0000.0001)                 7.592229103594238E+08,      /* I = 22 */
(PID.TID 0000.0001)                 7.583387684488690E+08,      /* I = 23 */
(PID.TID 0000.0001)                 7.573533915792797E+08,      /* I = 24 */
(PID.TID 0000.0001)                 7.562658465071062E+08,      /* I = 25 */
(PID.TID 0000.0001)                 7.550751079979067E+08,      /* I = 26 */
(PID.TID 0000.0001)                 7.537800585200102E+08,      /* I = 27 */
(PID.TID 0000.0001)                 7.523795064624999E+08,      /* I = 28 */
(PID.TID 0000.0001)                 7.508721675027735E+08,      /* I = 29 */
(PID.TID 0000.0001)                 7.492566800675046E+08       /* I = 30 */
(PID.TID 0000.0001)     ;
(PID.TID 0000.0001) rAs =  /* rAs(1,:,1,:) ( units: m^2 ) */
(PID.TID 0000.0001)                 7.550751050606852E+08,      /* J =  1 */
(PID.TID 0000.0001)                 7.781568160584769E+08,      /* J =  2 */
(PID.TID 0000.0001)                 8.020831616625657E+08,      /* J =  3 */
(PID.TID 0000.0001)                 8.268695937660589E+08,      /* J =  4 */
(PID.TID 0000.0001)                 8.525311818286231E+08,      /* J =  5 */
(PID.TID 0000.0001)                 8.790826547724357E+08,      /* J =  6 */
(PID.TID 0000.0001)                 9.065383887828039E+08,      /* J =  7 */
(PID.TID 0000.0001)                 9.349124897125442E+08,      /* J =  8 */
(PID.TID 0000.0001)                 9.642187819277472E+08,      /* J =  9 */
(PID.TID 0000.0001)                 9.944708240750725E+08,      /* J = 10 */
(PID.TID 0000.0001)                 1.025681954725808E+09,      /* J = 11 */
(PID.TID 0000.0001)                 1.057865313008499E+09,      /* J = 12 */
(PID.TID 0000.0001)                 1.091033805921100E+09,      /* J = 13 */
(PID.TID 0000.0001)                 1.125200178247652E+09,      /* J = 14 */
(PID.TID 0000.0001)                 1.160376979600140E+09,      /* J = 15 */
(PID.TID 0000.0001)                 1.196576586510721E+09,      /* J = 16 */
(PID.TID 0000.0001)                 1.233811208089928E+09,      /* J = 17 */
(PID.TID 0000.0001)                 1.272092866313053E+09,      /* J = 18 */
(PID.TID 0000.0001)                 1.311433405822894E+09,      /* J = 19 */
(PID.TID 0000.0001)                 1.351844507714875E+09,      /* J = 20 */
(PID.TID 0000.0001)                 1.393337606051485E+09,      /* J = 21 */
(PID.TID 0000.0001)                 1.435923987908001E+09,      /* J = 22 */
(PID.TID 0000.0001)                 1.479614675036705E+09,      /* J = 23 */
(PID.TID 0000.0001)                 1.524420466465598E+09,      /* J = 24 */
(PID.TID 0000.0001)                 1.570351910729954E+09,      /* J = 25 */
(PID.TID 0000.0001)                 1.617419255741331E+09,      /* J = 26 */
(PID.TID 0000.0001)                 1.665632470339211E+09,      /* J = 27 */
(PID.TID 0000.0001)                 1.715001205152071E+09,      /* J = 28 */
(PID.TID 0000.0001)                 1.765534790867491E+09,      /* J = 29 */
(PID.TID 0000.0001)                 1.817242347954489E+09       /* J = 30 */
(PID.TID 0000.0001)     ;
(PID.TID 0000.0001) globalArea = /* Integrated horizontal Area (m^2) */
(PID.TID 0000.0001)                 3.580138611494435E+14
(PID.TID 0000.0001)     ;
(PID.TID 0000.0001) hasWetCSCorners = /* Domain contains CS corners (True/False) */
(PID.TID 0000.0001)                   F
(PID.TID 0000.0001)     ;
(PID.TID 0000.0001) // =======================================================
(PID.TID 0000.0001) // End of Model config. summary
(PID.TID 0000.0001) // =======================================================
(PID.TID 0000.0001) 
(PID.TID 0000.0001) == Packages configuration : Check & print summary ==
(PID.TID 0000.0001) 
(PID.TID 0000.0001) GGL90_CHECK: #define ALLOW_GGL90
(PID.TID 0000.0001) GGL90_CHECK: Some form of convection has been enabled
(PID.TID 0000.0001) GMREDI_CHECK: #define GMREDI
(PID.TID 0000.0001) GM_AdvForm =     /* if FALSE => use SkewFlux Form */
(PID.TID 0000.0001)                   T
(PID.TID 0000.0001)     ;
(PID.TID 0000.0001) GM_InMomAsStress = /* if TRUE => apply as Eddy Stress */
(PID.TID 0000.0001)                   F
(PID.TID 0000.0001)     ;
(PID.TID 0000.0001) GM_AdvSeparate = /* Calc Bolus & Euler Adv. separately */
(PID.TID 0000.0001)                   F
(PID.TID 0000.0001)     ;
(PID.TID 0000.0001) GM_ExtraDiag =   /* Tensor Extra Diag (line 1&2) non 0 */
(PID.TID 0000.0001)                   T
(PID.TID 0000.0001)     ;
(PID.TID 0000.0001) GM_isopycK =    /* Background Isopyc. Diffusivity [m^2/s] */
(PID.TID 0000.0001)                 1.000000000000000E+03
(PID.TID 0000.0001)     ;
(PID.TID 0000.0001) GM_skewflx*K =  /* Background GM_SkewFlx Diffusivity [m^2/s] */
(PID.TID 0000.0001)                 0.000000000000000E+00
(PID.TID 0000.0001)     ;
(PID.TID 0000.0001) GM_advec*K =    /* Backg. GM-Advec(=Bolus) Diffusivity [m^2/s]*/
(PID.TID 0000.0001)                 1.000000000000000E+03
(PID.TID 0000.0001)     ;
(PID.TID 0000.0001) GM_Kmin_horiz = /* Minimum Horizontal Diffusivity [m^2/s] */
(PID.TID 0000.0001)                 1.000000000000000E+02
(PID.TID 0000.0001)     ;
(PID.TID 0000.0001) GM_Visbeck_alpha = /* Visbeck alpha coeff. [-] */
(PID.TID 0000.0001)                 0.000000000000000E+00
(PID.TID 0000.0001)     ;
(PID.TID 0000.0001) GM_Small_Number =  /* epsilon used in slope calc */
(PID.TID 0000.0001)                 9.999999999999999E-21
(PID.TID 0000.0001)     ;
(PID.TID 0000.0001) GM_slopeSqCutoff = /* Slope^2 cut-off value */
(PID.TID 0000.0001)                 1.000000000000000E+08
(PID.TID 0000.0001)     ;
(PID.TID 0000.0001) GM_taper_scheme =  /* Type of Tapering/Clipping scheme */
(PID.TID 0000.0001)               'stableGmAdjTap                          '
(PID.TID 0000.0001)     ;
(PID.TID 0000.0001) GM_maxSlope =  /* Maximum Slope (Tapering/Clipping) */
(PID.TID 0000.0001)                 4.000000000000000E-03
(PID.TID 0000.0001)     ;
(PID.TID 0000.0001) GM_facTrL2dz = /* Minimum Trans.Layer Thick. (factor of dz) */
(PID.TID 0000.0001)                 1.000000000000000E+00
(PID.TID 0000.0001)     ;
(PID.TID 0000.0001) GM_facTrL2ML = /* Max.Trans.Layer Thick. (factor of MxL Depth)*/
(PID.TID 0000.0001)                 5.000000000000000E+00
(PID.TID 0000.0001)     ;
(PID.TID 0000.0001) GM_maxTransLay = /* Maximum Transition Layer Thickness [m] */
(PID.TID 0000.0001)                 5.000000000000000E+02
(PID.TID 0000.0001)     ;
(PID.TID 0000.0001) GM_UseBVP = /* if TRUE => use bvp a la Ferrari et al. (2010) */
(PID.TID 0000.0001)                   F
(PID.TID 0000.0001)     ;
(PID.TID 0000.0001) GM_BVP_ModeNumber = /* Vertical mode number for BVP wave speed */
(PID.TID 0000.0001)                       1
(PID.TID 0000.0001)     ;
(PID.TID 0000.0001) GM_BVP_cMin = /* Minimum wave speed for BVP [m/s] */
(PID.TID 0000.0001)                 1.000000000000000E-01
(PID.TID 0000.0001)     ;
(PID.TID 0000.0001) GM_useSubMeso = /* if TRUE => use Sub-Meso param. (B.Fox-Kemper) */
(PID.TID 0000.0001)                   F
(PID.TID 0000.0001)     ;
(PID.TID 0000.0001) subMeso_Ceff = /* efficiency coeff. of Mixed-Layer Eddies [-] */
(PID.TID 0000.0001)                 7.000000000000001E-02
(PID.TID 0000.0001)     ;
(PID.TID 0000.0001) subMeso_invTau = /* inverse of Sub-Meso mixing time-scale [/s] */
(PID.TID 0000.0001)                 2.000000000000000E-06
(PID.TID 0000.0001)     ;
(PID.TID 0000.0001) subMeso_LfMin = /* minimum length-scale "Lf" [m] */
(PID.TID 0000.0001)                 1.000000000000000E+03
(PID.TID 0000.0001)     ;
(PID.TID 0000.0001) subMeso_Lmax = /* maximum grid-scale length [m] */
(PID.TID 0000.0001)                 1.100000000000000E+05
(PID.TID 0000.0001)     ;
(PID.TID 0000.0001) SEAICE_CHECK: #define ALLOW_SEAICE
(PID.TID 0000.0001) CTRL_CHECK: #define ALLOW_CTRL
(PID.TID 0000.0001) GAD_CHECK: #define ALLOW_GENERIC_ADVDIFF
(PID.TID 0000.0001) // =======================================================
(PID.TID 0000.0001) // Check Model config. (CONFIG_CHECK):
(PID.TID 0000.0001) // CONFIG_CHECK : Normal End
(PID.TID 0000.0001) // =======================================================
(PID.TID 0000.0001) 
(PID.TID 0000.0001)  MDS_READ_META: opening file: pickup.0000000001.meta
(PID.TID 0000.0001)  nRecords = 403 ; filePrec =  64 ; fileIter =     26280
(PID.TID 0000.0001)     nDims =   2 , dims:
(PID.TID 0000.0001)    1:  90   1  90
(PID.TID 0000.0001)    2:1170   11170
(PID.TID 0000.0001)     nFlds =  11 , nFl3D =   8 , fields:
(PID.TID 0000.0001)  >Uvel    < >Vvel    < >Theta   < >Salt    < >GuNm1   < >GuNm2   < >GvNm1   < >GvNm2   < >EtaN    < >dEtaHdt < >EtaH    <
(PID.TID 0000.0001) missingVal=  1.00000000000000E+00 ; nTimRec =   1 , timeList:
(PID.TID 0000.0001)   9.460800000000E+07
(PID.TID 0000.0001) READ_MFLDS_3D_RL: read field: "Uvel    ", #   1 in fldList, rec=   1
(PID.TID 0000.0001)  MDS_READ_FIELD: opening global file: pickup.0000000001.data
(PID.TID 0000.0001) READ_MFLDS_3D_RL: read field: "Vvel    ", #   2 in fldList, rec=   2
(PID.TID 0000.0001)  MDS_READ_FIELD: opening global file: pickup.0000000001.data
(PID.TID 0000.0001) READ_MFLDS_3D_RL: read field: "Theta   ", #   3 in fldList, rec=   3
(PID.TID 0000.0001)  MDS_READ_FIELD: opening global file: pickup.0000000001.data
(PID.TID 0000.0001) READ_MFLDS_3D_RL: read field: "Salt    ", #   4 in fldList, rec=   4
(PID.TID 0000.0001)  MDS_READ_FIELD: opening global file: pickup.0000000001.data
(PID.TID 0000.0001) READ_MFLDS_3D_RL: read field: "GuNm1   ", #   5 in fldList, rec=   5
(PID.TID 0000.0001)  MDS_READ_FIELD: opening global file: pickup.0000000001.data
(PID.TID 0000.0001) READ_MFLDS_3D_RL: read field: "GvNm1   ", #   7 in fldList, rec=   7
(PID.TID 0000.0001)  MDS_READ_FIELD: opening global file: pickup.0000000001.data
(PID.TID 0000.0001) READ_MFLDS_3D_RL: read field: "EtaN    ", #   9 in fldList, rec= 401
(PID.TID 0000.0001)  MDS_READ_FIELD: opening global file: pickup.0000000001.data
(PID.TID 0000.0001) READ_MFLDS_3D_RL: read field: "dEtaHdt ", #  10 in fldList, rec= 402
(PID.TID 0000.0001)  MDS_READ_FIELD: opening global file: pickup.0000000001.data
(PID.TID 0000.0001) READ_MFLDS_3D_RL: read field: "EtaH    ", #  11 in fldList, rec= 403
(PID.TID 0000.0001)  MDS_READ_FIELD: opening global file: pickup.0000000001.data
(PID.TID 0000.0001) READ_MFLDS_CHECK: - normal end ; reset MFLDS file-name: pickup.0000000001
(PID.TID 0000.0001)  MDS_READ_FIELD: opening global file: geothermalFlux.bin
(PID.TID 0000.0001)  write diagnostics summary to file ioUnit:     36
Iter.Nb:         1 ; Time(s):  9.0000000000000E+02
------------------------------------------------------------------------
2D/3D diagnostics: Number of lists:     3
------------------------------------------------------------------------
listId=    1 ; file name: surfDiag
 nFlds, nActive,       freq     &     phase        , nLev               
   10  |   10  |      3600.000000         0.000000 |   1
 levels:   1
 diag# | name   |   ipt  |  iMate | kLev|   count |   mate.C|           
    86 |oceQnet |      1 |      0 |   1 |       0 |
    87 |oceQsw  |      2 |      0 |   1 |       0 |
    84 |oceFWflx|      3 |      0 |   1 |       0 |
    85 |oceSflux|      4 |      0 |   1 |       0 |
    80 |oceTAUX |      5 |      6 |   1 |       0 |       0 |
    81 |oceTAUY |      6 |      5 |   1 |       0 |       0 |
    26 |THETA   |      7 |      0 |  50 |       0 |
    27 |SALT    |     57 |      0 |  50 |       0 |
    30 |UVEL    |    107 |    157 |  50 |       0 |       0 |
    31 |VVEL    |    157 |    107 |  50 |       0 |       0 |
------------------------------------------------------------------------
listId=    2 ; file name: iceDiag
 nFlds, nActive,       freq     &     phase        , nLev               
    8  |    8  |      3600.000000         0.000000 |   1
 levels:   1
 diag# | name   |   ipt  |  iMate | kLev|   count |   mate.C|           
   214 |SIarea  |    207 |      0 |   1 |       0 |
   217 |SIheff  |    208 |      0 |   1 |       0 |
   219 |SIhsnow |    209 |      0 |   1 |       0 |
    83 |sIceLoad|    210 |      0 |   1 |       0 |
   223 |SIuice  |    211 |    212 |   1 |       0 |       0 |
   224 |SIvice  |    212 |    211 |   1 |       0 |       0 |
   225 |SItaux  |    213 |    214 |   1 |       0 |       0 |
   226 |SItauy  |    214 |    213 |   1 |       0 |       0 |
------------------------------------------------------------------------
listId=    3 ; file name: iceNcat
 nFlds, nActive,       freq     &     phase        , nLev               
    3  |    3  |      3600.000000         0.000000 |   5
 levels:   1   2   3   4   5
 diag# | name   |   ipt  |  iMate | kLev|   count |   mate.C|           
   285 |SIareaN |    215 |      0 |   5 |       0 |
   284 |SIheffN |    220 |      0 |   5 |       0 |
   286 |SIhsnowN|    225 |      0 |   5 |       0 |
------------------------------------------------------------------------
Global & Regional Statistics diagnostics: Number of lists:     1
------------------------------------------------------------------------
listId=   1 ; file name: iceStDiag
 nFlds, nActive,       freq     &     phase        |                    
    8  |    8  |       900.000000         0.000000 |
 Regions:   0
 diag# | name   |   ipt  |  iMate |    Volume   |   mate-Vol. |         
   214 |SIarea  |      1 |      0 | 0.00000E+00 |
   217 |SIheff  |      2 |      0 | 0.00000E+00 |
   219 |SIhsnow |      3 |      0 | 0.00000E+00 |
    83 |sIceLoad|      4 |      0 | 0.00000E+00 |
   223 |SIuice  |      5 |      0 | 0.00000E+00 |
   224 |SIvice  |      6 |      0 | 0.00000E+00 |
   225 |SItaux  |      7 |      0 | 0.00000E+00 |
   226 |SItauy  |      8 |      0 | 0.00000E+00 |
------------------------------------------------------------------------
(PID.TID 0000.0001)  MDS_READ_FIELD: opening global file: pickup_ggl90.0000000001.data
(PID.TID 0000.0001)  MDS_READ_META: opening file: pickup_seaice.0000000001.meta
(PID.TID 0000.0001)  nRecords =   6 ; filePrec =  64 ; fileIter =     17532
(PID.TID 0000.0001)     nDims =   2 , dims:
(PID.TID 0000.0001)    1:  90   1  90
(PID.TID 0000.0001)    2:1170   11170
(PID.TID 0000.0001)     nFlds =   6 , nFl3D =   0 , fields:
(PID.TID 0000.0001)  >siTICE  < >siAREA  < >siHEFF  < >siHSNOW < >siUICE  < >siVICE  <
(PID.TID 0000.0001) missingVal=  1.00000000000000E+00 ; nTimRec =   1 , timeList:
(PID.TID 0000.0001)   6.311520000000E+07
(PID.TID 0000.0001) READ_MFLDS_3D_RL: field: "siTICES " missing in file: pickup_seaice.0000000001
(PID.TID 0000.0001) READ_MFLDS_LEV_RL: read field: "siTICE  ", #   1 in fldList, rec=   1
(PID.TID 0000.0001)  MDS_READ_FIELD: opening global file: pickup_seaice.0000000001.data
(PID.TID 0000.0001) READ_MFLDS_3D_RL: field: "siAREAn " missing in file: pickup_seaice.0000000001
(PID.TID 0000.0001) READ_MFLDS_3D_RL: read field: "siAREA  ", #   2 in fldList, rec=   2
(PID.TID 0000.0001)  MDS_READ_FIELD: opening global file: pickup_seaice.0000000001.data
(PID.TID 0000.0001) READ_MFLDS_3D_RL: read field: "siHEFF  ", #   3 in fldList, rec=   3
(PID.TID 0000.0001)  MDS_READ_FIELD: opening global file: pickup_seaice.0000000001.data
(PID.TID 0000.0001) READ_MFLDS_3D_RL: read field: "siHSNOW ", #   4 in fldList, rec=   4
(PID.TID 0000.0001)  MDS_READ_FIELD: opening global file: pickup_seaice.0000000001.data
(PID.TID 0000.0001) READ_MFLDS_3D_RL: read field: "siUICE  ", #   5 in fldList, rec=   5
(PID.TID 0000.0001)  MDS_READ_FIELD: opening global file: pickup_seaice.0000000001.data
(PID.TID 0000.0001) READ_MFLDS_3D_RL: read field: "siVICE  ", #   6 in fldList, rec=   6
(PID.TID 0000.0001)  MDS_READ_FIELD: opening global file: pickup_seaice.0000000001.data
(PID.TID 0000.0001)  MDS_READ_FIELD: opening global file: wt_ones.data
(PID.TID 0000.0001)  MDS_READ_FIELD: opening global file: xx_kapgm.0000000012.data
(PID.TID 0000.0001)  MDS_READ_FIELD: opening global file: wt_ones.data
(PID.TID 0000.0001)  MDS_READ_FIELD: opening global file: xx_kapredi.0000000012.data
(PID.TID 0000.0001)  MDS_READ_FIELD: opening global file: wt_ones.data
(PID.TID 0000.0001)  MDS_READ_FIELD: opening global file: xx_diffkr.0000000012.data
(PID.TID 0000.0001) // =======================================================
(PID.TID 0000.0001) // Model current state
(PID.TID 0000.0001) // =======================================================
(PID.TID 0000.0001) 
(PID.TID 0000.0001) SOLVE_FOR_PRESSURE: putPmEinXvector =    F
 cg2d: Sum(rhs),rhsMax =   4.52881599166867E+01  3.22122335213738E-01
 Compute Stats, Diag. #    214  SIarea    vol(   0 ): 3.580E+14  Parms: SM      M1      
 Compute Stats, Diag. #    217  SIheff    vol(   0 ): 3.580E+14  Parms: SM      M1      
 Compute Stats, Diag. #    219  SIhsnow   vol(   0 ): 3.580E+14  Parms: SM      M1      
 Compute Stats, Diag. #     83  sIceLoad  vol(   0 ): 3.580E+14  Parms: SM      U1      
 Compute Stats, Diag. #    223  SIuice    vol(   0 ): 3.513E+14  Parms: UU      M1      
 Compute Stats, Diag. #    224  SIvice    vol(   0 ): 3.508E+14  Parms: VV      M1      
 Compute Stats, Diag. #    225  SItaux    vol(   0 ): 3.513E+14  Parms: UU      U1      
 Compute Stats, Diag. #    226  SItauy    vol(   0 ): 3.508E+14  Parms: VV      U1      
 cg2d: Sum(rhs),rhsMax =   4.52126559347835E+01  3.19415135140422E-01
 Compute Stats, Diag. #    214  SIarea    vol(   0 ): 3.580E+14  Parms: SM      M1      
 Compute Stats, Diag. #    217  SIheff    vol(   0 ): 3.580E+14  Parms: SM      M1      
 Compute Stats, Diag. #    219  SIhsnow   vol(   0 ): 3.580E+14  Parms: SM      M1      
 Compute Stats, Diag. #     83  sIceLoad  vol(   0 ): 3.580E+14  Parms: SM      U1      
 Compute Stats, Diag. #    223  SIuice    vol(   0 ): 3.513E+14  Parms: UU      M1      
 Compute Stats, Diag. #    224  SIvice    vol(   0 ): 3.508E+14  Parms: VV      M1      
 Compute Stats, Diag. #    225  SItaux    vol(   0 ): 3.513E+14  Parms: UU      U1      
 Compute Stats, Diag. #    226  SItauy    vol(   0 ): 3.508E+14  Parms: VV      U1      
 cg2d: Sum(rhs),rhsMax =   4.64008313878183E+01  3.25334187137580E-01
 Computing Diagnostic #     86  oceQnet      Counter:       3   Parms: SM      U1      
 Computing Diagnostic #     87  oceQsw       Counter:       3   Parms: SM      U1      
 Computing Diagnostic #     84  oceFWflx     Counter:       3   Parms: SM      U1      
 Computing Diagnostic #     85  oceSflux     Counter:       3   Parms: SM      U1      
 Computing Diagnostic #     80  oceTAUX      Counter:       3   Parms: UU      U1      
           Vector  Mate for  oceTAUX      Diagnostic #     81  oceTAUY  exists 
 Computing Diagnostic #     81  oceTAUY      Counter:       3   Parms: VV      U1      
           Vector  Mate for  oceTAUY      Diagnostic #     80  oceTAUX  exists 
 Computing Diagnostic #     26  THETA        Counter:       3   Parms: SMR     MR      
 Computing Diagnostic #     27  SALT         Counter:       3   Parms: SMR     MR      
 Computing Diagnostic #     30  UVEL         Counter:       3   Parms: UUR     MR      
           Vector  Mate for  UVEL         Diagnostic #     31  VVEL     exists 
 Computing Diagnostic #     31  VVEL         Counter:       3   Parms: VVR     MR      
           Vector  Mate for  VVEL         Diagnostic #     30  UVEL     exists 
 Computing Diagnostic #    214  SIarea       Counter:       3   Parms: SM      M1      
 Computing Diagnostic #    217  SIheff       Counter:       3   Parms: SM      M1      
 Computing Diagnostic #    219  SIhsnow      Counter:       3   Parms: SM      M1      
 Computing Diagnostic #     83  sIceLoad     Counter:       3   Parms: SM      U1      
 Computing Diagnostic #    223  SIuice       Counter:       3   Parms: UU      M1      
           Vector  Mate for  SIuice       Diagnostic #    224  SIvice   exists 
 Computing Diagnostic #    224  SIvice       Counter:       3   Parms: VV      M1      
           Vector  Mate for  SIvice       Diagnostic #    223  SIuice   exists 
 Computing Diagnostic #    225  SItaux       Counter:       3   Parms: UU      U1      
           Vector  Mate for  SItaux       Diagnostic #    226  SItauy   exists 
 Computing Diagnostic #    226  SItauy       Counter:       3   Parms: VV      U1      
           Vector  Mate for  SItauy       Diagnostic #    225  SItaux   exists 
 Computing Diagnostic #    285  SIareaN      Counter:       3   Parms: SM      MX      
 Computing Diagnostic #    284  SIheffN      Counter:       3   Parms: SM      MX      
 Computing Diagnostic #    286  SIhsnowN     Counter:       3   Parms: SM      MX      
 Compute Stats, Diag. #    214  SIarea    vol(   0 ): 3.580E+14  Parms: SM      M1      
 Compute Stats, Diag. #    217  SIheff    vol(   0 ): 3.580E+14  Parms: SM      M1      
 Compute Stats, Diag. #    219  SIhsnow   vol(   0 ): 3.580E+14  Parms: SM      M1      
 Compute Stats, Diag. #     83  sIceLoad  vol(   0 ): 3.580E+14  Parms: SM      U1      
 Compute Stats, Diag. #    223  SIuice    vol(   0 ): 3.513E+14  Parms: UU      M1      
 Compute Stats, Diag. #    224  SIvice    vol(   0 ): 3.508E+14  Parms: VV      M1      
 Compute Stats, Diag. #    225  SItaux    vol(   0 ): 3.513E+14  Parms: UU      U1      
 Compute Stats, Diag. #    226  SItauy    vol(   0 ): 3.508E+14  Parms: VV      U1      
 cg2d: Sum(rhs),rhsMax =   4.78369002710901E+01  3.24683004312470E-01
 Compute Stats, Diag. #    214  SIarea    vol(   0 ): 3.580E+14  Parms: SM      M1      
 Compute Stats, Diag. #    217  SIheff    vol(   0 ): 3.580E+14  Parms: SM      M1      
 Compute Stats, Diag. #    219  SIhsnow   vol(   0 ): 3.580E+14  Parms: SM      M1      
 Compute Stats, Diag. #     83  sIceLoad  vol(   0 ): 3.580E+14  Parms: SM      U1      
 Compute Stats, Diag. #    223  SIuice    vol(   0 ): 3.513E+14  Parms: UU      M1      
 Compute Stats, Diag. #    224  SIvice    vol(   0 ): 3.508E+14  Parms: VV      M1      
 Compute Stats, Diag. #    225  SItaux    vol(   0 ): 3.513E+14  Parms: UU      U1      
 Compute Stats, Diag. #    226  SItauy    vol(   0 ): 3.508E+14  Parms: VV      U1      
 cg2d: Sum(rhs),rhsMax =   4.93584998546410E+01  3.19221216626632E-01
 Compute Stats, Diag. #    214  SIarea    vol(   0 ): 3.580E+14  Parms: SM      M1      
 Compute Stats, Diag. #    217  SIheff    vol(   0 ): 3.580E+14  Parms: SM      M1      
 Compute Stats, Diag. #    219  SIhsnow   vol(   0 ): 3.580E+14  Parms: SM      M1      
 Compute Stats, Diag. #     83  sIceLoad  vol(   0 ): 3.580E+14  Parms: SM      U1      
 Compute Stats, Diag. #    223  SIuice    vol(   0 ): 3.513E+14  Parms: UU      M1      
 Compute Stats, Diag. #    224  SIvice    vol(   0 ): 3.508E+14  Parms: VV      M1      
 Compute Stats, Diag. #    225  SItaux    vol(   0 ): 3.513E+14  Parms: UU      U1      
 Compute Stats, Diag. #    226  SItauy    vol(   0 ): 3.508E+14  Parms: VV      U1      
 cg2d: Sum(rhs),rhsMax =   5.09417380293235E+01  3.12562956698834E-01
 Compute Stats, Diag. #    214  SIarea    vol(   0 ): 3.580E+14  Parms: SM      M1      
 Compute Stats, Diag. #    217  SIheff    vol(   0 ): 3.580E+14  Parms: SM      M1      
 Compute Stats, Diag. #    219  SIhsnow   vol(   0 ): 3.580E+14  Parms: SM      M1      
 Compute Stats, Diag. #     83  sIceLoad  vol(   0 ): 3.580E+14  Parms: SM      U1      
 Compute Stats, Diag. #    223  SIuice    vol(   0 ): 3.513E+14  Parms: UU      M1      
 Compute Stats, Diag. #    224  SIvice    vol(   0 ): 3.508E+14  Parms: VV      M1      
 Compute Stats, Diag. #    225  SItaux    vol(   0 ): 3.513E+14  Parms: UU      U1      
 Compute Stats, Diag. #    226  SItauy    vol(   0 ): 3.508E+14  Parms: VV      U1      
 cg2d: Sum(rhs),rhsMax =   5.25766859314424E+01  3.09648486889477E-01
(PID.TID 0000.0001)      cg2d_init_res =   1.14744926395754E+00
(PID.TID 0000.0001)      cg2d_iters(min,last) =      -1      37
(PID.TID 0000.0001)      cg2d_last_res =   2.42743059348954E-05
(PID.TID 0000.0001) // =======================================================
(PID.TID 0000.0001) // Begin MONITOR dynamic field statistics
(PID.TID 0000.0001) // =======================================================
(PID.TID 0000.0001) %MON time_tsnumber                =                     8
(PID.TID 0000.0001) %MON time_secondsf                =   7.2000000000000E+03
(PID.TID 0000.0001) %MON dynstat_eta_max              =   1.1505293448431E+00
(PID.TID 0000.0001) %MON dynstat_eta_min              =  -4.5782578911516E+00
(PID.TID 0000.0001) %MON dynstat_eta_mean             =  -1.6631684948048E-03
(PID.TID 0000.0001) %MON dynstat_eta_sd               =   7.3547865632505E-01
(PID.TID 0000.0001) %MON dynstat_eta_del2             =   1.2259932588076E-04
(PID.TID 0000.0001) %MON dynstat_uvel_max             =   9.1710660740450E-01
(PID.TID 0000.0001) %MON dynstat_uvel_min             =  -1.1435189140857E+00
(PID.TID 0000.0001) %MON dynstat_uvel_mean            =   1.8229410919804E-03
(PID.TID 0000.0001) %MON dynstat_uvel_sd              =   2.1847700419281E-02
(PID.TID 0000.0001) %MON dynstat_uvel_del2            =   1.7390058088685E-05
(PID.TID 0000.0001) %MON dynstat_vvel_max             =   8.4199767324535E-01
(PID.TID 0000.0001) %MON dynstat_vvel_min             =  -9.4583302299212E-01
(PID.TID 0000.0001) %MON dynstat_vvel_mean            =   1.2415384077006E-03
(PID.TID 0000.0001) %MON dynstat_vvel_sd              =   2.3854536849005E-02
(PID.TID 0000.0001) %MON dynstat_vvel_del2            =   1.8678211514151E-05
(PID.TID 0000.0001) %MON dynstat_wvel_max             =   1.8647969659519E-03
(PID.TID 0000.0001) %MON dynstat_wvel_min             =  -1.4970185985058E-03
(PID.TID 0000.0001) %MON dynstat_wvel_mean            =   9.5864548084450E-08
(PID.TID 0000.0001) %MON dynstat_wvel_sd              =   3.3467277972534E-05
(PID.TID 0000.0001) %MON dynstat_wvel_del2            =   4.3285373715796E-08
(PID.TID 0000.0001) %MON dynstat_theta_max            =   3.2663546502429E+01
(PID.TID 0000.0001) %MON dynstat_theta_min            =  -2.0421616616984E+00
(PID.TID 0000.0001) %MON dynstat_theta_mean           =   3.5906093834201E+00
(PID.TID 0000.0001) %MON dynstat_theta_sd             =   4.4366834537356E+00
(PID.TID 0000.0001) %MON dynstat_theta_del2           =   1.0937779288873E-04
(PID.TID 0000.0001) %MON dynstat_salt_max             =   4.0711526589113E+01
(PID.TID 0000.0001) %MON dynstat_salt_min             =   1.8893315277467E+01
(PID.TID 0000.0001) %MON dynstat_salt_mean            =   3.4725775756770E+01
(PID.TID 0000.0001) %MON dynstat_salt_sd              =   3.7776509104370E-01
(PID.TID 0000.0001) %MON dynstat_salt_del2            =   2.6919459165347E-05
(PID.TID 0000.0001) %MON dynstat_sst_max              =   3.2663546502429E+01
(PID.TID 0000.0001) %MON dynstat_sst_min              =  -1.9524962456815E+00
(PID.TID 0000.0001) %MON dynstat_sst_mean             =   1.8508134538139E+01
(PID.TID 0000.0001) %MON dynstat_sst_sd               =   1.0095690769830E+01
(PID.TID 0000.0001) %MON dynstat_sst_del2             =   8.8112921884335E-04
(PID.TID 0000.0001) %MON dynstat_sss_max              =   3.9666490563725E+01
(PID.TID 0000.0001) %MON dynstat_sss_min              =   1.8893315277467E+01
(PID.TID 0000.0001) %MON dynstat_sss_mean             =   3.4713939318950E+01
(PID.TID 0000.0001) %MON dynstat_sss_sd               =   1.1591706278614E+00
(PID.TID 0000.0001) %MON dynstat_sss_del2             =   3.7991200435063E-04
(PID.TID 0000.0001) %MON forcing_qnet_max             =   4.3987068433081E+03
(PID.TID 0000.0001) %MON forcing_qnet_min             =  -1.3002237719592E+03
(PID.TID 0000.0001) %MON forcing_qnet_mean            =  -3.5030650269211E+01
(PID.TID 0000.0001) %MON forcing_qnet_sd              =   2.3381872327864E+02
(PID.TID 0000.0001) %MON forcing_qnet_del2            =   8.7345971042729E-01
(PID.TID 0000.0001) %MON forcing_qsw_max              =   0.0000000000000E+00
(PID.TID 0000.0001) %MON forcing_qsw_min              =  -1.0890187136482E+02
(PID.TID 0000.0001) %MON forcing_qsw_mean             =  -2.2842766815369E+01
(PID.TID 0000.0001) %MON forcing_qsw_sd               =   3.0523460570046E+01
(PID.TID 0000.0001) %MON forcing_qsw_del2             =   2.1113024777149E-02
(PID.TID 0000.0001) %MON forcing_empmr_max            =   3.8288033101708E-03
(PID.TID 0000.0001) %MON forcing_empmr_min            =  -4.4457681477070E-02
(PID.TID 0000.0001) %MON forcing_empmr_mean           =   5.9131626568780E-05
(PID.TID 0000.0001) %MON forcing_empmr_sd             =   4.7319917646340E-04
(PID.TID 0000.0001) %MON forcing_empmr_del2           =   2.2509431157847E-06
(PID.TID 0000.0001) %MON forcing_fu_max               =   1.3517518043518E+00
(PID.TID 0000.0001) %MON forcing_fu_min               =  -1.3063180446625E+00
(PID.TID 0000.0001) %MON forcing_fu_mean              =   1.0689438515900E-02
(PID.TID 0000.0001) %MON forcing_fu_sd                =   1.2384210297174E-01
(PID.TID 0000.0001) %MON forcing_fu_del2              =   1.7681243252493E-04
(PID.TID 0000.0001) %MON forcing_fv_max               =   8.4150615334511E-01
(PID.TID 0000.0001) %MON forcing_fv_min               =  -7.7717301249503E-01
(PID.TID 0000.0001) %MON forcing_fv_mean              =  -6.4118751892273E-03
(PID.TID 0000.0001) %MON forcing_fv_sd                =   1.1806014427944E-01
(PID.TID 0000.0001) %MON forcing_fv_del2              =   1.4881017866966E-04
(PID.TID 0000.0001) %MON trAdv_CFL_u_max              =   2.4619728719111E-02
(PID.TID 0000.0001) %MON trAdv_CFL_v_max              =   2.4583960472693E-02
(PID.TID 0000.0001) %MON trAdv_CFL_w_max              =   8.2984633878931E-02
(PID.TID 0000.0001) %MON advcfl_uvel_max              =   2.3094590347669E-02
(PID.TID 0000.0001) %MON advcfl_vvel_max              =   2.1448502355837E-02
(PID.TID 0000.0001) %MON advcfl_wvel_max              =   8.3496705665398E-02
(PID.TID 0000.0001) %MON advcfl_W_hf_max              =   8.3831046901087E-02
(PID.TID 0000.0001) %MON pe_b_mean                    =   7.1154248239018E-04
(PID.TID 0000.0001) %MON ke_max                       =   6.6323705558752E-01
(PID.TID 0000.0001) %MON ke_mean                      =   5.0689738693527E-04
(PID.TID 0000.0001) %MON ke_vol                       =   1.3349973000179E+18
(PID.TID 0000.0001) %MON vort_r_min                   =  -4.8315233833052E-05
(PID.TID 0000.0001) %MON vort_r_max                   =   3.4251293150473E-05
(PID.TID 0000.0001) %MON vort_a_mean                  =  -1.9727864647440E-05
(PID.TID 0000.0001) %MON vort_a_sd                    =   7.4543398973889E-05
(PID.TID 0000.0001) %MON vort_p_mean                  =  -2.1760537929995E-05
(PID.TID 0000.0001) %MON vort_p_sd                    =   9.7241239778944E-05
(PID.TID 0000.0001) %MON surfExpan_theta_mean         =  -2.0560246489272E-06
(PID.TID 0000.0001) %MON surfExpan_salt_mean          =  -2.9546966192013E-07
(PID.TID 0000.0001) // =======================================================
(PID.TID 0000.0001) // End MONITOR dynamic field statistics
(PID.TID 0000.0001) // =======================================================
(PID.TID 0000.0001) // =======================================================
(PID.TID 0000.0001) // Begin MONITOR SEAICE statistics
(PID.TID 0000.0001) // =======================================================
(PID.TID 0000.0001) %MON seaice_tsnumber              =                     8
(PID.TID 0000.0001) %MON seaice_time_sec              =   7.2000000000000E+03
(PID.TID 0000.0001) %MON seaice_uice_max              =   8.3461727126878E-01
(PID.TID 0000.0001) %MON seaice_uice_min              =  -7.6123726073416E-01
(PID.TID 0000.0001) %MON seaice_uice_mean             =   1.4602738697846E-03
(PID.TID 0000.0001) %MON seaice_uice_sd               =   1.4777894797938E-01
(PID.TID 0000.0001) %MON seaice_uice_del2             =   2.2502271372224E-04
(PID.TID 0000.0001) %MON seaice_vice_max              =   8.6626128860108E-01
(PID.TID 0000.0001) %MON seaice_vice_min              =  -9.2646617808065E-01
(PID.TID 0000.0001) %MON seaice_vice_mean             =  -2.1055323244541E-03
(PID.TID 0000.0001) %MON seaice_vice_sd               =   1.3197896109930E-01
(PID.TID 0000.0001) %MON seaice_vice_del2             =   2.0911051867400E-04
(PID.TID 0000.0001) %MON seaice_area_max              =   1.0000000000000E+00
(PID.TID 0000.0001) %MON seaice_area_min              =   0.0000000000000E+00
(PID.TID 0000.0001) %MON seaice_area_mean             =   7.2952373521391E-02
(PID.TID 0000.0001) %MON seaice_area_sd               =   2.3786341168832E-01
(PID.TID 0000.0001) %MON seaice_area_del2             =   4.6428634359923E-04
(PID.TID 0000.0001) %MON seaice_heff_max              =   2.5181812925574E+01
(PID.TID 0000.0001) %MON seaice_heff_min              =   0.0000000000000E+00
(PID.TID 0000.0001) %MON seaice_heff_mean             =   2.1601804093779E-01
(PID.TID 0000.0001) %MON seaice_heff_sd               =   1.0610751893152E+00
(PID.TID 0000.0001) %MON seaice_heff_del2             =   3.8010353443783E-03
(PID.TID 0000.0001) %MON seaice_hsnow_max             =   8.3170512819218E+00
(PID.TID 0000.0001) %MON seaice_hsnow_min             =   0.0000000000000E+00
(PID.TID 0000.0001) %MON seaice_hsnow_mean            =   2.4674600347308E-02
(PID.TID 0000.0001) %MON seaice_hsnow_sd              =   1.5743129756626E-01
(PID.TID 0000.0001) %MON seaice_hsnow_del2            =   1.2161666550710E-03
(PID.TID 0000.0001) // =======================================================
(PID.TID 0000.0001) // End MONITOR SEAICE statistics
(PID.TID 0000.0001) // =======================================================
 Computing Diagnostic #     86  oceQnet      Counter:       4   Parms: SM      U1      
 Computing Diagnostic #     87  oceQsw       Counter:       4   Parms: SM      U1      
 Computing Diagnostic #     84  oceFWflx     Counter:       4   Parms: SM      U1      
 Computing Diagnostic #     85  oceSflux     Counter:       4   Parms: SM      U1      
 Computing Diagnostic #     80  oceTAUX      Counter:       4   Parms: UU      U1      
           Vector  Mate for  oceTAUX      Diagnostic #     81  oceTAUY  exists 
 Computing Diagnostic #     81  oceTAUY      Counter:       4   Parms: VV      U1      
           Vector  Mate for  oceTAUY      Diagnostic #     80  oceTAUX  exists 
 Computing Diagnostic #     26  THETA        Counter:       4   Parms: SMR     MR      
 Computing Diagnostic #     27  SALT         Counter:       4   Parms: SMR     MR      
 Computing Diagnostic #     30  UVEL         Counter:       4   Parms: UUR     MR      
           Vector  Mate for  UVEL         Diagnostic #     31  VVEL     exists 
 Computing Diagnostic #     31  VVEL         Counter:       4   Parms: VVR     MR      
           Vector  Mate for  VVEL         Diagnostic #     30  UVEL     exists 
 Computing Diagnostic #    214  SIarea       Counter:       4   Parms: SM      M1      
 Computing Diagnostic #    217  SIheff       Counter:       4   Parms: SM      M1      
 Computing Diagnostic #    219  SIhsnow      Counter:       4   Parms: SM      M1      
 Computing Diagnostic #     83  sIceLoad     Counter:       4   Parms: SM      U1      
 Computing Diagnostic #    223  SIuice       Counter:       4   Parms: UU      M1      
           Vector  Mate for  SIuice       Diagnostic #    224  SIvice   exists 
 Computing Diagnostic #    224  SIvice       Counter:       4   Parms: VV      M1      
           Vector  Mate for  SIvice       Diagnostic #    223  SIuice   exists 
 Computing Diagnostic #    225  SItaux       Counter:       4   Parms: UU      U1      
           Vector  Mate for  SItaux       Diagnostic #    226  SItauy   exists 
 Computing Diagnostic #    226  SItauy       Counter:       4   Parms: VV      U1      
           Vector  Mate for  SItauy       Diagnostic #    225  SItaux   exists 
 Computing Diagnostic #    285  SIareaN      Counter:       4   Parms: SM      MX      
 Computing Diagnostic #    284  SIheffN      Counter:       4   Parms: SM      MX      
 Computing Diagnostic #    286  SIhsnowN     Counter:       4   Parms: SM      MX      
 Compute Stats, Diag. #    214  SIarea    vol(   0 ): 3.580E+14  Parms: SM      M1      
 Compute Stats, Diag. #    217  SIheff    vol(   0 ): 3.580E+14  Parms: SM      M1      
 Compute Stats, Diag. #    219  SIhsnow   vol(   0 ): 3.580E+14  Parms: SM      M1      
 Compute Stats, Diag. #     83  sIceLoad  vol(   0 ): 3.580E+14  Parms: SM      U1      
 Compute Stats, Diag. #    223  SIuice    vol(   0 ): 3.513E+14  Parms: UU      M1      
 Compute Stats, Diag. #    224  SIvice    vol(   0 ): 3.508E+14  Parms: VV      M1      
 Compute Stats, Diag. #    225  SItaux    vol(   0 ): 3.513E+14  Parms: UU      U1      
 Compute Stats, Diag. #    226  SItauy    vol(   0 ): 3.508E+14  Parms: VV      U1      
 SEAICE_LSR: Residual Initial ipass,Uice,Vice=    1  4.60727482E-02  4.91090558E-02
 SEAICE_LSR (ipass=   1) iters,dU,Resid=  1500  7.22104644E-09  2.84246939E-06
 SEAICE_LSR (ipass=   1) iters,dV,Resid=  1500  1.80859886E-07  5.41643637E-05
 SEAICE_LSR: Residual Initial ipass,Uice,Vice=    2  4.12529290E-02  4.49298940E-02
 SEAICE_LSR (ipass=   2) iters,dU,Resid=  1500  4.36609715E-09  8.91203473E-07
 SEAICE_LSR (ipass=   2) iters,dV,Resid=  1500  1.53423516E-07  5.10487486E-05
 cg2d: Sum(rhs),rhsMax =   5.42430690542511E+01  3.07017879887844E-01
 Compute Stats, Diag. #    214  SIarea    vol(   0 ): 3.580E+14  Parms: SM      M1      
 Compute Stats, Diag. #    217  SIheff    vol(   0 ): 3.580E+14  Parms: SM      M1      
 Compute Stats, Diag. #    219  SIhsnow   vol(   0 ): 3.580E+14  Parms: SM      M1      
 Compute Stats, Diag. #     83  sIceLoad  vol(   0 ): 3.580E+14  Parms: SM      U1      
 Compute Stats, Diag. #    223  SIuice    vol(   0 ): 3.513E+14  Parms: UU      M1      
 Compute Stats, Diag. #    224  SIvice    vol(   0 ): 3.508E+14  Parms: VV      M1      
 Compute Stats, Diag. #    225  SItaux    vol(   0 ): 3.513E+14  Parms: UU      U1      
 Compute Stats, Diag. #    226  SItauy    vol(   0 ): 3.508E+14  Parms: VV      U1      
 cg2d: Sum(rhs),rhsMax =   5.59182149520155E+01  3.04023393326645E-01
 Compute Stats, Diag. #    214  SIarea    vol(   0 ): 3.580E+14  Parms: SM      M1      
 Compute Stats, Diag. #    217  SIheff    vol(   0 ): 3.580E+14  Parms: SM      M1      
 Compute Stats, Diag. #    219  SIhsnow   vol(   0 ): 3.580E+14  Parms: SM      M1      
 Compute Stats, Diag. #     83  sIceLoad  vol(   0 ): 3.580E+14  Parms: SM      U1      
 Compute Stats, Diag. #    223  SIuice    vol(   0 ): 3.513E+14  Parms: UU      M1      
 Compute Stats, Diag. #    224  SIvice    vol(   0 ): 3.508E+14  Parms: VV      M1      
 Compute Stats, Diag. #    225  SItaux    vol(   0 ): 3.513E+14  Parms: UU      U1      
 Compute Stats, Diag. #    226  SItauy    vol(   0 ): 3.508E+14  Parms: VV      U1      
 cg2d: Sum(rhs),rhsMax =   5.75719432468284E+01  3.00987335099216E-01
 Compute Stats, Diag. #    214  SIarea    vol(   0 ): 3.580E+14  Parms: SM      M1      
 Compute Stats, Diag. #    217  SIheff    vol(   0 ): 3.580E+14  Parms: SM      M1      
 Compute Stats, Diag. #    219  SIhsnow   vol(   0 ): 3.580E+14  Parms: SM      M1      
 Compute Stats, Diag. #     83  sIceLoad  vol(   0 ): 3.580E+14  Parms: SM      U1      
 Compute Stats, Diag. #    223  SIuice    vol(   0 ): 3.513E+14  Parms: UU      M1      
 Compute Stats, Diag. #    224  SIvice    vol(   0 ): 3.508E+14  Parms: VV      M1      
 Compute Stats, Diag. #    225  SItaux    vol(   0 ): 3.513E+14  Parms: UU      U1      
 Compute Stats, Diag. #    226  SItauy    vol(   0 ): 3.508E+14  Parms: VV      U1      
 cg2d: Sum(rhs),rhsMax =   5.91859373615732E+01  2.98174909807062E-01
 Computing Diagnostic #     86  oceQnet      Counter:       4   Parms: SM      U1      
 Computing Diagnostic #     87  oceQsw       Counter:       4   Parms: SM      U1      
 Computing Diagnostic #     84  oceFWflx     Counter:       4   Parms: SM      U1      
 Computing Diagnostic #     85  oceSflux     Counter:       4   Parms: SM      U1      
 Computing Diagnostic #     80  oceTAUX      Counter:       4   Parms: UU      U1      
           Vector  Mate for  oceTAUX      Diagnostic #     81  oceTAUY  exists 
 Computing Diagnostic #     81  oceTAUY      Counter:       4   Parms: VV      U1      
           Vector  Mate for  oceTAUY      Diagnostic #     80  oceTAUX  exists 
 Computing Diagnostic #     26  THETA        Counter:       4   Parms: SMR     MR      
 Computing Diagnostic #     27  SALT         Counter:       4   Parms: SMR     MR      
 Computing Diagnostic #     30  UVEL         Counter:       4   Parms: UUR     MR      
           Vector  Mate for  UVEL         Diagnostic #     31  VVEL     exists 
 Computing Diagnostic #     31  VVEL         Counter:       4   Parms: VVR     MR      
           Vector  Mate for  VVEL         Diagnostic #     30  UVEL     exists 
 Computing Diagnostic #    214  SIarea       Counter:       4   Parms: SM      M1      
 Computing Diagnostic #    217  SIheff       Counter:       4   Parms: SM      M1      
 Computing Diagnostic #    219  SIhsnow      Counter:       4   Parms: SM      M1      
 Computing Diagnostic #     83  sIceLoad     Counter:       4   Parms: SM      U1      
 Computing Diagnostic #    223  SIuice       Counter:       4   Parms: UU      M1      
           Vector  Mate for  SIuice       Diagnostic #    224  SIvice   exists 
 Computing Diagnostic #    224  SIvice       Counter:       4   Parms: VV      M1      
           Vector  Mate for  SIvice       Diagnostic #    223  SIuice   exists 
 Computing Diagnostic #    225  SItaux       Counter:       4   Parms: UU      U1      
           Vector  Mate for  SItaux       Diagnostic #    226  SItauy   exists 
 Computing Diagnostic #    226  SItauy       Counter:       4   Parms: VV      U1      
           Vector  Mate for  SItauy       Diagnostic #    225  SItaux   exists 
 Computing Diagnostic #    285  SIareaN      Counter:       4   Parms: SM      MX      
 Computing Diagnostic #    284  SIheffN      Counter:       4   Parms: SM      MX      
 Computing Diagnostic #    286  SIhsnowN     Counter:       4   Parms: SM      MX      
 Compute Stats, Diag. #    214  SIarea    vol(   0 ): 3.580E+14  Parms: SM      M1      
 Compute Stats, Diag. #    217  SIheff    vol(   0 ): 3.580E+14  Parms: SM      M1      
 Compute Stats, Diag. #    219  SIhsnow   vol(   0 ): 3.580E+14  Parms: SM      M1      
 Compute Stats, Diag. #     83  sIceLoad  vol(   0 ): 3.580E+14  Parms: SM      U1      
 Compute Stats, Diag. #    223  SIuice    vol(   0 ): 3.513E+14  Parms: UU      M1      
 Compute Stats, Diag. #    224  SIvice    vol(   0 ): 3.508E+14  Parms: VV      M1      
 Compute Stats, Diag. #    225  SItaux    vol(   0 ): 3.513E+14  Parms: UU      U1      
 Compute Stats, Diag. #    226  SItauy    vol(   0 ): 3.508E+14  Parms: VV      U1      
 cg2d: Sum(rhs),rhsMax =   6.07637350268074E+01  2.95743210094961E-01
 Compute Stats, Diag. #    214  SIarea    vol(   0 ): 3.580E+14  Parms: SM      M1      
 Compute Stats, Diag. #    217  SIheff    vol(   0 ): 3.580E+14  Parms: SM      M1      
 Compute Stats, Diag. #    219  SIhsnow   vol(   0 ): 3.580E+14  Parms: SM      M1      
 Compute Stats, Diag. #     83  sIceLoad  vol(   0 ): 3.580E+14  Parms: SM      U1      
 Compute Stats, Diag. #    223  SIuice    vol(   0 ): 3.513E+14  Parms: UU      M1      
 Compute Stats, Diag. #    224  SIvice    vol(   0 ): 3.508E+14  Parms: VV      M1      
 Compute Stats, Diag. #    225  SItaux    vol(   0 ): 3.513E+14  Parms: UU      U1      
 Compute Stats, Diag. #    226  SItauy    vol(   0 ): 3.508E+14  Parms: VV      U1      
 cg2d: Sum(rhs),rhsMax =   6.22965027773950E+01  2.93756101742583E-01
 Compute Stats, Diag. #    214  SIarea    vol(   0 ): 3.580E+14  Parms: SM      M1      
 Compute Stats, Diag. #    217  SIheff    vol(   0 ): 3.580E+14  Parms: SM      M1      
 Compute Stats, Diag. #    219  SIhsnow   vol(   0 ): 3.580E+14  Parms: SM      M1      
 Compute Stats, Diag. #     83  sIceLoad  vol(   0 ): 3.580E+14  Parms: SM      U1      
 Compute Stats, Diag. #    223  SIuice    vol(   0 ): 3.513E+14  Parms: UU      M1      
 Compute Stats, Diag. #    224  SIvice    vol(   0 ): 3.508E+14  Parms: VV      M1      
 Compute Stats, Diag. #    225  SItaux    vol(   0 ): 3.513E+14  Parms: UU      U1      
 Compute Stats, Diag. #    226  SItauy    vol(   0 ): 3.508E+14  Parms: VV      U1      
 cg2d: Sum(rhs),rhsMax =   6.37840467827782E+01  2.92202135831246E-01
 Compute Stats, Diag. #    214  SIarea    vol(   0 ): 3.580E+14  Parms: SM      M1      
 Compute Stats, Diag. #    217  SIheff    vol(   0 ): 3.580E+14  Parms: SM      M1      
 Compute Stats, Diag. #    219  SIhsnow   vol(   0 ): 3.580E+14  Parms: SM      M1      
 Compute Stats, Diag. #     83  sIceLoad  vol(   0 ): 3.580E+14  Parms: SM      U1      
 Compute Stats, Diag. #    223  SIuice    vol(   0 ): 3.513E+14  Parms: UU      M1      
 Compute Stats, Diag. #    224  SIvice    vol(   0 ): 3.508E+14  Parms: VV      M1      
 Compute Stats, Diag. #    225  SItaux    vol(   0 ): 3.513E+14  Parms: UU      U1      
 Compute Stats, Diag. #    226  SItauy    vol(   0 ): 3.508E+14  Parms: VV      U1      
 cg2d: Sum(rhs),rhsMax =   6.52238445642993E+01  2.91027488398159E-01
(PID.TID 0000.0001)      cg2d_init_res =   8.05624720602373E-01
(PID.TID 0000.0001)      cg2d_iters(min,last) =      -1      34
(PID.TID 0000.0001)      cg2d_last_res =   2.38932312668059E-05
(PID.TID 0000.0001) // =======================================================
(PID.TID 0000.0001) // Begin MONITOR dynamic field statistics
(PID.TID 0000.0001) // =======================================================
(PID.TID 0000.0001) %MON time_tsnumber                =                    16
(PID.TID 0000.0001) %MON time_secondsf                =   1.4400000000000E+04
(PID.TID 0000.0001) %MON dynstat_eta_max              =   1.1865334625258E+00
(PID.TID 0000.0001) %MON dynstat_eta_min              =  -4.2596772760208E+00
(PID.TID 0000.0001) %MON dynstat_eta_mean             =  -2.0632385147066E-03
(PID.TID 0000.0001) %MON dynstat_eta_sd               =   7.2635673997315E-01
(PID.TID 0000.0001) %MON dynstat_eta_del2             =   1.0804588753167E-04
(PID.TID 0000.0001) %MON dynstat_uvel_max             =   9.0832594706332E-01
(PID.TID 0000.0001) %MON dynstat_uvel_min             =  -1.2632908125341E+00
(PID.TID 0000.0001) %MON dynstat_uvel_mean            =   1.9611114395962E-03
(PID.TID 0000.0001) %MON dynstat_uvel_sd              =   2.1941623500791E-02
(PID.TID 0000.0001) %MON dynstat_uvel_del2            =   1.5520763822414E-05
(PID.TID 0000.0001) %MON dynstat_vvel_max             =   1.0750552051458E+00
(PID.TID 0000.0001) %MON dynstat_vvel_min             =  -1.1121040943486E+00
(PID.TID 0000.0001) %MON dynstat_vvel_mean            =   1.2015854910677E-03
(PID.TID 0000.0001) %MON dynstat_vvel_sd              =   2.3764697961703E-02
(PID.TID 0000.0001) %MON dynstat_vvel_del2            =   1.6832303570829E-05
(PID.TID 0000.0001) %MON dynstat_wvel_max             =   2.3549058140722E-03
(PID.TID 0000.0001) %MON dynstat_wvel_min             =  -2.6458921281105E-03
(PID.TID 0000.0001) %MON dynstat_wvel_mean            =  -4.8085878496171E-09
(PID.TID 0000.0001) %MON dynstat_wvel_sd              =   3.2139088791533E-05
(PID.TID 0000.0001) %MON dynstat_wvel_del2            =   4.0319138519320E-08
(PID.TID 0000.0001) %MON dynstat_theta_max            =   3.2660533231917E+01
(PID.TID 0000.0001) %MON dynstat_theta_min            =  -2.0421808236152E+00
(PID.TID 0000.0001) %MON dynstat_theta_mean           =   3.5906266689419E+00
(PID.TID 0000.0001) %MON dynstat_theta_sd             =   4.4367193395190E+00
(PID.TID 0000.0001) %MON dynstat_theta_del2           =   1.0902748016994E-04
(PID.TID 0000.0001) %MON dynstat_salt_max             =   4.0711523198067E+01
(PID.TID 0000.0001) %MON dynstat_salt_min             =   1.8872398631196E+01
(PID.TID 0000.0001) %MON dynstat_salt_mean            =   3.4725728921115E+01
(PID.TID 0000.0001) %MON dynstat_salt_sd              =   3.7757910023474E-01
(PID.TID 0000.0001) %MON dynstat_salt_del2            =   2.6852447041081E-05
(PID.TID 0000.0001) %MON dynstat_sst_max              =   3.2660533231917E+01
(PID.TID 0000.0001) %MON dynstat_sst_min              =  -1.9438213830455E+00
(PID.TID 0000.0001) %MON dynstat_sst_mean             =   1.8509624724554E+01
(PID.TID 0000.0001) %MON dynstat_sst_sd               =   1.0098784941057E+01
(PID.TID 0000.0001) %MON dynstat_sst_del2             =   8.7717358573584E-04
(PID.TID 0000.0001) %MON dynstat_sss_max              =   3.9618156544492E+01
(PID.TID 0000.0001) %MON dynstat_sss_min              =   1.8872398631196E+01
(PID.TID 0000.0001) %MON dynstat_sss_mean             =   3.4699315937729E+01
(PID.TID 0000.0001) %MON dynstat_sss_sd               =   1.1428398521706E+00
(PID.TID 0000.0001) %MON dynstat_sss_del2             =   3.8624098120611E-04
(PID.TID 0000.0001) %MON forcing_qnet_max             =   1.6429045275596E+03
(PID.TID 0000.0001) %MON forcing_qnet_min             =  -1.1052823158085E+03
(PID.TID 0000.0001) %MON forcing_qnet_mean            =  -3.3268647639390E+01
(PID.TID 0000.0001) %MON forcing_qnet_sd              =   2.2557808123861E+02
(PID.TID 0000.0001) %MON forcing_qnet_del2            =   5.1562110486562E-01
(PID.TID 0000.0001) %MON forcing_qsw_max              =   0.0000000000000E+00
(PID.TID 0000.0001) %MON forcing_qsw_min              =  -1.1091235064695E+02
(PID.TID 0000.0001) %MON forcing_qsw_mean             =  -2.2070372258640E+01
(PID.TID 0000.0001) %MON forcing_qsw_sd               =   3.0511927368807E+01
(PID.TID 0000.0001) %MON forcing_qsw_del2             =   2.2487587758742E-02
(PID.TID 0000.0001) %MON forcing_empmr_max            =   4.6658515930176E-03
(PID.TID 0000.0001) %MON forcing_empmr_min            =  -3.8744959980249E-02
(PID.TID 0000.0001) %MON forcing_empmr_mean           =   5.2073576559143E-05
(PID.TID 0000.0001) %MON forcing_empmr_sd             =   3.9309235496703E-04
(PID.TID 0000.0001) %MON forcing_empmr_del2           =   1.9725192013029E-06
(PID.TID 0000.0001) %MON forcing_fu_max               =   1.2756615877151E+00
(PID.TID 0000.0001) %MON forcing_fu_min               =  -1.1860923171043E+00
(PID.TID 0000.0001) %MON forcing_fu_mean              =   9.8541325375748E-03
(PID.TID 0000.0001) %MON forcing_fu_sd                =   1.1616089537231E-01
(PID.TID 0000.0001) %MON forcing_fu_del2              =   1.6418032178924E-04
(PID.TID 0000.0001) %MON forcing_fv_max               =   7.0150965452194E-01
(PID.TID 0000.0001) %MON forcing_fv_min               =  -8.2137683667362E-01
(PID.TID 0000.0001) %MON forcing_fv_mean              =  -5.5312479209475E-03
(PID.TID 0000.0001) %MON forcing_fv_sd                =   1.1214999872211E-01
(PID.TID 0000.0001) %MON forcing_fv_del2              =   1.4056415738756E-04
(PID.TID 0000.0001) %MON trAdv_CFL_u_max              =   2.6407551804637E-02
(PID.TID 0000.0001) %MON trAdv_CFL_v_max              =   2.2341334006550E-02
(PID.TID 0000.0001) %MON trAdv_CFL_w_max              =   7.0809259709080E-02
(PID.TID 0000.0001) %MON advcfl_uvel_max              =   2.4761037924377E-02
(PID.TID 0000.0001) %MON advcfl_vvel_max              =   2.4371115992571E-02
(PID.TID 0000.0001) %MON advcfl_wvel_max              =   7.1370204890874E-02
(PID.TID 0000.0001) %MON advcfl_W_hf_max              =   7.1655668954932E-02
(PID.TID 0000.0001) %MON pe_b_mean                    =   6.9400397638853E-04
(PID.TID 0000.0001) %MON ke_max                       =   7.3891593922484E-01
(PID.TID 0000.0001) %MON ke_mean                      =   5.0702199957209E-04
(PID.TID 0000.0001) %MON ke_vol                       =   1.3349971545772E+18
(PID.TID 0000.0001) %MON vort_r_min                   =  -5.4169891989544E-05
(PID.TID 0000.0001) %MON vort_r_max                   =   4.1912928190544E-05
(PID.TID 0000.0001) %MON vort_a_mean                  =  -1.9727864647440E-05
(PID.TID 0000.0001) %MON vort_a_sd                    =   7.4543382701147E-05
(PID.TID 0000.0001) %MON vort_p_mean                  =  -2.1760540966104E-05
(PID.TID 0000.0001) %MON vort_p_sd                    =   9.7242459722989E-05
(PID.TID 0000.0001) %MON surfExpan_theta_mean         =  -2.4543828147275E-06
(PID.TID 0000.0001) %MON surfExpan_salt_mean          =  -3.5978316553054E-07
(PID.TID 0000.0001) // =======================================================
(PID.TID 0000.0001) // End MONITOR dynamic field statistics
(PID.TID 0000.0001) // =======================================================
(PID.TID 0000.0001) // =======================================================
(PID.TID 0000.0001) // Begin MONITOR SEAICE statistics
(PID.TID 0000.0001) // =======================================================
(PID.TID 0000.0001) %MON seaice_tsnumber              =                    16
(PID.TID 0000.0001) %MON seaice_time_sec              =   1.4400000000000E+04
(PID.TID 0000.0001) %MON seaice_uice_max              =   8.5483551046916E-01
(PID.TID 0000.0001) %MON seaice_uice_min              =  -8.6109575008364E-01
(PID.TID 0000.0001) %MON seaice_uice_mean             =  -2.5058264180065E-04
(PID.TID 0000.0001) %MON seaice_uice_sd               =   1.5217718323112E-01
(PID.TID 0000.0001) %MON seaice_uice_del2             =   2.1923671906475E-04
(PID.TID 0000.0001) %MON seaice_vice_max              =   8.1030318549372E-01
(PID.TID 0000.0001) %MON seaice_vice_min              =  -9.2128876305409E-01
(PID.TID 0000.0001) %MON seaice_vice_mean             =  -3.2369828079515E-03
(PID.TID 0000.0001) %MON seaice_vice_sd               =   1.3161202650085E-01
(PID.TID 0000.0001) %MON seaice_vice_del2             =   1.9405765627726E-04
(PID.TID 0000.0001) %MON seaice_area_max              =   1.0000000000000E+00
(PID.TID 0000.0001) %MON seaice_area_min              =   0.0000000000000E+00
(PID.TID 0000.0001) %MON seaice_area_mean             =   7.2582471725251E-02
(PID.TID 0000.0001) %MON seaice_area_sd               =   2.3773682674987E-01
(PID.TID 0000.0001) %MON seaice_area_del2             =   4.4796463606088E-04
(PID.TID 0000.0001) %MON seaice_heff_max              =   2.5143961582936E+01
(PID.TID 0000.0001) %MON seaice_heff_min              =   0.0000000000000E+00
(PID.TID 0000.0001) %MON seaice_heff_mean             =   2.1639294137431E-01
(PID.TID 0000.0001) %MON seaice_heff_sd               =   1.0623549277898E+00
(PID.TID 0000.0001) %MON seaice_heff_del2             =   3.6673132251742E-03
(PID.TID 0000.0001) %MON seaice_hsnow_max             =   8.3045525001142E+00
(PID.TID 0000.0001) %MON seaice_hsnow_min             =   0.0000000000000E+00
(PID.TID 0000.0001) %MON seaice_hsnow_mean            =   2.4663576671705E-02
(PID.TID 0000.0001) %MON seaice_hsnow_sd              =   1.5655653735640E-01
(PID.TID 0000.0001) %MON seaice_hsnow_del2            =   1.1721658127155E-03
(PID.TID 0000.0001) // =======================================================
(PID.TID 0000.0001) // End MONITOR SEAICE statistics
(PID.TID 0000.0001) // =======================================================
 Computing Diagnostic #     86  oceQnet      Counter:       4   Parms: SM      U1      
 Computing Diagnostic #     87  oceQsw       Counter:       4   Parms: SM      U1      
 Computing Diagnostic #     84  oceFWflx     Counter:       4   Parms: SM      U1      
 Computing Diagnostic #     85  oceSflux     Counter:       4   Parms: SM      U1      
 Computing Diagnostic #     80  oceTAUX      Counter:       4   Parms: UU      U1      
           Vector  Mate for  oceTAUX      Diagnostic #     81  oceTAUY  exists 
 Computing Diagnostic #     81  oceTAUY      Counter:       4   Parms: VV      U1      
           Vector  Mate for  oceTAUY      Diagnostic #     80  oceTAUX  exists 
 Computing Diagnostic #     26  THETA        Counter:       4   Parms: SMR     MR      
 Computing Diagnostic #     27  SALT         Counter:       4   Parms: SMR     MR      
 Computing Diagnostic #     30  UVEL         Counter:       4   Parms: UUR     MR      
           Vector  Mate for  UVEL         Diagnostic #     31  VVEL     exists 
 Computing Diagnostic #     31  VVEL         Counter:       4   Parms: VVR     MR      
           Vector  Mate for  VVEL         Diagnostic #     30  UVEL     exists 
 Computing Diagnostic #    214  SIarea       Counter:       4   Parms: SM      M1      
 Computing Diagnostic #    217  SIheff       Counter:       4   Parms: SM      M1      
 Computing Diagnostic #    219  SIhsnow      Counter:       4   Parms: SM      M1      
 Computing Diagnostic #     83  sIceLoad     Counter:       4   Parms: SM      U1      
 Computing Diagnostic #    223  SIuice       Counter:       4   Parms: UU      M1      
           Vector  Mate for  SIuice       Diagnostic #    224  SIvice   exists 
 Computing Diagnostic #    224  SIvice       Counter:       4   Parms: VV      M1      
           Vector  Mate for  SIvice       Diagnostic #    223  SIuice   exists 
 Computing Diagnostic #    225  SItaux       Counter:       4   Parms: UU      U1      
           Vector  Mate for  SItaux       Diagnostic #    226  SItauy   exists 
 Computing Diagnostic #    226  SItauy       Counter:       4   Parms: VV      U1      
           Vector  Mate for  SItauy       Diagnostic #    225  SItaux   exists 
 Computing Diagnostic #    285  SIareaN      Counter:       4   Parms: SM      MX      
 Computing Diagnostic #    284  SIheffN      Counter:       4   Parms: SM      MX      
 Computing Diagnostic #    286  SIhsnowN     Counter:       4   Parms: SM      MX      
 Compute Stats, Diag. #    214  SIarea    vol(   0 ): 3.580E+14  Parms: SM      M1      
 Compute Stats, Diag. #    217  SIheff    vol(   0 ): 3.580E+14  Parms: SM      M1      
 Compute Stats, Diag. #    219  SIhsnow   vol(   0 ): 3.580E+14  Parms: SM      M1      
 Compute Stats, Diag. #     83  sIceLoad  vol(   0 ): 3.580E+14  Parms: SM      U1      
 Compute Stats, Diag. #    223  SIuice    vol(   0 ): 3.513E+14  Parms: UU      M1      
 Compute Stats, Diag. #    224  SIvice    vol(   0 ): 3.508E+14  Parms: VV      M1      
 Compute Stats, Diag. #    225  SItaux    vol(   0 ): 3.513E+14  Parms: UU      U1      
 Compute Stats, Diag. #    226  SItauy    vol(   0 ): 3.508E+14  Parms: VV      U1      
 SEAICE_LSR: Residual Initial ipass,Uice,Vice=    1  4.06719845E-02  3.82093050E-02
 SEAICE_LSR (ipass=   1) iters,dU,Resid=  1500  4.27870941E-08  3.82066351E-05
 SEAICE_LSR (ipass=   1) iters,dV,Resid=  1500  5.25024897E-08  4.50884014E-05
 SEAICE_LSR: Residual Initial ipass,Uice,Vice=    2  3.49994243E-02  3.33907444E-02
 SEAICE_LSR (ipass=   2) iters,dU,Resid=  1500  3.87347527E-08  3.46785990E-05
 SEAICE_LSR (ipass=   2) iters,dV,Resid=  1500  2.89120854E-08  2.46806665E-05
 cg2d: Sum(rhs),rhsMax =   6.66142950706844E+01  2.90145816485273E-01
 Compute Stats, Diag. #    214  SIarea    vol(   0 ): 3.580E+14  Parms: SM      M1      
 Compute Stats, Diag. #    217  SIheff    vol(   0 ): 3.580E+14  Parms: SM      M1      
 Compute Stats, Diag. #    219  SIhsnow   vol(   0 ): 3.580E+14  Parms: SM      M1      
 Compute Stats, Diag. #     83  sIceLoad  vol(   0 ): 3.580E+14  Parms: SM      U1      
 Compute Stats, Diag. #    223  SIuice    vol(   0 ): 3.513E+14  Parms: UU      M1      
 Compute Stats, Diag. #    224  SIvice    vol(   0 ): 3.508E+14  Parms: VV      M1      
 Compute Stats, Diag. #    225  SItaux    vol(   0 ): 3.513E+14  Parms: UU      U1      
 Compute Stats, Diag. #    226  SItauy    vol(   0 ): 3.508E+14  Parms: VV      U1      
 cg2d: Sum(rhs),rhsMax =   6.79602460753584E+01  2.89465968734299E-01
 Compute Stats, Diag. #    214  SIarea    vol(   0 ): 3.580E+14  Parms: SM      M1      
 Compute Stats, Diag. #    217  SIheff    vol(   0 ): 3.580E+14  Parms: SM      M1      
 Compute Stats, Diag. #    219  SIhsnow   vol(   0 ): 3.580E+14  Parms: SM      M1      
 Compute Stats, Diag. #     83  sIceLoad  vol(   0 ): 3.580E+14  Parms: SM      U1      
 Compute Stats, Diag. #    223  SIuice    vol(   0 ): 3.513E+14  Parms: UU      M1      
 Compute Stats, Diag. #    224  SIvice    vol(   0 ): 3.508E+14  Parms: VV      M1      
 Compute Stats, Diag. #    225  SItaux    vol(   0 ): 3.513E+14  Parms: UU      U1      
 Compute Stats, Diag. #    226  SItauy    vol(   0 ): 3.508E+14  Parms: VV      U1      
 cg2d: Sum(rhs),rhsMax =   6.92576668064525E+01  2.88911677857908E-01
 Compute Stats, Diag. #    214  SIarea    vol(   0 ): 3.580E+14  Parms: SM      M1      
 Compute Stats, Diag. #    217  SIheff    vol(   0 ): 3.580E+14  Parms: SM      M1      
 Compute Stats, Diag. #    219  SIhsnow   vol(   0 ): 3.580E+14  Parms: SM      M1      
 Compute Stats, Diag. #     83  sIceLoad  vol(   0 ): 3.580E+14  Parms: SM      U1      
 Compute Stats, Diag. #    223  SIuice    vol(   0 ): 3.513E+14  Parms: UU      M1      
 Compute Stats, Diag. #    224  SIvice    vol(   0 ): 3.508E+14  Parms: VV      M1      
 Compute Stats, Diag. #    225  SItaux    vol(   0 ): 3.513E+14  Parms: UU      U1      
 Compute Stats, Diag. #    226  SItauy    vol(   0 ): 3.508E+14  Parms: VV      U1      
 cg2d: Sum(rhs),rhsMax =   7.05101070130109E+01  2.88447495595398E-01
 Computing Diagnostic #     86  oceQnet      Counter:       4   Parms: SM      U1      
 Computing Diagnostic #     87  oceQsw       Counter:       4   Parms: SM      U1      
 Computing Diagnostic #     84  oceFWflx     Counter:       4   Parms: SM      U1      
 Computing Diagnostic #     85  oceSflux     Counter:       4   Parms: SM      U1      
 Computing Diagnostic #     80  oceTAUX      Counter:       4   Parms: UU      U1      
           Vector  Mate for  oceTAUX      Diagnostic #     81  oceTAUY  exists 
 Computing Diagnostic #     81  oceTAUY      Counter:       4   Parms: VV      U1      
           Vector  Mate for  oceTAUY      Diagnostic #     80  oceTAUX  exists 
 Computing Diagnostic #     26  THETA        Counter:       4   Parms: SMR     MR      
 Computing Diagnostic #     27  SALT         Counter:       4   Parms: SMR     MR      
 Computing Diagnostic #     30  UVEL         Counter:       4   Parms: UUR     MR      
           Vector  Mate for  UVEL         Diagnostic #     31  VVEL     exists 
 Computing Diagnostic #     31  VVEL         Counter:       4   Parms: VVR     MR      
           Vector  Mate for  VVEL         Diagnostic #     30  UVEL     exists 
 Computing Diagnostic #    214  SIarea       Counter:       4   Parms: SM      M1      
 Computing Diagnostic #    217  SIheff       Counter:       4   Parms: SM      M1      
 Computing Diagnostic #    219  SIhsnow      Counter:       4   Parms: SM      M1      
 Computing Diagnostic #     83  sIceLoad     Counter:       4   Parms: SM      U1      
 Computing Diagnostic #    223  SIuice       Counter:       4   Parms: UU      M1      
           Vector  Mate for  SIuice       Diagnostic #    224  SIvice   exists 
 Computing Diagnostic #    224  SIvice       Counter:       4   Parms: VV      M1      
           Vector  Mate for  SIvice       Diagnostic #    223  SIuice   exists 
 Computing Diagnostic #    225  SItaux       Counter:       4   Parms: UU      U1      
           Vector  Mate for  SItaux       Diagnostic #    226  SItauy   exists 
 Computing Diagnostic #    226  SItauy       Counter:       4   Parms: VV      U1      
           Vector  Mate for  SItauy       Diagnostic #    225  SItaux   exists 
 Computing Diagnostic #    285  SIareaN      Counter:       4   Parms: SM      MX      
 Computing Diagnostic #    284  SIheffN      Counter:       4   Parms: SM      MX      
 Computing Diagnostic #    286  SIhsnowN     Counter:       4   Parms: SM      MX      
 Compute Stats, Diag. #    214  SIarea    vol(   0 ): 3.580E+14  Parms: SM      M1      
 Compute Stats, Diag. #    217  SIheff    vol(   0 ): 3.580E+14  Parms: SM      M1      
 Compute Stats, Diag. #    219  SIhsnow   vol(   0 ): 3.580E+14  Parms: SM      M1      
 Compute Stats, Diag. #     83  sIceLoad  vol(   0 ): 3.580E+14  Parms: SM      U1      
 Compute Stats, Diag. #    223  SIuice    vol(   0 ): 3.513E+14  Parms: UU      M1      
 Compute Stats, Diag. #    224  SIvice    vol(   0 ): 3.508E+14  Parms: VV      M1      
 Compute Stats, Diag. #    225  SItaux    vol(   0 ): 3.513E+14  Parms: UU      U1      
 Compute Stats, Diag. #    226  SItauy    vol(   0 ): 3.508E+14  Parms: VV      U1      
 cg2d: Sum(rhs),rhsMax =   7.17134943739874E+01  2.88077898801087E-01
 Compute Stats, Diag. #    214  SIarea    vol(   0 ): 3.580E+14  Parms: SM      M1      
 Compute Stats, Diag. #    217  SIheff    vol(   0 ): 3.580E+14  Parms: SM      M1      
 Compute Stats, Diag. #    219  SIhsnow   vol(   0 ): 3.580E+14  Parms: SM      M1      
 Compute Stats, Diag. #     83  sIceLoad  vol(   0 ): 3.580E+14  Parms: SM      U1      
 Compute Stats, Diag. #    223  SIuice    vol(   0 ): 3.513E+14  Parms: UU      M1      
 Compute Stats, Diag. #    224  SIvice    vol(   0 ): 3.508E+14  Parms: VV      M1      
 Compute Stats, Diag. #    225  SItaux    vol(   0 ): 3.513E+14  Parms: UU      U1      
 Compute Stats, Diag. #    226  SItauy    vol(   0 ): 3.508E+14  Parms: VV      U1      
 cg2d: Sum(rhs),rhsMax =   7.28795406464486E+01  2.87854192169053E-01
 Compute Stats, Diag. #    214  SIarea    vol(   0 ): 3.580E+14  Parms: SM      M1      
 Compute Stats, Diag. #    217  SIheff    vol(   0 ): 3.580E+14  Parms: SM      M1      
 Compute Stats, Diag. #    219  SIhsnow   vol(   0 ): 3.580E+14  Parms: SM      M1      
 Compute Stats, Diag. #     83  sIceLoad  vol(   0 ): 3.580E+14  Parms: SM      U1      
 Compute Stats, Diag. #    223  SIuice    vol(   0 ): 3.513E+14  Parms: UU      M1      
 Compute Stats, Diag. #    224  SIvice    vol(   0 ): 3.508E+14  Parms: VV      M1      
 Compute Stats, Diag. #    225  SItaux    vol(   0 ): 3.513E+14  Parms: UU      U1      
 Compute Stats, Diag. #    226  SItauy    vol(   0 ): 3.508E+14  Parms: VV      U1      
 cg2d: Sum(rhs),rhsMax =   7.40065752253324E+01  2.87850159638123E-01
 Compute Stats, Diag. #    214  SIarea    vol(   0 ): 3.580E+14  Parms: SM      M1      
 Compute Stats, Diag. #    217  SIheff    vol(   0 ): 3.580E+14  Parms: SM      M1      
 Compute Stats, Diag. #    219  SIhsnow   vol(   0 ): 3.580E+14  Parms: SM      M1      
 Compute Stats, Diag. #     83  sIceLoad  vol(   0 ): 3.580E+14  Parms: SM      U1      
 Compute Stats, Diag. #    223  SIuice    vol(   0 ): 3.513E+14  Parms: UU      M1      
 Compute Stats, Diag. #    224  SIvice    vol(   0 ): 3.508E+14  Parms: VV      M1      
 Compute Stats, Diag. #    225  SItaux    vol(   0 ): 3.513E+14  Parms: UU      U1      
 Compute Stats, Diag. #    226  SItauy    vol(   0 ): 3.508E+14  Parms: VV      U1      
 cg2d: Sum(rhs),rhsMax =   7.50951315275496E+01  2.88142873246070E-01
(PID.TID 0000.0001)      cg2d_init_res =   6.17562561465430E-01
(PID.TID 0000.0001)      cg2d_iters(min,last) =      -1      34
(PID.TID 0000.0001)      cg2d_last_res =   2.46462219361803E-05
(PID.TID 0000.0001) // =======================================================
(PID.TID 0000.0001) // Begin MONITOR dynamic field statistics
(PID.TID 0000.0001) // =======================================================
(PID.TID 0000.0001) %MON time_tsnumber                =                    24
(PID.TID 0000.0001) %MON time_secondsf                =   2.1600000000000E+04
(PID.TID 0000.0001) %MON dynstat_eta_max              =   1.1202128130764E+00
(PID.TID 0000.0001) %MON dynstat_eta_min              =  -4.0019498426467E+00
(PID.TID 0000.0001) %MON dynstat_eta_mean             =  -2.3754988481530E-03
(PID.TID 0000.0001) %MON dynstat_eta_sd               =   7.2122488953484E-01
(PID.TID 0000.0001) %MON dynstat_eta_del2             =   9.8916639867764E-05
(PID.TID 0000.0001) %MON dynstat_uvel_max             =   9.1153667489749E-01
(PID.TID 0000.0001) %MON dynstat_uvel_min             =  -1.3515778651618E+00
(PID.TID 0000.0001) %MON dynstat_uvel_mean            =   1.8979822381950E-03
(PID.TID 0000.0001) %MON dynstat_uvel_sd              =   2.1979083808664E-02
(PID.TID 0000.0001) %MON dynstat_uvel_del2            =   1.4430619827988E-05
(PID.TID 0000.0001) %MON dynstat_vvel_max             =   1.1312653158516E+00
(PID.TID 0000.0001) %MON dynstat_vvel_min             =  -1.0613932747420E+00
(PID.TID 0000.0001) %MON dynstat_vvel_mean            =   1.2876220828202E-03
(PID.TID 0000.0001) %MON dynstat_vvel_sd              =   2.3627673161609E-02
(PID.TID 0000.0001) %MON dynstat_vvel_del2            =   1.5576227195306E-05
(PID.TID 0000.0001) %MON dynstat_wvel_max             =   2.4572118122055E-03
(PID.TID 0000.0001) %MON dynstat_wvel_min             =  -3.6319522692092E-03
(PID.TID 0000.0001) %MON dynstat_wvel_mean            =   5.0488649111656E-08
(PID.TID 0000.0001) %MON dynstat_wvel_sd              =   3.3710683783356E-05
(PID.TID 0000.0001) %MON dynstat_wvel_del2            =   4.5407076956429E-08
(PID.TID 0000.0001) %MON dynstat_theta_max            =   3.2658765617879E+01
(PID.TID 0000.0001) %MON dynstat_theta_min            =  -2.0422113298812E+00
(PID.TID 0000.0001) %MON dynstat_theta_mean           =   3.5906362586476E+00
(PID.TID 0000.0001) %MON dynstat_theta_sd             =   4.4367396719973E+00
(PID.TID 0000.0001) %MON dynstat_theta_del2           =   1.0859603330286E-04
(PID.TID 0000.0001) %MON dynstat_salt_max             =   4.0711521836291E+01
(PID.TID 0000.0001) %MON dynstat_salt_min             =   1.8855663114029E+01
(PID.TID 0000.0001) %MON dynstat_salt_mean            =   3.4725700299530E+01
(PID.TID 0000.0001) %MON dynstat_salt_sd              =   3.7745286666273E-01
(PID.TID 0000.0001) %MON dynstat_salt_del2            =   2.6765279328114E-05
(PID.TID 0000.0001) %MON dynstat_sst_max              =   3.2658765617879E+01
(PID.TID 0000.0001) %MON dynstat_sst_min              =  -1.9417643295417E+00
(PID.TID 0000.0001) %MON dynstat_sst_mean             =   1.8509249940083E+01
(PID.TID 0000.0001) %MON dynstat_sst_sd               =   1.0102369847969E+01
(PID.TID 0000.0001) %MON dynstat_sst_del2             =   8.7465821158407E-04
(PID.TID 0000.0001) %MON dynstat_sss_max              =   3.9575355050003E+01
(PID.TID 0000.0001) %MON dynstat_sss_min              =   1.8855663114029E+01
(PID.TID 0000.0001) %MON dynstat_sss_mean             =   3.4692020699748E+01
(PID.TID 0000.0001) %MON dynstat_sss_sd               =   1.1336649058877E+00
(PID.TID 0000.0001) %MON dynstat_sss_del2             =   3.9208082467546E-04
(PID.TID 0000.0001) %MON forcing_qnet_max             =   2.3968850800774E+03
(PID.TID 0000.0001) %MON forcing_qnet_min             =  -1.1917723611932E+03
(PID.TID 0000.0001) %MON forcing_qnet_mean            =  -8.5334611375155E+00
(PID.TID 0000.0001) %MON forcing_qnet_sd              =   2.0501289926254E+02
(PID.TID 0000.0001) %MON forcing_qnet_del2            =   5.0895276065547E-01
(PID.TID 0000.0001) %MON forcing_qsw_max              =   0.0000000000000E+00
(PID.TID 0000.0001) %MON forcing_qsw_min              =  -1.1011190673122E+02
(PID.TID 0000.0001) %MON forcing_qsw_mean             =  -1.9430560491307E+01
(PID.TID 0000.0001) %MON forcing_qsw_sd               =   2.8148803183915E+01
(PID.TID 0000.0001) %MON forcing_qsw_del2             =   2.2896952510174E-02
(PID.TID 0000.0001) %MON forcing_empmr_max            =   3.1047905795276E-03
(PID.TID 0000.0001) %MON forcing_empmr_min            =  -3.9471264928579E-02
(PID.TID 0000.0001) %MON forcing_empmr_mean           =   3.9370125909426E-05
(PID.TID 0000.0001) %MON forcing_empmr_sd             =   3.1982374509836E-04
(PID.TID 0000.0001) %MON forcing_empmr_del2           =   2.0408844900900E-06
(PID.TID 0000.0001) %MON forcing_fu_max               =   1.1524559259415E+00
(PID.TID 0000.0001) %MON forcing_fu_min               =  -1.0187595486641E+00
(PID.TID 0000.0001) %MON forcing_fu_mean              =   1.0272412743130E-02
(PID.TID 0000.0001) %MON forcing_fu_sd                =   1.0959001712650E-01
(PID.TID 0000.0001) %MON forcing_fu_del2              =   1.5276279943433E-04
(PID.TID 0000.0001) %MON forcing_fv_max               =   6.5558263659477E-01
(PID.TID 0000.0001) %MON forcing_fv_min               =  -8.5675582937986E-01
(PID.TID 0000.0001) %MON forcing_fv_mean              =  -5.6504927492551E-03
(PID.TID 0000.0001) %MON forcing_fv_sd                =   1.0831888285705E-01
(PID.TID 0000.0001) %MON forcing_fv_del2              =   1.3287983573779E-04
(PID.TID 0000.0001) %MON trAdv_CFL_u_max              =   2.2479575757040E-02
(PID.TID 0000.0001) %MON trAdv_CFL_v_max              =   2.1443800664548E-02
(PID.TID 0000.0001) %MON trAdv_CFL_w_max              =   6.7980496874628E-02
(PID.TID 0000.0001) %MON advcfl_uvel_max              =   2.3666047860581E-02
(PID.TID 0000.0001) %MON advcfl_vvel_max              =   2.3259817802957E-02
(PID.TID 0000.0001) %MON advcfl_wvel_max              =   6.9695024305530E-02
(PID.TID 0000.0001) %MON advcfl_W_hf_max              =   7.3400970232975E-02
(PID.TID 0000.0001) %MON pe_b_mean                    =   6.8423403648488E-04
(PID.TID 0000.0001) %MON ke_max                       =   8.3689570461698E-01
(PID.TID 0000.0001) %MON ke_mean                      =   5.0466923010589E-04
(PID.TID 0000.0001) %MON ke_vol                       =   1.3349970388058E+18
(PID.TID 0000.0001) %MON vort_r_min                   =  -5.1737383197296E-05
(PID.TID 0000.0001) %MON vort_r_max                   =   4.1782190200260E-05
(PID.TID 0000.0001) %MON vort_a_mean                  =  -1.9727864647440E-05
(PID.TID 0000.0001) %MON vort_a_sd                    =   7.4543369328040E-05
(PID.TID 0000.0001) %MON vort_p_mean                  =  -2.1760543002790E-05
(PID.TID 0000.0001) %MON vort_p_sd                    =   9.7243326076870E-05
(PID.TID 0000.0001) %MON surfExpan_theta_mean         =  -1.7797652457640E-06
(PID.TID 0000.0001) %MON surfExpan_salt_mean          =  -5.8686374109365E-07
(PID.TID 0000.0001) // =======================================================
(PID.TID 0000.0001) // End MONITOR dynamic field statistics
(PID.TID 0000.0001) // =======================================================
(PID.TID 0000.0001) // =======================================================
(PID.TID 0000.0001) // Begin MONITOR SEAICE statistics
(PID.TID 0000.0001) // =======================================================
(PID.TID 0000.0001) %MON seaice_tsnumber              =                    24
(PID.TID 0000.0001) %MON seaice_time_sec              =   2.1600000000000E+04
(PID.TID 0000.0001) %MON seaice_uice_max              =   7.9480924440712E-01
(PID.TID 0000.0001) %MON seaice_uice_min              =  -9.4610221460574E-01
(PID.TID 0000.0001) %MON seaice_uice_mean             =  -2.5395241544417E-03
(PID.TID 0000.0001) %MON seaice_uice_sd               =   1.5042862865305E-01
(PID.TID 0000.0001) %MON seaice_uice_del2             =   2.1179591020985E-04
(PID.TID 0000.0001) %MON seaice_vice_max              =   8.6316487989566E-01
(PID.TID 0000.0001) %MON seaice_vice_min              =  -9.1844683628634E-01
(PID.TID 0000.0001) %MON seaice_vice_mean             =  -5.1763602065028E-03
(PID.TID 0000.0001) %MON seaice_vice_sd               =   1.3300334177383E-01
(PID.TID 0000.0001) %MON seaice_vice_del2             =   1.8431651848513E-04
(PID.TID 0000.0001) %MON seaice_area_max              =   1.0000000000000E+00
(PID.TID 0000.0001) %MON seaice_area_min              =   0.0000000000000E+00
(PID.TID 0000.0001) %MON seaice_area_mean             =   7.2284342088351E-02
(PID.TID 0000.0001) %MON seaice_area_sd               =   2.3760945029803E-01
(PID.TID 0000.0001) %MON seaice_area_del2             =   4.3253021036086E-04
(PID.TID 0000.0001) %MON seaice_heff_max              =   2.5133330289290E+01
(PID.TID 0000.0001) %MON seaice_heff_min              =   0.0000000000000E+00
(PID.TID 0000.0001) %MON seaice_heff_mean             =   2.1665901587417E-01
(PID.TID 0000.0001) %MON seaice_heff_sd               =   1.0630945577581E+00
(PID.TID 0000.0001) %MON seaice_heff_del2             =   3.5334830921039E-03
(PID.TID 0000.0001) %MON seaice_hsnow_max             =   8.3010429115170E+00
(PID.TID 0000.0001) %MON seaice_hsnow_min             =   0.0000000000000E+00
(PID.TID 0000.0001) %MON seaice_hsnow_mean            =   2.4652838943227E-02
(PID.TID 0000.0001) %MON seaice_hsnow_sd              =   1.5572673797743E-01
(PID.TID 0000.0001) %MON seaice_hsnow_del2            =   1.1281339143591E-03
(PID.TID 0000.0001) // =======================================================
(PID.TID 0000.0001) // End MONITOR SEAICE statistics
(PID.TID 0000.0001) // =======================================================
 Computing Diagnostic #     86  oceQnet      Counter:       4   Parms: SM      U1      
 Computing Diagnostic #     87  oceQsw       Counter:       4   Parms: SM      U1      
 Computing Diagnostic #     84  oceFWflx     Counter:       4   Parms: SM      U1      
 Computing Diagnostic #     85  oceSflux     Counter:       4   Parms: SM      U1      
 Computing Diagnostic #     80  oceTAUX      Counter:       4   Parms: UU      U1      
           Vector  Mate for  oceTAUX      Diagnostic #     81  oceTAUY  exists 
 Computing Diagnostic #     81  oceTAUY      Counter:       4   Parms: VV      U1      
           Vector  Mate for  oceTAUY      Diagnostic #     80  oceTAUX  exists 
 Computing Diagnostic #     26  THETA        Counter:       4   Parms: SMR     MR      
 Computing Diagnostic #     27  SALT         Counter:       4   Parms: SMR     MR      
 Computing Diagnostic #     30  UVEL         Counter:       4   Parms: UUR     MR      
           Vector  Mate for  UVEL         Diagnostic #     31  VVEL     exists 
 Computing Diagnostic #     31  VVEL         Counter:       4   Parms: VVR     MR      
           Vector  Mate for  VVEL         Diagnostic #     30  UVEL     exists 
 Computing Diagnostic #    214  SIarea       Counter:       4   Parms: SM      M1      
 Computing Diagnostic #    217  SIheff       Counter:       4   Parms: SM      M1      
 Computing Diagnostic #    219  SIhsnow      Counter:       4   Parms: SM      M1      
 Computing Diagnostic #     83  sIceLoad     Counter:       4   Parms: SM      U1      
 Computing Diagnostic #    223  SIuice       Counter:       4   Parms: UU      M1      
           Vector  Mate for  SIuice       Diagnostic #    224  SIvice   exists 
 Computing Diagnostic #    224  SIvice       Counter:       4   Parms: VV      M1      
           Vector  Mate for  SIvice       Diagnostic #    223  SIuice   exists 
 Computing Diagnostic #    225  SItaux       Counter:       4   Parms: UU      U1      
           Vector  Mate for  SItaux       Diagnostic #    226  SItauy   exists 
 Computing Diagnostic #    226  SItauy       Counter:       4   Parms: VV      U1      
           Vector  Mate for  SItauy       Diagnostic #    225  SItaux   exists 
 Computing Diagnostic #    285  SIareaN      Counter:       4   Parms: SM      MX      
 Computing Diagnostic #    284  SIheffN      Counter:       4   Parms: SM      MX      
 Computing Diagnostic #    286  SIhsnowN     Counter:       4   Parms: SM      MX      
 Compute Stats, Diag. #    214  SIarea    vol(   0 ): 3.580E+14  Parms: SM      M1      
 Compute Stats, Diag. #    217  SIheff    vol(   0 ): 3.580E+14  Parms: SM      M1      
 Compute Stats, Diag. #    219  SIhsnow   vol(   0 ): 3.580E+14  Parms: SM      M1      
 Compute Stats, Diag. #     83  sIceLoad  vol(   0 ): 3.580E+14  Parms: SM      U1      
 Compute Stats, Diag. #    223  SIuice    vol(   0 ): 3.513E+14  Parms: UU      M1      
 Compute Stats, Diag. #    224  SIvice    vol(   0 ): 3.508E+14  Parms: VV      M1      
 Compute Stats, Diag. #    225  SItaux    vol(   0 ): 3.513E+14  Parms: UU      U1      
 Compute Stats, Diag. #    226  SItauy    vol(   0 ): 3.508E+14  Parms: VV      U1      
 SEAICE_LSR: Residual Initial ipass,Uice,Vice=    1  2.62881088E-02  2.69448573E-02
 SEAICE_LSR (ipass=   1) iters,dU,Resid=  1500  2.88538232E-08  2.11109310E-05
 SEAICE_LSR (ipass=   1) iters,dV,Resid=  1500  6.19113597E-09  4.06045412E-06
 SEAICE_LSR: Residual Initial ipass,Uice,Vice=    2  2.19665318E-02  2.30462902E-02
 SEAICE_LSR (ipass=   2) iters,dU,Resid=  1500  1.92651005E-08  1.38801392E-05
 SEAICE_LSR (ipass=   2) iters,dV,Resid=  1500  3.57594037E-09  2.32244225E-06
 cg2d: Sum(rhs),rhsMax =   7.61488339981055E+01  2.88781547397620E-01
 Compute Stats, Diag. #    214  SIarea    vol(   0 ): 3.580E+14  Parms: SM      M1      
 Compute Stats, Diag. #    217  SIheff    vol(   0 ): 3.580E+14  Parms: SM      M1      
 Compute Stats, Diag. #    219  SIhsnow   vol(   0 ): 3.580E+14  Parms: SM      M1      
 Compute Stats, Diag. #     83  sIceLoad  vol(   0 ): 3.580E+14  Parms: SM      U1      
 Compute Stats, Diag. #    223  SIuice    vol(   0 ): 3.513E+14  Parms: UU      M1      
 Compute Stats, Diag. #    224  SIvice    vol(   0 ): 3.508E+14  Parms: VV      M1      
 Compute Stats, Diag. #    225  SItaux    vol(   0 ): 3.513E+14  Parms: UU      U1      
 Compute Stats, Diag. #    226  SItauy    vol(   0 ): 3.508E+14  Parms: VV      U1      
 cg2d: Sum(rhs),rhsMax =   7.71617804516403E+01  2.89773956254715E-01
 Compute Stats, Diag. #    214  SIarea    vol(   0 ): 3.580E+14  Parms: SM      M1      
 Compute Stats, Diag. #    217  SIheff    vol(   0 ): 3.580E+14  Parms: SM      M1      
 Compute Stats, Diag. #    219  SIhsnow   vol(   0 ): 3.580E+14  Parms: SM      M1      
 Compute Stats, Diag. #     83  sIceLoad  vol(   0 ): 3.580E+14  Parms: SM      U1      
 Compute Stats, Diag. #    223  SIuice    vol(   0 ): 3.513E+14  Parms: UU      M1      
 Compute Stats, Diag. #    224  SIvice    vol(   0 ): 3.508E+14  Parms: VV      M1      
 Compute Stats, Diag. #    225  SItaux    vol(   0 ): 3.513E+14  Parms: UU      U1      
 Compute Stats, Diag. #    226  SItauy    vol(   0 ): 3.508E+14  Parms: VV      U1      
 cg2d: Sum(rhs),rhsMax =   7.81395703439304E+01  2.91078593964311E-01
 Compute Stats, Diag. #    214  SIarea    vol(   0 ): 3.580E+14  Parms: SM      M1      
 Compute Stats, Diag. #    217  SIheff    vol(   0 ): 3.580E+14  Parms: SM      M1      
 Compute Stats, Diag. #    219  SIhsnow   vol(   0 ): 3.580E+14  Parms: SM      M1      
 Compute Stats, Diag. #     83  sIceLoad  vol(   0 ): 3.580E+14  Parms: SM      U1      
 Compute Stats, Diag. #    223  SIuice    vol(   0 ): 3.513E+14  Parms: UU      M1      
 Compute Stats, Diag. #    224  SIvice    vol(   0 ): 3.508E+14  Parms: VV      M1      
 Compute Stats, Diag. #    225  SItaux    vol(   0 ): 3.513E+14  Parms: UU      U1      
 Compute Stats, Diag. #    226  SItauy    vol(   0 ): 3.508E+14  Parms: VV      U1      
 cg2d: Sum(rhs),rhsMax =   7.90792783569205E+01  2.92609061183216E-01
 Computing Diagnostic #     86  oceQnet      Counter:       4   Parms: SM      U1      
 Computing Diagnostic #     87  oceQsw       Counter:       4   Parms: SM      U1      
 Computing Diagnostic #     84  oceFWflx     Counter:       4   Parms: SM      U1      
 Computing Diagnostic #     85  oceSflux     Counter:       4   Parms: SM      U1      
 Computing Diagnostic #     80  oceTAUX      Counter:       4   Parms: UU      U1      
           Vector  Mate for  oceTAUX      Diagnostic #     81  oceTAUY  exists 
 Computing Diagnostic #     81  oceTAUY      Counter:       4   Parms: VV      U1      
           Vector  Mate for  oceTAUY      Diagnostic #     80  oceTAUX  exists 
 Computing Diagnostic #     26  THETA        Counter:       4   Parms: SMR     MR      
 Computing Diagnostic #     27  SALT         Counter:       4   Parms: SMR     MR      
 Computing Diagnostic #     30  UVEL         Counter:       4   Parms: UUR     MR      
           Vector  Mate for  UVEL         Diagnostic #     31  VVEL     exists 
 Computing Diagnostic #     31  VVEL         Counter:       4   Parms: VVR     MR      
           Vector  Mate for  VVEL         Diagnostic #     30  UVEL     exists 
 Computing Diagnostic #    214  SIarea       Counter:       4   Parms: SM      M1      
 Computing Diagnostic #    217  SIheff       Counter:       4   Parms: SM      M1      
 Computing Diagnostic #    219  SIhsnow      Counter:       4   Parms: SM      M1      
 Computing Diagnostic #     83  sIceLoad     Counter:       4   Parms: SM      U1      
 Computing Diagnostic #    223  SIuice       Counter:       4   Parms: UU      M1      
           Vector  Mate for  SIuice       Diagnostic #    224  SIvice   exists 
 Computing Diagnostic #    224  SIvice       Counter:       4   Parms: VV      M1      
           Vector  Mate for  SIvice       Diagnostic #    223  SIuice   exists 
 Computing Diagnostic #    225  SItaux       Counter:       4   Parms: UU      U1      
           Vector  Mate for  SItaux       Diagnostic #    226  SItauy   exists 
 Computing Diagnostic #    226  SItauy       Counter:       4   Parms: VV      U1      
           Vector  Mate for  SItauy       Diagnostic #    225  SItaux   exists 
 Computing Diagnostic #    285  SIareaN      Counter:       4   Parms: SM      MX      
 Computing Diagnostic #    284  SIheffN      Counter:       4   Parms: SM      MX      
 Computing Diagnostic #    286  SIhsnowN     Counter:       4   Parms: SM      MX      
 Compute Stats, Diag. #    214  SIarea    vol(   0 ): 3.580E+14  Parms: SM      M1      
 Compute Stats, Diag. #    217  SIheff    vol(   0 ): 3.580E+14  Parms: SM      M1      
 Compute Stats, Diag. #    219  SIhsnow   vol(   0 ): 3.580E+14  Parms: SM      M1      
 Compute Stats, Diag. #     83  sIceLoad  vol(   0 ): 3.580E+14  Parms: SM      U1      
 Compute Stats, Diag. #    223  SIuice    vol(   0 ): 3.513E+14  Parms: UU      M1      
 Compute Stats, Diag. #    224  SIvice    vol(   0 ): 3.508E+14  Parms: VV      M1      
 Compute Stats, Diag. #    225  SItaux    vol(   0 ): 3.513E+14  Parms: UU      U1      
 Compute Stats, Diag. #    226  SItauy    vol(   0 ): 3.508E+14  Parms: VV      U1      
 cg2d: Sum(rhs),rhsMax =   7.99772990981755E+01  2.94245612601154E-01
 Compute Stats, Diag. #    214  SIarea    vol(   0 ): 3.580E+14  Parms: SM      M1      
 Compute Stats, Diag. #    217  SIheff    vol(   0 ): 3.580E+14  Parms: SM      M1      
 Compute Stats, Diag. #    219  SIhsnow   vol(   0 ): 3.580E+14  Parms: SM      M1      
 Compute Stats, Diag. #     83  sIceLoad  vol(   0 ): 3.580E+14  Parms: SM      U1      
 Compute Stats, Diag. #    223  SIuice    vol(   0 ): 3.513E+14  Parms: UU      M1      
 Compute Stats, Diag. #    224  SIvice    vol(   0 ): 3.508E+14  Parms: VV      M1      
 Compute Stats, Diag. #    225  SItaux    vol(   0 ): 3.513E+14  Parms: UU      U1      
 Compute Stats, Diag. #    226  SItauy    vol(   0 ): 3.508E+14  Parms: VV      U1      
 cg2d: Sum(rhs),rhsMax =   8.08416213233965E+01  2.95861052353689E-01
 Compute Stats, Diag. #    214  SIarea    vol(   0 ): 3.580E+14  Parms: SM      M1      
 Compute Stats, Diag. #    217  SIheff    vol(   0 ): 3.580E+14  Parms: SM      M1      
 Compute Stats, Diag. #    219  SIhsnow   vol(   0 ): 3.580E+14  Parms: SM      M1      
 Compute Stats, Diag. #     83  sIceLoad  vol(   0 ): 3.580E+14  Parms: SM      U1      
 Compute Stats, Diag. #    223  SIuice    vol(   0 ): 3.513E+14  Parms: UU      M1      
 Compute Stats, Diag. #    224  SIvice    vol(   0 ): 3.508E+14  Parms: VV      M1      
 Compute Stats, Diag. #    225  SItaux    vol(   0 ): 3.513E+14  Parms: UU      U1      
 Compute Stats, Diag. #    226  SItauy    vol(   0 ): 3.508E+14  Parms: VV      U1      
 cg2d: Sum(rhs),rhsMax =   8.16627165378688E+01  2.97326647329004E-01
 Compute Stats, Diag. #    214  SIarea    vol(   0 ): 3.580E+14  Parms: SM      M1      
 Compute Stats, Diag. #    217  SIheff    vol(   0 ): 3.580E+14  Parms: SM      M1      
 Compute Stats, Diag. #    219  SIhsnow   vol(   0 ): 3.580E+14  Parms: SM      M1      
 Compute Stats, Diag. #     83  sIceLoad  vol(   0 ): 3.580E+14  Parms: SM      U1      
 Compute Stats, Diag. #    223  SIuice    vol(   0 ): 3.513E+14  Parms: UU      M1      
 Compute Stats, Diag. #    224  SIvice    vol(   0 ): 3.508E+14  Parms: VV      M1      
 Compute Stats, Diag. #    225  SItaux    vol(   0 ): 3.513E+14  Parms: UU      U1      
 Compute Stats, Diag. #    226  SItauy    vol(   0 ): 3.508E+14  Parms: VV      U1      
 cg2d: Sum(rhs),rhsMax =   8.24431280911074E+01  2.98537330629732E-01
(PID.TID 0000.0001)      cg2d_init_res =   5.56583077127304E-01
(PID.TID 0000.0001)      cg2d_iters(min,last) =      -1      34
(PID.TID 0000.0001)      cg2d_last_res =   2.77445509254560E-05
(PID.TID 0000.0001) // =======================================================
(PID.TID 0000.0001) // Begin MONITOR dynamic field statistics
(PID.TID 0000.0001) // =======================================================
(PID.TID 0000.0001) %MON time_tsnumber                =                    32
(PID.TID 0000.0001) %MON time_secondsf                =   2.8800000000000E+04
(PID.TID 0000.0001) %MON dynstat_eta_max              =   1.0932719808521E+00
(PID.TID 0000.0001) %MON dynstat_eta_min              =  -3.9519752450769E+00
(PID.TID 0000.0001) %MON dynstat_eta_mean             =  -2.6079394474022E-03
(PID.TID 0000.0001) %MON dynstat_eta_sd               =   7.1937348080617E-01
(PID.TID 0000.0001) %MON dynstat_eta_del2             =   9.4067784455132E-05
(PID.TID 0000.0001) %MON dynstat_uvel_max             =   7.5026281264713E-01
(PID.TID 0000.0001) %MON dynstat_uvel_min             =  -1.4207461535014E+00
(PID.TID 0000.0001) %MON dynstat_uvel_mean            =   1.8570051160967E-03
(PID.TID 0000.0001) %MON dynstat_uvel_sd              =   2.1907448728563E-02
(PID.TID 0000.0001) %MON dynstat_uvel_del2            =   1.3784086711970E-05
(PID.TID 0000.0001) %MON dynstat_vvel_max             =   1.1597474255305E+00
(PID.TID 0000.0001) %MON dynstat_vvel_min             =  -9.3268209747296E-01
(PID.TID 0000.0001) %MON dynstat_vvel_mean            =   1.3831626546663E-03
(PID.TID 0000.0001) %MON dynstat_vvel_sd              =   2.3419497082199E-02
(PID.TID 0000.0001) %MON dynstat_vvel_del2            =   1.4828355594668E-05
(PID.TID 0000.0001) %MON dynstat_wvel_max             =   2.8091785632559E-03
(PID.TID 0000.0001) %MON dynstat_wvel_min             =  -3.9505365551227E-03
(PID.TID 0000.0001) %MON dynstat_wvel_mean            =   8.5451012601173E-08
(PID.TID 0000.0001) %MON dynstat_wvel_sd              =   3.5258582185044E-05
(PID.TID 0000.0001) %MON dynstat_wvel_del2            =   4.9961528092546E-08
(PID.TID 0000.0001) %MON dynstat_theta_max            =   3.2659868628988E+01
(PID.TID 0000.0001) %MON dynstat_theta_min            =  -2.0422666604648E+00
(PID.TID 0000.0001) %MON dynstat_theta_mean           =   3.5906324077748E+00
(PID.TID 0000.0001) %MON dynstat_theta_sd             =   4.4367130951215E+00
(PID.TID 0000.0001) %MON dynstat_theta_del2           =   1.0806970375106E-04
(PID.TID 0000.0001) %MON dynstat_salt_max             =   4.0711521881045E+01
(PID.TID 0000.0001) %MON dynstat_salt_min             =   1.8865040388402E+01
(PID.TID 0000.0001) %MON dynstat_salt_mean            =   3.4725679168651E+01
(PID.TID 0000.0001) %MON dynstat_salt_sd              =   3.7735883989899E-01
(PID.TID 0000.0001) %MON dynstat_salt_del2            =   2.6705147260780E-05
(PID.TID 0000.0001) %MON dynstat_sst_max              =   3.2659868628988E+01
(PID.TID 0000.0001) %MON dynstat_sst_min              =  -1.9358611780318E+00
(PID.TID 0000.0001) %MON dynstat_sst_mean             =   1.8505799571516E+01
(PID.TID 0000.0001) %MON dynstat_sst_sd               =   1.0104658583749E+01
(PID.TID 0000.0001) %MON dynstat_sst_del2             =   8.7223437335457E-04
(PID.TID 0000.0001) %MON dynstat_sss_max              =   3.9537416473735E+01
(PID.TID 0000.0001) %MON dynstat_sss_min              =   1.8865040388402E+01
(PID.TID 0000.0001) %MON dynstat_sss_mean             =   3.4687696295238E+01
(PID.TID 0000.0001) %MON dynstat_sss_sd               =   1.1280868258789E+00
(PID.TID 0000.0001) %MON dynstat_sss_del2             =   4.0159915798055E-04
(PID.TID 0000.0001) %MON forcing_qnet_max             =   2.9208016294025E+03
(PID.TID 0000.0001) %MON forcing_qnet_min             =  -1.0816376720110E+03
(PID.TID 0000.0001) %MON forcing_qnet_mean            =   1.9693439664400E+01
(PID.TID 0000.0001) %MON forcing_qnet_sd              =   1.9111758321066E+02
(PID.TID 0000.0001) %MON forcing_qnet_del2            =   4.8989933693866E-01
(PID.TID 0000.0001) %MON forcing_qsw_max              =   0.0000000000000E+00
(PID.TID 0000.0001) %MON forcing_qsw_min              =  -1.0949314693984E+02
(PID.TID 0000.0001) %MON forcing_qsw_mean             =  -1.7183445253418E+01
(PID.TID 0000.0001) %MON forcing_qsw_sd               =   2.6590205611421E+01
(PID.TID 0000.0001) %MON forcing_qsw_del2             =   2.1391397594068E-02
(PID.TID 0000.0001) %MON forcing_empmr_max            =   5.1078870892525E-03
(PID.TID 0000.0001) %MON forcing_empmr_min            =  -5.2847996354103E-02
(PID.TID 0000.0001) %MON forcing_empmr_mean           =   2.8225366983324E-05
(PID.TID 0000.0001) %MON forcing_empmr_sd             =   3.1167054054396E-04
(PID.TID 0000.0001) %MON forcing_empmr_del2           =   3.3446368062125E-06
(PID.TID 0000.0001) %MON forcing_fu_max               =   1.0672525167465E+00
(PID.TID 0000.0001) %MON forcing_fu_min               =  -9.1909831762314E-01
(PID.TID 0000.0001) %MON forcing_fu_mean              =   1.0903165582772E-02
(PID.TID 0000.0001) %MON forcing_fu_sd                =   1.0635932974653E-01
(PID.TID 0000.0001) %MON forcing_fu_del2              =   1.4638504816067E-04
(PID.TID 0000.0001) %MON forcing_fv_max               =   7.0171946287155E-01
(PID.TID 0000.0001) %MON forcing_fv_min               =  -8.4424522492753E-01
(PID.TID 0000.0001) %MON forcing_fv_mean              =  -6.3638172989355E-03
(PID.TID 0000.0001) %MON forcing_fv_sd                =   1.0621955683054E-01
(PID.TID 0000.0001) %MON forcing_fv_del2              =   1.2977876114566E-04
(PID.TID 0000.0001) %MON trAdv_CFL_u_max              =   2.2830460384123E-02
(PID.TID 0000.0001) %MON trAdv_CFL_v_max              =   2.1919924945449E-02
(PID.TID 0000.0001) %MON trAdv_CFL_w_max              =   5.7207091842538E-02
(PID.TID 0000.0001) %MON advcfl_uvel_max              =   2.3506124998967E-02
(PID.TID 0000.0001) %MON advcfl_vvel_max              =   2.0586427533817E-02
(PID.TID 0000.0001) %MON advcfl_wvel_max              =   5.8176150624260E-02
(PID.TID 0000.0001) %MON advcfl_W_hf_max              =   6.1151890047150E-02
(PID.TID 0000.0001) %MON pe_b_mean                    =   6.8072724741887E-04
(PID.TID 0000.0001) %MON ke_max                       =   9.2402486120788E-01
(PID.TID 0000.0001) %MON ke_mean                      =   4.9847909474219E-04
(PID.TID 0000.0001) %MON ke_vol                       =   1.3349969520991E+18
(PID.TID 0000.0001) %MON vort_r_min                   =  -4.4954542975565E-05
(PID.TID 0000.0001) %MON vort_r_max                   =   4.1035678271512E-05
(PID.TID 0000.0001) %MON vort_a_mean                  =  -1.9727864647440E-05
(PID.TID 0000.0001) %MON vort_a_sd                    =   7.4543356931101E-05
(PID.TID 0000.0001) %MON vort_p_mean                  =  -2.1760544879836E-05
(PID.TID 0000.0001) %MON vort_p_sd                    =   9.7243780862891E-05
(PID.TID 0000.0001) %MON surfExpan_theta_mean         =  -1.3357828961997E-06
(PID.TID 0000.0001) %MON surfExpan_salt_mean          =  -4.2745314915961E-07
(PID.TID 0000.0001) // =======================================================
(PID.TID 0000.0001) // End MONITOR dynamic field statistics
(PID.TID 0000.0001) // =======================================================
(PID.TID 0000.0001) // =======================================================
(PID.TID 0000.0001) // Begin MONITOR SEAICE statistics
(PID.TID 0000.0001) // =======================================================
(PID.TID 0000.0001) %MON seaice_tsnumber              =                    32
(PID.TID 0000.0001) %MON seaice_time_sec              =   2.8800000000000E+04
(PID.TID 0000.0001) %MON seaice_uice_max              =   6.8231156715069E-01
(PID.TID 0000.0001) %MON seaice_uice_min              =  -1.0160729130636E+00
(PID.TID 0000.0001) %MON seaice_uice_mean             =  -3.8630831371474E-03
(PID.TID 0000.0001) %MON seaice_uice_sd               =   1.4657592353721E-01
(PID.TID 0000.0001) %MON seaice_uice_del2             =   2.0474595551398E-04
(PID.TID 0000.0001) %MON seaice_vice_max              =   9.2707079733954E-01
(PID.TID 0000.0001) %MON seaice_vice_min              =  -9.1493605817081E-01
(PID.TID 0000.0001) %MON seaice_vice_mean             =  -7.6327319189116E-03
(PID.TID 0000.0001) %MON seaice_vice_sd               =   1.3282237114211E-01
(PID.TID 0000.0001) %MON seaice_vice_del2             =   1.7757086752434E-04
(PID.TID 0000.0001) %MON seaice_area_max              =   1.0000000000000E+00
(PID.TID 0000.0001) %MON seaice_area_min              =   0.0000000000000E+00
(PID.TID 0000.0001) %MON seaice_area_mean             =   7.2038443442660E-02
(PID.TID 0000.0001) %MON seaice_area_sd               =   2.3748832683423E-01
(PID.TID 0000.0001) %MON seaice_area_del2             =   4.1943541897554E-04
(PID.TID 0000.0001) %MON seaice_heff_max              =   2.5126272249762E+01
(PID.TID 0000.0001) %MON seaice_heff_min              =   0.0000000000000E+00
(PID.TID 0000.0001) %MON seaice_heff_mean             =   2.1683898773882E-01
(PID.TID 0000.0001) %MON seaice_heff_sd               =   1.0635640965041E+00
(PID.TID 0000.0001) %MON seaice_heff_del2             =   3.4242877594276E-03
(PID.TID 0000.0001) %MON seaice_hsnow_max             =   8.2987139825338E+00
(PID.TID 0000.0001) %MON seaice_hsnow_min             =   0.0000000000000E+00
(PID.TID 0000.0001) %MON seaice_hsnow_mean            =   2.4642312902286E-02
(PID.TID 0000.0001) %MON seaice_hsnow_sd              =   1.5506638328315E-01
(PID.TID 0000.0001) %MON seaice_hsnow_del2            =   1.0921534577657E-03
(PID.TID 0000.0001) // =======================================================
(PID.TID 0000.0001) // End MONITOR SEAICE statistics
(PID.TID 0000.0001) // =======================================================
 Computing Diagnostic #     86  oceQnet      Counter:       4   Parms: SM      U1      
 Computing Diagnostic #     87  oceQsw       Counter:       4   Parms: SM      U1      
 Computing Diagnostic #     84  oceFWflx     Counter:       4   Parms: SM      U1      
 Computing Diagnostic #     85  oceSflux     Counter:       4   Parms: SM      U1      
 Computing Diagnostic #     80  oceTAUX      Counter:       4   Parms: UU      U1      
           Vector  Mate for  oceTAUX      Diagnostic #     81  oceTAUY  exists 
 Computing Diagnostic #     81  oceTAUY      Counter:       4   Parms: VV      U1      
           Vector  Mate for  oceTAUY      Diagnostic #     80  oceTAUX  exists 
 Computing Diagnostic #     26  THETA        Counter:       4   Parms: SMR     MR      
 Computing Diagnostic #     27  SALT         Counter:       4   Parms: SMR     MR      
 Computing Diagnostic #     30  UVEL         Counter:       4   Parms: UUR     MR      
           Vector  Mate for  UVEL         Diagnostic #     31  VVEL     exists 
 Computing Diagnostic #     31  VVEL         Counter:       4   Parms: VVR     MR      
           Vector  Mate for  VVEL         Diagnostic #     30  UVEL     exists 
 Computing Diagnostic #    214  SIarea       Counter:       4   Parms: SM      M1      
 Computing Diagnostic #    217  SIheff       Counter:       4   Parms: SM      M1      
 Computing Diagnostic #    219  SIhsnow      Counter:       4   Parms: SM      M1      
 Computing Diagnostic #     83  sIceLoad     Counter:       4   Parms: SM      U1      
 Computing Diagnostic #    223  SIuice       Counter:       4   Parms: UU      M1      
           Vector  Mate for  SIuice       Diagnostic #    224  SIvice   exists 
 Computing Diagnostic #    224  SIvice       Counter:       4   Parms: VV      M1      
           Vector  Mate for  SIvice       Diagnostic #    223  SIuice   exists 
 Computing Diagnostic #    225  SItaux       Counter:       4   Parms: UU      U1      
           Vector  Mate for  SItaux       Diagnostic #    226  SItauy   exists 
 Computing Diagnostic #    226  SItauy       Counter:       4   Parms: VV      U1      
           Vector  Mate for  SItauy       Diagnostic #    225  SItaux   exists 
 Computing Diagnostic #    285  SIareaN      Counter:       4   Parms: SM      MX      
 Computing Diagnostic #    284  SIheffN      Counter:       4   Parms: SM      MX      
 Computing Diagnostic #    286  SIhsnowN     Counter:       4   Parms: SM      MX      
 Compute Stats, Diag. #    214  SIarea    vol(   0 ): 3.580E+14  Parms: SM      M1      
 Compute Stats, Diag. #    217  SIheff    vol(   0 ): 3.580E+14  Parms: SM      M1      
 Compute Stats, Diag. #    219  SIhsnow   vol(   0 ): 3.580E+14  Parms: SM      M1      
 Compute Stats, Diag. #     83  sIceLoad  vol(   0 ): 3.580E+14  Parms: SM      U1      
 Compute Stats, Diag. #    223  SIuice    vol(   0 ): 3.513E+14  Parms: UU      M1      
 Compute Stats, Diag. #    224  SIvice    vol(   0 ): 3.508E+14  Parms: VV      M1      
 Compute Stats, Diag. #    225  SItaux    vol(   0 ): 3.513E+14  Parms: UU      U1      
 Compute Stats, Diag. #    226  SItauy    vol(   0 ): 3.508E+14  Parms: VV      U1      
 SEAICE_LSR: Residual Initial ipass,Uice,Vice=    1  2.33043220E-02  2.35110007E-02
 SEAICE_LSR (ipass=   1) iters,dU,Resid=  1500  6.72671846E-09  1.46184159E-06
 SEAICE_LSR (ipass=   1) iters,dV,Resid=  1500  8.22154421E-10  1.96391067E-07
 SEAICE_LSR: Residual Initial ipass,Uice,Vice=    2  2.12556315E-02  2.17777108E-02
 SEAICE_LSR (ipass=   2) iters,dU,Resid=  1500  1.27411255E-09  7.87384885E-07
 SEAICE_LSR (ipass=   2) iters,dV,Resid=  1500  1.90143138E-10  1.31714521E-07
 cg2d: Sum(rhs),rhsMax =   8.31894668034636E+01  2.99423913948016E-01
 Compute Stats, Diag. #    214  SIarea    vol(   0 ): 3.580E+14  Parms: SM      M1      
 Compute Stats, Diag. #    217  SIheff    vol(   0 ): 3.580E+14  Parms: SM      M1      
 Compute Stats, Diag. #    219  SIhsnow   vol(   0 ): 3.580E+14  Parms: SM      M1      
 Compute Stats, Diag. #     83  sIceLoad  vol(   0 ): 3.580E+14  Parms: SM      U1      
 Compute Stats, Diag. #    223  SIuice    vol(   0 ): 3.513E+14  Parms: UU      M1      
 Compute Stats, Diag. #    224  SIvice    vol(   0 ): 3.508E+14  Parms: VV      M1      
 Compute Stats, Diag. #    225  SItaux    vol(   0 ): 3.513E+14  Parms: UU      U1      
 Compute Stats, Diag. #    226  SItauy    vol(   0 ): 3.508E+14  Parms: VV      U1      
 cg2d: Sum(rhs),rhsMax =   8.39015687989361E+01  2.99953312099885E-01
 Compute Stats, Diag. #    214  SIarea    vol(   0 ): 3.580E+14  Parms: SM      M1      
 Compute Stats, Diag. #    217  SIheff    vol(   0 ): 3.580E+14  Parms: SM      M1      
 Compute Stats, Diag. #    219  SIhsnow   vol(   0 ): 3.580E+14  Parms: SM      M1      
 Compute Stats, Diag. #     83  sIceLoad  vol(   0 ): 3.580E+14  Parms: SM      U1      
 Compute Stats, Diag. #    223  SIuice    vol(   0 ): 3.513E+14  Parms: UU      M1      
 Compute Stats, Diag. #    224  SIvice    vol(   0 ): 3.508E+14  Parms: VV      M1      
 Compute Stats, Diag. #    225  SItaux    vol(   0 ): 3.513E+14  Parms: UU      U1      
 Compute Stats, Diag. #    226  SItauy    vol(   0 ): 3.508E+14  Parms: VV      U1      
 cg2d: Sum(rhs),rhsMax =   8.45836711523062E+01  3.00135747028205E-01
 Compute Stats, Diag. #    214  SIarea    vol(   0 ): 3.580E+14  Parms: SM      M1      
 Compute Stats, Diag. #    217  SIheff    vol(   0 ): 3.580E+14  Parms: SM      M1      
 Compute Stats, Diag. #    219  SIhsnow   vol(   0 ): 3.580E+14  Parms: SM      M1      
 Compute Stats, Diag. #     83  sIceLoad  vol(   0 ): 3.580E+14  Parms: SM      U1      
 Compute Stats, Diag. #    223  SIuice    vol(   0 ): 3.513E+14  Parms: UU      M1      
 Compute Stats, Diag. #    224  SIvice    vol(   0 ): 3.508E+14  Parms: VV      M1      
 Compute Stats, Diag. #    225  SItaux    vol(   0 ): 3.513E+14  Parms: UU      U1      
 Compute Stats, Diag. #    226  SItauy    vol(   0 ): 3.508E+14  Parms: VV      U1      
 cg2d: Sum(rhs),rhsMax =   8.52314207045781E+01  3.00011409798429E-01
 Computing Diagnostic #     86  oceQnet      Counter:       4   Parms: SM      U1      
 Computing Diagnostic #     87  oceQsw       Counter:       4   Parms: SM      U1      
 Computing Diagnostic #     84  oceFWflx     Counter:       4   Parms: SM      U1      
 Computing Diagnostic #     85  oceSflux     Counter:       4   Parms: SM      U1      
 Computing Diagnostic #     80  oceTAUX      Counter:       4   Parms: UU      U1      
           Vector  Mate for  oceTAUX      Diagnostic #     81  oceTAUY  exists 
 Computing Diagnostic #     81  oceTAUY      Counter:       4   Parms: VV      U1      
           Vector  Mate for  oceTAUY      Diagnostic #     80  oceTAUX  exists 
 Computing Diagnostic #     26  THETA        Counter:       4   Parms: SMR     MR      
 Computing Diagnostic #     27  SALT         Counter:       4   Parms: SMR     MR      
 Computing Diagnostic #     30  UVEL         Counter:       4   Parms: UUR     MR      
           Vector  Mate for  UVEL         Diagnostic #     31  VVEL     exists 
 Computing Diagnostic #     31  VVEL         Counter:       4   Parms: VVR     MR      
           Vector  Mate for  VVEL         Diagnostic #     30  UVEL     exists 
 Computing Diagnostic #    214  SIarea       Counter:       4   Parms: SM      M1      
 Computing Diagnostic #    217  SIheff       Counter:       4   Parms: SM      M1      
 Computing Diagnostic #    219  SIhsnow      Counter:       4   Parms: SM      M1      
 Computing Diagnostic #     83  sIceLoad     Counter:       4   Parms: SM      U1      
 Computing Diagnostic #    223  SIuice       Counter:       4   Parms: UU      M1      
           Vector  Mate for  SIuice       Diagnostic #    224  SIvice   exists 
 Computing Diagnostic #    224  SIvice       Counter:       4   Parms: VV      M1      
           Vector  Mate for  SIvice       Diagnostic #    223  SIuice   exists 
 Computing Diagnostic #    225  SItaux       Counter:       4   Parms: UU      U1      
           Vector  Mate for  SItaux       Diagnostic #    226  SItauy   exists 
 Computing Diagnostic #    226  SItauy       Counter:       4   Parms: VV      U1      
           Vector  Mate for  SItauy       Diagnostic #    225  SItaux   exists 
 Computing Diagnostic #    285  SIareaN      Counter:       4   Parms: SM      MX      
 Computing Diagnostic #    284  SIheffN      Counter:       4   Parms: SM      MX      
 Computing Diagnostic #    286  SIhsnowN     Counter:       4   Parms: SM      MX      
 Compute Stats, Diag. #    214  SIarea    vol(   0 ): 3.580E+14  Parms: SM      M1      
 Compute Stats, Diag. #    217  SIheff    vol(   0 ): 3.580E+14  Parms: SM      M1      
 Compute Stats, Diag. #    219  SIhsnow   vol(   0 ): 3.580E+14  Parms: SM      M1      
 Compute Stats, Diag. #     83  sIceLoad  vol(   0 ): 3.580E+14  Parms: SM      U1      
 Compute Stats, Diag. #    223  SIuice    vol(   0 ): 3.513E+14  Parms: UU      M1      
 Compute Stats, Diag. #    224  SIvice    vol(   0 ): 3.508E+14  Parms: VV      M1      
 Compute Stats, Diag. #    225  SItaux    vol(   0 ): 3.513E+14  Parms: UU      U1      
 Compute Stats, Diag. #    226  SItauy    vol(   0 ): 3.508E+14  Parms: VV      U1      
 cg2d: Sum(rhs),rhsMax =   8.58508256637215E+01  2.99647184886144E-01
 Compute Stats, Diag. #    214  SIarea    vol(   0 ): 3.580E+14  Parms: SM      M1      
 Compute Stats, Diag. #    217  SIheff    vol(   0 ): 3.580E+14  Parms: SM      M1      
 Compute Stats, Diag. #    219  SIhsnow   vol(   0 ): 3.580E+14  Parms: SM      M1      
 Compute Stats, Diag. #     83  sIceLoad  vol(   0 ): 3.580E+14  Parms: SM      U1      
 Compute Stats, Diag. #    223  SIuice    vol(   0 ): 3.513E+14  Parms: UU      M1      
 Compute Stats, Diag. #    224  SIvice    vol(   0 ): 3.508E+14  Parms: VV      M1      
 Compute Stats, Diag. #    225  SItaux    vol(   0 ): 3.513E+14  Parms: UU      U1      
 Compute Stats, Diag. #    226  SItauy    vol(   0 ): 3.508E+14  Parms: VV      U1      
 cg2d: Sum(rhs),rhsMax =   8.64395338861588E+01  2.99234722184712E-01
 Compute Stats, Diag. #    214  SIarea    vol(   0 ): 3.580E+14  Parms: SM      M1      
 Compute Stats, Diag. #    217  SIheff    vol(   0 ): 3.580E+14  Parms: SM      M1      
 Compute Stats, Diag. #    219  SIhsnow   vol(   0 ): 3.580E+14  Parms: SM      M1      
 Compute Stats, Diag. #     83  sIceLoad  vol(   0 ): 3.580E+14  Parms: SM      U1      
 Compute Stats, Diag. #    223  SIuice    vol(   0 ): 3.513E+14  Parms: UU      M1      
 Compute Stats, Diag. #    224  SIvice    vol(   0 ): 3.508E+14  Parms: VV      M1      
 Compute Stats, Diag. #    225  SItaux    vol(   0 ): 3.513E+14  Parms: UU      U1      
 Compute Stats, Diag. #    226  SItauy    vol(   0 ): 3.508E+14  Parms: VV      U1      
 cg2d: Sum(rhs),rhsMax =   8.70036422218493E+01  2.98748253886912E-01
 Compute Stats, Diag. #    214  SIarea    vol(   0 ): 3.580E+14  Parms: SM      M1      
 Compute Stats, Diag. #    217  SIheff    vol(   0 ): 3.580E+14  Parms: SM      M1      
 Compute Stats, Diag. #    219  SIhsnow   vol(   0 ): 3.580E+14  Parms: SM      M1      
 Compute Stats, Diag. #     83  sIceLoad  vol(   0 ): 3.580E+14  Parms: SM      U1      
 Compute Stats, Diag. #    223  SIuice    vol(   0 ): 3.513E+14  Parms: UU      M1      
 Compute Stats, Diag. #    224  SIvice    vol(   0 ): 3.508E+14  Parms: VV      M1      
 Compute Stats, Diag. #    225  SItaux    vol(   0 ): 3.513E+14  Parms: UU      U1      
 Compute Stats, Diag. #    226  SItauy    vol(   0 ): 3.508E+14  Parms: VV      U1      
 cg2d: Sum(rhs),rhsMax =   8.75382778706251E+01  2.98236829263205E-01
(PID.TID 0000.0001)      cg2d_init_res =   4.79294638872409E-01
(PID.TID 0000.0001)      cg2d_iters(min,last) =      -1      33
(PID.TID 0000.0001)      cg2d_last_res =   2.41902127918324E-05
(PID.TID 0000.0001) // =======================================================
(PID.TID 0000.0001) // Begin MONITOR dynamic field statistics
(PID.TID 0000.0001) // =======================================================
(PID.TID 0000.0001) %MON time_tsnumber                =                    40
(PID.TID 0000.0001) %MON time_secondsf                =   3.6000000000000E+04
(PID.TID 0000.0001) %MON dynstat_eta_max              =   1.1509111223885E+00
(PID.TID 0000.0001) %MON dynstat_eta_min              =  -3.7883001877639E+00
(PID.TID 0000.0001) %MON dynstat_eta_mean             =  -2.7691153077572E-03
(PID.TID 0000.0001) %MON dynstat_eta_sd               =   7.1768436199162E-01
(PID.TID 0000.0001) %MON dynstat_eta_del2             =   8.8654791126959E-05
(PID.TID 0000.0001) %MON dynstat_uvel_max             =   6.5195899861590E-01
(PID.TID 0000.0001) %MON dynstat_uvel_min             =  -1.3848608629755E+00
(PID.TID 0000.0001) %MON dynstat_uvel_mean            =   1.7907514551032E-03
(PID.TID 0000.0001) %MON dynstat_uvel_sd              =   2.1764334306801E-02
(PID.TID 0000.0001) %MON dynstat_uvel_del2            =   1.3414597537905E-05
(PID.TID 0000.0001) %MON dynstat_vvel_max             =   1.1686279360606E+00
(PID.TID 0000.0001) %MON dynstat_vvel_min             =  -9.3225479130286E-01
(PID.TID 0000.0001) %MON dynstat_vvel_mean            =   1.4646936312311E-03
(PID.TID 0000.0001) %MON dynstat_vvel_sd              =   2.3221526109079E-02
(PID.TID 0000.0001) %MON dynstat_vvel_del2            =   1.4319393300364E-05
(PID.TID 0000.0001) %MON dynstat_wvel_max             =   2.8592249657450E-03
(PID.TID 0000.0001) %MON dynstat_wvel_min             =  -3.9897514614380E-03
(PID.TID 0000.0001) %MON dynstat_wvel_mean            =   7.0316953270524E-08
(PID.TID 0000.0001) %MON dynstat_wvel_sd              =   3.5768828805182E-05
(PID.TID 0000.0001) %MON dynstat_wvel_del2            =   5.2615460923946E-08
(PID.TID 0000.0001) %MON dynstat_theta_max            =   3.2661306348609E+01
(PID.TID 0000.0001) %MON dynstat_theta_min            =  -2.0423328465924E+00
(PID.TID 0000.0001) %MON dynstat_theta_mean           =   3.5906165506201E+00
(PID.TID 0000.0001) %MON dynstat_theta_sd             =   4.4366402012775E+00
(PID.TID 0000.0001) %MON dynstat_theta_del2           =   1.0748340088396E-04
(PID.TID 0000.0001) %MON dynstat_salt_max             =   4.0711522727649E+01
(PID.TID 0000.0001) %MON dynstat_salt_min             =   1.8868667047816E+01
(PID.TID 0000.0001) %MON dynstat_salt_mean            =   3.4725663507223E+01
(PID.TID 0000.0001) %MON dynstat_salt_sd              =   3.7728735234407E-01
(PID.TID 0000.0001) %MON dynstat_salt_del2            =   2.6838594620497E-05
(PID.TID 0000.0001) %MON dynstat_sst_max              =   3.2661306348609E+01
(PID.TID 0000.0001) %MON dynstat_sst_min              =  -1.9289004194424E+00
(PID.TID 0000.0001) %MON dynstat_sst_mean             =   1.8500118862657E+01
(PID.TID 0000.0001) %MON dynstat_sst_sd               =   1.0105442500953E+01
(PID.TID 0000.0001) %MON dynstat_sst_del2             =   8.6929902396999E-04
(PID.TID 0000.0001) %MON dynstat_sss_max              =   3.9503636141607E+01
(PID.TID 0000.0001) %MON dynstat_sss_min              =   1.8868667047816E+01
(PID.TID 0000.0001) %MON dynstat_sss_mean             =   3.4685410110071E+01
(PID.TID 0000.0001) %MON dynstat_sss_sd               =   1.1249672870712E+00
(PID.TID 0000.0001) %MON dynstat_sss_del2             =   4.3065245782519E-04
(PID.TID 0000.0001) %MON forcing_qnet_max             =   4.6864087257282E+03
(PID.TID 0000.0001) %MON forcing_qnet_min             =  -9.4432687086403E+02
(PID.TID 0000.0001) %MON forcing_qnet_mean            =   4.2497603841721E+01
(PID.TID 0000.0001) %MON forcing_qnet_sd              =   1.8506974834124E+02
(PID.TID 0000.0001) %MON forcing_qnet_del2            =   5.3437545822484E-01
(PID.TID 0000.0001) %MON forcing_qsw_max              =   0.0000000000000E+00
(PID.TID 0000.0001) %MON forcing_qsw_min              =  -1.1052056673589E+02
(PID.TID 0000.0001) %MON forcing_qsw_mean             =  -1.4935312291211E+01
(PID.TID 0000.0001) %MON forcing_qsw_sd               =   2.6959627641459E+01
(PID.TID 0000.0001) %MON forcing_qsw_del2             =   1.9302840440181E-02
(PID.TID 0000.0001) %MON forcing_empmr_max            =   3.9284941740334E-03
(PID.TID 0000.0001) %MON forcing_empmr_min            =  -1.3375818729401E-01
(PID.TID 0000.0001) %MON forcing_empmr_mean           =   1.9336319825888E-05
(PID.TID 0000.0001) %MON forcing_empmr_sd             =   4.3416192481159E-04
(PID.TID 0000.0001) %MON forcing_empmr_del2           =   6.8272509802504E-06
(PID.TID 0000.0001) %MON forcing_fu_max               =   9.8398068547249E-01
(PID.TID 0000.0001) %MON forcing_fu_min               =  -8.7285819649696E-01
(PID.TID 0000.0001) %MON forcing_fu_mean              =   1.0934967318918E-02
(PID.TID 0000.0001) %MON forcing_fu_sd                =   1.0425759404555E-01
(PID.TID 0000.0001) %MON forcing_fu_del2              =   1.4195208039599E-04
(PID.TID 0000.0001) %MON forcing_fv_max               =   7.0862188935280E-01
(PID.TID 0000.0001) %MON forcing_fv_min               =  -8.2493946496939E-01
(PID.TID 0000.0001) %MON forcing_fv_mean              =  -7.1479698079256E-03
(PID.TID 0000.0001) %MON forcing_fv_sd                =   1.0504049886104E-01
(PID.TID 0000.0001) %MON forcing_fv_del2              =   1.2822217583677E-04
(PID.TID 0000.0001) %MON trAdv_CFL_u_max              =   2.2172324839599E-02
(PID.TID 0000.0001) %MON trAdv_CFL_v_max              =   2.2052995292530E-02
(PID.TID 0000.0001) %MON trAdv_CFL_w_max              =   6.6237038045978E-02
(PID.TID 0000.0001) %MON advcfl_uvel_max              =   2.2912405900979E-02
(PID.TID 0000.0001) %MON advcfl_vvel_max              =   2.0744063569445E-02
(PID.TID 0000.0001) %MON advcfl_wvel_max              =   6.3369128598775E-02
(PID.TID 0000.0001) %MON advcfl_W_hf_max              =   6.4527824787563E-02
(PID.TID 0000.0001) %MON pe_b_mean                    =   6.7753546142281E-04
(PID.TID 0000.0001) %MON ke_max                       =   8.7017957395794E-01
(PID.TID 0000.0001) %MON ke_mean                      =   4.9100825601132E-04
(PID.TID 0000.0001) %MON ke_vol                       =   1.3349968916124E+18
(PID.TID 0000.0001) %MON vort_r_min                   =  -3.9189869440512E-05
(PID.TID 0000.0001) %MON vort_r_max                   =   3.9790296744115E-05
(PID.TID 0000.0001) %MON vort_a_mean                  =  -1.9727864647440E-05
(PID.TID 0000.0001) %MON vort_a_sd                    =   7.4543352929715E-05
(PID.TID 0000.0001) %MON vort_p_mean                  =  -2.1760546264920E-05
(PID.TID 0000.0001) %MON vort_p_sd                    =   9.7244050055907E-05
(PID.TID 0000.0001) %MON surfExpan_theta_mean         =  -1.5415087410770E-06
(PID.TID 0000.0001) %MON surfExpan_salt_mean          =  -3.1753997685683E-07
(PID.TID 0000.0001) // =======================================================
(PID.TID 0000.0001) // End MONITOR dynamic field statistics
(PID.TID 0000.0001) // =======================================================
(PID.TID 0000.0001) // =======================================================
(PID.TID 0000.0001) // Begin MONITOR SEAICE statistics
(PID.TID 0000.0001) // =======================================================
(PID.TID 0000.0001) %MON seaice_tsnumber              =                    40
(PID.TID 0000.0001) %MON seaice_time_sec              =   3.6000000000000E+04
(PID.TID 0000.0001) %MON seaice_uice_max              =   6.5423991872665E-01
(PID.TID 0000.0001) %MON seaice_uice_min              =  -9.8999663246844E-01
(PID.TID 0000.0001) %MON seaice_uice_mean             =  -4.0633451897431E-03
(PID.TID 0000.0001) %MON seaice_uice_sd               =   1.4280945306955E-01
(PID.TID 0000.0001) %MON seaice_uice_del2             =   1.9933711555622E-04
(PID.TID 0000.0001) %MON seaice_vice_max              =   9.9368815703927E-01
(PID.TID 0000.0001) %MON seaice_vice_min              =  -9.1300174768228E-01
(PID.TID 0000.0001) %MON seaice_vice_mean             =  -1.0656550079243E-02
(PID.TID 0000.0001) %MON seaice_vice_sd               =   1.3133719175193E-01
(PID.TID 0000.0001) %MON seaice_vice_del2             =   1.7317338189356E-04
(PID.TID 0000.0001) %MON seaice_area_max              =   1.0000000000000E+00
(PID.TID 0000.0001) %MON seaice_area_min              =   0.0000000000000E+00
(PID.TID 0000.0001) %MON seaice_area_mean             =   7.1832272905409E-02
(PID.TID 0000.0001) %MON seaice_area_sd               =   2.3737493589996E-01
(PID.TID 0000.0001) %MON seaice_area_del2             =   4.0882597783504E-04
(PID.TID 0000.0001) %MON seaice_heff_max              =   2.5120471572710E+01
(PID.TID 0000.0001) %MON seaice_heff_min              =   0.0000000000000E+00
(PID.TID 0000.0001) %MON seaice_heff_mean             =   2.1695941511610E-01
(PID.TID 0000.0001) %MON seaice_heff_sd               =   1.0638904622753E+00
(PID.TID 0000.0001) %MON seaice_heff_del2             =   3.3430265445178E-03
(PID.TID 0000.0001) %MON seaice_hsnow_max             =   8.2967978190168E+00
(PID.TID 0000.0001) %MON seaice_hsnow_min             =   0.0000000000000E+00
(PID.TID 0000.0001) %MON seaice_hsnow_mean            =   2.4632138010737E-02
(PID.TID 0000.0001) %MON seaice_hsnow_sd              =   1.5455619655328E-01
(PID.TID 0000.0001) %MON seaice_hsnow_del2            =   1.0652883525621E-03
(PID.TID 0000.0001) // =======================================================
(PID.TID 0000.0001) // End MONITOR SEAICE statistics
(PID.TID 0000.0001) // =======================================================
 Computing Diagnostic #     86  oceQnet      Counter:       4   Parms: SM      U1      
 Computing Diagnostic #     87  oceQsw       Counter:       4   Parms: SM      U1      
 Computing Diagnostic #     84  oceFWflx     Counter:       4   Parms: SM      U1      
 Computing Diagnostic #     85  oceSflux     Counter:       4   Parms: SM      U1      
 Computing Diagnostic #     80  oceTAUX      Counter:       4   Parms: UU      U1      
           Vector  Mate for  oceTAUX      Diagnostic #     81  oceTAUY  exists 
 Computing Diagnostic #     81  oceTAUY      Counter:       4   Parms: VV      U1      
           Vector  Mate for  oceTAUY      Diagnostic #     80  oceTAUX  exists 
 Computing Diagnostic #     26  THETA        Counter:       4   Parms: SMR     MR      
 Computing Diagnostic #     27  SALT         Counter:       4   Parms: SMR     MR      
 Computing Diagnostic #     30  UVEL         Counter:       4   Parms: UUR     MR      
           Vector  Mate for  UVEL         Diagnostic #     31  VVEL     exists 
 Computing Diagnostic #     31  VVEL         Counter:       4   Parms: VVR     MR      
           Vector  Mate for  VVEL         Diagnostic #     30  UVEL     exists 
 Computing Diagnostic #    214  SIarea       Counter:       4   Parms: SM      M1      
 Computing Diagnostic #    217  SIheff       Counter:       4   Parms: SM      M1      
 Computing Diagnostic #    219  SIhsnow      Counter:       4   Parms: SM      M1      
 Computing Diagnostic #     83  sIceLoad     Counter:       4   Parms: SM      U1      
 Computing Diagnostic #    223  SIuice       Counter:       4   Parms: UU      M1      
           Vector  Mate for  SIuice       Diagnostic #    224  SIvice   exists 
 Computing Diagnostic #    224  SIvice       Counter:       4   Parms: VV      M1      
           Vector  Mate for  SIvice       Diagnostic #    223  SIuice   exists 
 Computing Diagnostic #    225  SItaux       Counter:       4   Parms: UU      U1      
           Vector  Mate for  SItaux       Diagnostic #    226  SItauy   exists 
 Computing Diagnostic #    226  SItauy       Counter:       4   Parms: VV      U1      
           Vector  Mate for  SItauy       Diagnostic #    225  SItaux   exists 
 Computing Diagnostic #    285  SIareaN      Counter:       4   Parms: SM      MX      
 Computing Diagnostic #    284  SIheffN      Counter:       4   Parms: SM      MX      
 Computing Diagnostic #    286  SIhsnowN     Counter:       4   Parms: SM      MX      
 Compute Stats, Diag. #    214  SIarea    vol(   0 ): 3.580E+14  Parms: SM      M1      
 Compute Stats, Diag. #    217  SIheff    vol(   0 ): 3.580E+14  Parms: SM      M1      
 Compute Stats, Diag. #    219  SIhsnow   vol(   0 ): 3.580E+14  Parms: SM      M1      
 Compute Stats, Diag. #     83  sIceLoad  vol(   0 ): 3.580E+14  Parms: SM      U1      
 Compute Stats, Diag. #    223  SIuice    vol(   0 ): 3.513E+14  Parms: UU      M1      
 Compute Stats, Diag. #    224  SIvice    vol(   0 ): 3.508E+14  Parms: VV      M1      
 Compute Stats, Diag. #    225  SItaux    vol(   0 ): 3.513E+14  Parms: UU      U1      
 Compute Stats, Diag. #    226  SItauy    vol(   0 ): 3.508E+14  Parms: VV      U1      
 SEAICE_LSR: Residual Initial ipass,Uice,Vice=    1  2.03327966E-02  2.13230079E-02
 SEAICE_LSR (ipass=   1) iters,dU,Resid=  1500  3.26891342E-09  4.49084558E-07
 SEAICE_LSR (ipass=   1) iters,dV,Resid=  1500  3.75139440E-10  2.09469520E-07
 SEAICE_LSR: Residual Initial ipass,Uice,Vice=    2  1.87083145E-02  2.00997492E-02
 SEAICE_LSR (ipass=   2) iters,dU,Resid=  1500  2.40382722E-09  2.95306724E-07
 SEAICE_LSR (ipass=   2) iters,dV,Resid=  1500  2.47091429E-10  1.71153527E-07
 cg2d: Sum(rhs),rhsMax =   8.80484853688964E+01  2.97769020630937E-01
 Compute Stats, Diag. #    214  SIarea    vol(   0 ): 3.580E+14  Parms: SM      M1      
 Compute Stats, Diag. #    217  SIheff    vol(   0 ): 3.580E+14  Parms: SM      M1      
 Compute Stats, Diag. #    219  SIhsnow   vol(   0 ): 3.580E+14  Parms: SM      M1      
 Compute Stats, Diag. #     83  sIceLoad  vol(   0 ): 3.580E+14  Parms: SM      U1      
 Compute Stats, Diag. #    223  SIuice    vol(   0 ): 3.513E+14  Parms: UU      M1      
 Compute Stats, Diag. #    224  SIvice    vol(   0 ): 3.508E+14  Parms: VV      M1      
 Compute Stats, Diag. #    225  SItaux    vol(   0 ): 3.513E+14  Parms: UU      U1      
 Compute Stats, Diag. #    226  SItauy    vol(   0 ): 3.508E+14  Parms: VV      U1      
 cg2d: Sum(rhs),rhsMax =   8.85359718428961E+01  2.97397252810041E-01
 Compute Stats, Diag. #    214  SIarea    vol(   0 ): 3.580E+14  Parms: SM      M1      
 Compute Stats, Diag. #    217  SIheff    vol(   0 ): 3.580E+14  Parms: SM      M1      
 Compute Stats, Diag. #    219  SIhsnow   vol(   0 ): 3.580E+14  Parms: SM      M1      
 Compute Stats, Diag. #     83  sIceLoad  vol(   0 ): 3.580E+14  Parms: SM      U1      
 Compute Stats, Diag. #    223  SIuice    vol(   0 ): 3.513E+14  Parms: UU      M1      
 Compute Stats, Diag. #    224  SIvice    vol(   0 ): 3.508E+14  Parms: VV      M1      
 Compute Stats, Diag. #    225  SItaux    vol(   0 ): 3.513E+14  Parms: UU      U1      
 Compute Stats, Diag. #    226  SItauy    vol(   0 ): 3.508E+14  Parms: VV      U1      
 cg2d: Sum(rhs),rhsMax =   8.90031322831079E+01  2.97155084609282E-01
 Compute Stats, Diag. #    214  SIarea    vol(   0 ): 3.580E+14  Parms: SM      M1      
 Compute Stats, Diag. #    217  SIheff    vol(   0 ): 3.580E+14  Parms: SM      M1      
 Compute Stats, Diag. #    219  SIhsnow   vol(   0 ): 3.580E+14  Parms: SM      M1      
 Compute Stats, Diag. #     83  sIceLoad  vol(   0 ): 3.580E+14  Parms: SM      U1      
 Compute Stats, Diag. #    223  SIuice    vol(   0 ): 3.513E+14  Parms: UU      M1      
 Compute Stats, Diag. #    224  SIvice    vol(   0 ): 3.508E+14  Parms: VV      M1      
 Compute Stats, Diag. #    225  SItaux    vol(   0 ): 3.513E+14  Parms: UU      U1      
 Compute Stats, Diag. #    226  SItauy    vol(   0 ): 3.508E+14  Parms: VV      U1      
 cg2d: Sum(rhs),rhsMax =   8.94495662064173E+01  2.97055823205298E-01
 Computing Diagnostic #     86  oceQnet      Counter:       4   Parms: SM      U1      
 Computing Diagnostic #     87  oceQsw       Counter:       4   Parms: SM      U1      
 Computing Diagnostic #     84  oceFWflx     Counter:       4   Parms: SM      U1      
 Computing Diagnostic #     85  oceSflux     Counter:       4   Parms: SM      U1      
 Computing Diagnostic #     80  oceTAUX      Counter:       4   Parms: UU      U1      
           Vector  Mate for  oceTAUX      Diagnostic #     81  oceTAUY  exists 
 Computing Diagnostic #     81  oceTAUY      Counter:       4   Parms: VV      U1      
           Vector  Mate for  oceTAUY      Diagnostic #     80  oceTAUX  exists 
 Computing Diagnostic #     26  THETA        Counter:       4   Parms: SMR     MR      
 Computing Diagnostic #     27  SALT         Counter:       4   Parms: SMR     MR      
 Computing Diagnostic #     30  UVEL         Counter:       4   Parms: UUR     MR      
           Vector  Mate for  UVEL         Diagnostic #     31  VVEL     exists 
 Computing Diagnostic #     31  VVEL         Counter:       4   Parms: VVR     MR      
           Vector  Mate for  VVEL         Diagnostic #     30  UVEL     exists 
 Computing Diagnostic #    214  SIarea       Counter:       4   Parms: SM      M1      
 Computing Diagnostic #    217  SIheff       Counter:       4   Parms: SM      M1      
 Computing Diagnostic #    219  SIhsnow      Counter:       4   Parms: SM      M1      
 Computing Diagnostic #     83  sIceLoad     Counter:       4   Parms: SM      U1      
 Computing Diagnostic #    223  SIuice       Counter:       4   Parms: UU      M1      
           Vector  Mate for  SIuice       Diagnostic #    224  SIvice   exists 
 Computing Diagnostic #    224  SIvice       Counter:       4   Parms: VV      M1      
           Vector  Mate for  SIvice       Diagnostic #    223  SIuice   exists 
 Computing Diagnostic #    225  SItaux       Counter:       4   Parms: UU      U1      
           Vector  Mate for  SItaux       Diagnostic #    226  SItauy   exists 
 Computing Diagnostic #    226  SItauy       Counter:       4   Parms: VV      U1      
           Vector  Mate for  SItauy       Diagnostic #    225  SItaux   exists 
 Computing Diagnostic #    285  SIareaN      Counter:       4   Parms: SM      MX      
 Computing Diagnostic #    284  SIheffN      Counter:       4   Parms: SM      MX      
 Computing Diagnostic #    286  SIhsnowN     Counter:       4   Parms: SM      MX      
 Compute Stats, Diag. #    214  SIarea    vol(   0 ): 3.580E+14  Parms: SM      M1      
 Compute Stats, Diag. #    217  SIheff    vol(   0 ): 3.580E+14  Parms: SM      M1      
 Compute Stats, Diag. #    219  SIhsnow   vol(   0 ): 3.580E+14  Parms: SM      M1      
 Compute Stats, Diag. #     83  sIceLoad  vol(   0 ): 3.580E+14  Parms: SM      U1      
 Compute Stats, Diag. #    223  SIuice    vol(   0 ): 3.513E+14  Parms: UU      M1      
 Compute Stats, Diag. #    224  SIvice    vol(   0 ): 3.508E+14  Parms: VV      M1      
 Compute Stats, Diag. #    225  SItaux    vol(   0 ): 3.513E+14  Parms: UU      U1      
 Compute Stats, Diag. #    226  SItauy    vol(   0 ): 3.508E+14  Parms: VV      U1      
 cg2d: Sum(rhs),rhsMax =   8.98768317337852E+01  2.97095248640403E-01
 Compute Stats, Diag. #    214  SIarea    vol(   0 ): 3.580E+14  Parms: SM      M1      
 Compute Stats, Diag. #    217  SIheff    vol(   0 ): 3.580E+14  Parms: SM      M1      
 Compute Stats, Diag. #    219  SIhsnow   vol(   0 ): 3.580E+14  Parms: SM      M1      
 Compute Stats, Diag. #     83  sIceLoad  vol(   0 ): 3.580E+14  Parms: SM      U1      
 Compute Stats, Diag. #    223  SIuice    vol(   0 ): 3.513E+14  Parms: UU      M1      
 Compute Stats, Diag. #    224  SIvice    vol(   0 ): 3.508E+14  Parms: VV      M1      
 Compute Stats, Diag. #    225  SItaux    vol(   0 ): 3.513E+14  Parms: UU      U1      
 Compute Stats, Diag. #    226  SItauy    vol(   0 ): 3.508E+14  Parms: VV      U1      
 cg2d: Sum(rhs),rhsMax =   9.02803711114753E+01  2.97253722323535E-01
 Compute Stats, Diag. #    214  SIarea    vol(   0 ): 3.580E+14  Parms: SM      M1      
 Compute Stats, Diag. #    217  SIheff    vol(   0 ): 3.580E+14  Parms: SM      M1      
 Compute Stats, Diag. #    219  SIhsnow   vol(   0 ): 3.580E+14  Parms: SM      M1      
 Compute Stats, Diag. #     83  sIceLoad  vol(   0 ): 3.580E+14  Parms: SM      U1      
 Compute Stats, Diag. #    223  SIuice    vol(   0 ): 3.513E+14  Parms: UU      M1      
 Compute Stats, Diag. #    224  SIvice    vol(   0 ): 3.508E+14  Parms: VV      M1      
 Compute Stats, Diag. #    225  SItaux    vol(   0 ): 3.513E+14  Parms: UU      U1      
 Compute Stats, Diag. #    226  SItauy    vol(   0 ): 3.508E+14  Parms: VV      U1      
 cg2d: Sum(rhs),rhsMax =   9.06644804568982E+01  2.97501169530549E-01
 Compute Stats, Diag. #    214  SIarea    vol(   0 ): 3.580E+14  Parms: SM      M1      
 Compute Stats, Diag. #    217  SIheff    vol(   0 ): 3.580E+14  Parms: SM      M1      
 Compute Stats, Diag. #    219  SIhsnow   vol(   0 ): 3.580E+14  Parms: SM      M1      
 Compute Stats, Diag. #     83  sIceLoad  vol(   0 ): 3.580E+14  Parms: SM      U1      
 Compute Stats, Diag. #    223  SIuice    vol(   0 ): 3.513E+14  Parms: UU      M1      
 Compute Stats, Diag. #    224  SIvice    vol(   0 ): 3.508E+14  Parms: VV      M1      
 Compute Stats, Diag. #    225  SItaux    vol(   0 ): 3.513E+14  Parms: UU      U1      
 Compute Stats, Diag. #    226  SItauy    vol(   0 ): 3.508E+14  Parms: VV      U1      
 cg2d: Sum(rhs),rhsMax =   9.10288852978281E+01  2.97801406974204E-01
(PID.TID 0000.0001)      cg2d_init_res =   4.18238028301023E-01
(PID.TID 0000.0001)      cg2d_iters(min,last) =      -1      31
(PID.TID 0000.0001)      cg2d_last_res =   2.43987900882961E-05
(PID.TID 0000.0001) // =======================================================
(PID.TID 0000.0001) // Begin MONITOR dynamic field statistics
(PID.TID 0000.0001) // =======================================================
(PID.TID 0000.0001) %MON time_tsnumber                =                    48
(PID.TID 0000.0001) %MON time_secondsf                =   4.3200000000000E+04
(PID.TID 0000.0001) %MON dynstat_eta_max              =   1.1211077304354E+00
(PID.TID 0000.0001) %MON dynstat_eta_min              =  -3.4967984961651E+00
(PID.TID 0000.0001) %MON dynstat_eta_mean             =  -2.8795343689400E-03
(PID.TID 0000.0001) %MON dynstat_eta_sd               =   7.1361716310835E-01
(PID.TID 0000.0001) %MON dynstat_eta_del2             =   8.8838064052421E-05
(PID.TID 0000.0001) %MON dynstat_uvel_max             =   7.4259779547181E-01
(PID.TID 0000.0001) %MON dynstat_uvel_min             =  -1.3543009616469E+00
(PID.TID 0000.0001) %MON dynstat_uvel_mean            =   1.7428475271451E-03
(PID.TID 0000.0001) %MON dynstat_uvel_sd              =   2.1666000661885E-02
(PID.TID 0000.0001) %MON dynstat_uvel_del2            =   1.3287389612575E-05
(PID.TID 0000.0001) %MON dynstat_vvel_max             =   1.2326237018785E+00
(PID.TID 0000.0001) %MON dynstat_vvel_min             =  -9.3167543286764E-01
(PID.TID 0000.0001) %MON dynstat_vvel_mean            =   1.5416085526498E-03
(PID.TID 0000.0001) %MON dynstat_vvel_sd              =   2.3060493298569E-02
(PID.TID 0000.0001) %MON dynstat_vvel_del2            =   1.3992802458104E-05
(PID.TID 0000.0001) %MON dynstat_wvel_max             =   3.3939197262907E-03
(PID.TID 0000.0001) %MON dynstat_wvel_min             =  -3.4218526955789E-03
(PID.TID 0000.0001) %MON dynstat_wvel_mean            =   6.3025541920653E-08
(PID.TID 0000.0001) %MON dynstat_wvel_sd              =   3.5289105777205E-05
(PID.TID 0000.0001) %MON dynstat_wvel_del2            =   5.3745832983189E-08
(PID.TID 0000.0001) %MON dynstat_theta_max            =   3.2659925078571E+01
(PID.TID 0000.0001) %MON dynstat_theta_min            =  -2.0423576983272E+00
(PID.TID 0000.0001) %MON dynstat_theta_mean           =   3.5905949188848E+00
(PID.TID 0000.0001) %MON dynstat_theta_sd             =   4.4365434721723E+00
(PID.TID 0000.0001) %MON dynstat_theta_del2           =   1.0688222402359E-04
(PID.TID 0000.0001) %MON dynstat_salt_max             =   4.0711524052542E+01
(PID.TID 0000.0001) %MON dynstat_salt_min             =   1.8869877308131E+01
(PID.TID 0000.0001) %MON dynstat_salt_mean            =   3.4725651999590E+01
(PID.TID 0000.0001) %MON dynstat_salt_sd              =   3.7723347019185E-01
(PID.TID 0000.0001) %MON dynstat_salt_del2            =   2.7338488847396E-05
(PID.TID 0000.0001) %MON dynstat_sst_max              =   3.2659925078571E+01
(PID.TID 0000.0001) %MON dynstat_sst_min              =  -1.9186104504334E+00
(PID.TID 0000.0001) %MON dynstat_sst_mean             =   1.8494215728707E+01
(PID.TID 0000.0001) %MON dynstat_sst_sd               =   1.0105418379527E+01
(PID.TID 0000.0001) %MON dynstat_sst_del2             =   8.6636423684327E-04
(PID.TID 0000.0001) %MON dynstat_sss_max              =   3.9473393326547E+01
(PID.TID 0000.0001) %MON dynstat_sss_min              =   1.8869877308131E+01
(PID.TID 0000.0001) %MON dynstat_sss_mean             =   3.4684599251681E+01
(PID.TID 0000.0001) %MON dynstat_sss_sd               =   1.1236676829208E+00
(PID.TID 0000.0001) %MON dynstat_sss_del2             =   4.8984702370363E-04
(PID.TID 0000.0001) %MON forcing_qnet_max             =   3.0744472656250E+03
(PID.TID 0000.0001) %MON forcing_qnet_min             =  -8.1830212718411E+02
(PID.TID 0000.0001) %MON forcing_qnet_mean            =   4.6340097094400E+01
(PID.TID 0000.0001) %MON forcing_qnet_sd              =   1.7614709846578E+02
(PID.TID 0000.0001) %MON forcing_qnet_del2            =   4.7799646072992E-01
(PID.TID 0000.0001) %MON forcing_qsw_max              =   0.0000000000000E+00
(PID.TID 0000.0001) %MON forcing_qsw_min              =  -1.1088354844250E+02
(PID.TID 0000.0001) %MON forcing_qsw_mean             =  -1.4085606046024E+01
(PID.TID 0000.0001) %MON forcing_qsw_sd               =   2.5542449697353E+01
(PID.TID 0000.0001) %MON forcing_qsw_del2             =   1.9201300602306E-02
(PID.TID 0000.0001) %MON forcing_empmr_max            =   2.4254054296762E-03
(PID.TID 0000.0001) %MON forcing_empmr_min            =  -1.3776195049286E-01
(PID.TID 0000.0001) %MON forcing_empmr_mean           =   1.3179533700106E-05
(PID.TID 0000.0001) %MON forcing_empmr_sd             =   4.5839126383088E-04
(PID.TID 0000.0001) %MON forcing_empmr_del2           =   7.6224362333465E-06
(PID.TID 0000.0001) %MON forcing_fu_max               =   1.0505737066269E+00
(PID.TID 0000.0001) %MON forcing_fu_min               =  -8.0509114265442E-01
(PID.TID 0000.0001) %MON forcing_fu_mean              =   1.0474539339792E-02
(PID.TID 0000.0001) %MON forcing_fu_sd                =   1.0293420919629E-01
(PID.TID 0000.0001) %MON forcing_fu_del2              =   1.3950018709918E-04
(PID.TID 0000.0001) %MON forcing_fv_max               =   7.8207081556320E-01
(PID.TID 0000.0001) %MON forcing_fv_min               =  -7.9148485328927E-01
(PID.TID 0000.0001) %MON forcing_fv_mean              =  -7.5488733920979E-03
(PID.TID 0000.0001) %MON forcing_fv_sd                =   1.0401449448683E-01
(PID.TID 0000.0001) %MON forcing_fv_del2              =   1.2820267854630E-04
(PID.TID 0000.0001) %MON trAdv_CFL_u_max              =   2.1668743373689E-02
(PID.TID 0000.0001) %MON trAdv_CFL_v_max              =   2.3184854770498E-02
(PID.TID 0000.0001) %MON trAdv_CFL_w_max              =   8.5498413026881E-02
(PID.TID 0000.0001) %MON advcfl_uvel_max              =   2.2406794917051E-02
(PID.TID 0000.0001) %MON advcfl_vvel_max              =   2.1880038667539E-02
(PID.TID 0000.0001) %MON advcfl_wvel_max              =   8.2766432790208E-02
(PID.TID 0000.0001) %MON advcfl_W_hf_max              =   8.3895444456393E-02
(PID.TID 0000.0001) %MON pe_b_mean                    =   6.6987883551813E-04
(PID.TID 0000.0001) %MON ke_max                       =   9.1803975873193E-01
(PID.TID 0000.0001) %MON ke_mean                      =   4.8538484441910E-04
(PID.TID 0000.0001) %MON ke_vol                       =   1.3349968501530E+18
(PID.TID 0000.0001) %MON vort_r_min                   =  -3.8925587949673E-05
(PID.TID 0000.0001) %MON vort_r_max                   =   3.7522210810092E-05
(PID.TID 0000.0001) %MON vort_a_mean                  =  -1.9727864647440E-05
(PID.TID 0000.0001) %MON vort_a_sd                    =   7.4543359760403E-05
(PID.TID 0000.0001) %MON vort_p_mean                  =  -2.1760547103319E-05
(PID.TID 0000.0001) %MON vort_p_sd                    =   9.7244272799377E-05
(PID.TID 0000.0001) %MON surfExpan_theta_mean         =  -2.1969822966636E-06
(PID.TID 0000.0001) %MON surfExpan_salt_mean          =  -2.2788994392220E-07
(PID.TID 0000.0001) // =======================================================
(PID.TID 0000.0001) // End MONITOR dynamic field statistics
(PID.TID 0000.0001) // =======================================================
(PID.TID 0000.0001) // =======================================================
(PID.TID 0000.0001) // Begin MONITOR SEAICE statistics
(PID.TID 0000.0001) // =======================================================
(PID.TID 0000.0001) %MON seaice_tsnumber              =                    48
(PID.TID 0000.0001) %MON seaice_time_sec              =   4.3200000000000E+04
(PID.TID 0000.0001) %MON seaice_uice_max              =   6.3795769168875E-01
(PID.TID 0000.0001) %MON seaice_uice_min              =  -9.4169099838203E-01
(PID.TID 0000.0001) %MON seaice_uice_mean             =  -2.9994444107491E-03
(PID.TID 0000.0001) %MON seaice_uice_sd               =   1.3936373897336E-01
(PID.TID 0000.0001) %MON seaice_uice_del2             =   1.9547820251459E-04
(PID.TID 0000.0001) %MON seaice_vice_max              =   1.0602702437300E+00
(PID.TID 0000.0001) %MON seaice_vice_min              =  -9.1174479280561E-01
(PID.TID 0000.0001) %MON seaice_vice_mean             =  -1.3394711518863E-02
(PID.TID 0000.0001) %MON seaice_vice_sd               =   1.3082344230893E-01
(PID.TID 0000.0001) %MON seaice_vice_del2             =   1.7010761728135E-04
(PID.TID 0000.0001) %MON seaice_area_max              =   1.0000000000000E+00
(PID.TID 0000.0001) %MON seaice_area_min              =   0.0000000000000E+00
(PID.TID 0000.0001) %MON seaice_area_mean             =   7.1656338789889E-02
(PID.TID 0000.0001) %MON seaice_area_sd               =   2.3726143060728E-01
(PID.TID 0000.0001) %MON seaice_area_del2             =   3.9971970611579E-04
(PID.TID 0000.0001) %MON seaice_heff_max              =   2.5115427600698E+01
(PID.TID 0000.0001) %MON seaice_heff_min              =   0.0000000000000E+00
(PID.TID 0000.0001) %MON seaice_heff_mean             =   2.1703713367631E-01
(PID.TID 0000.0001) %MON seaice_heff_sd               =   1.0640804908494E+00
(PID.TID 0000.0001) %MON seaice_heff_del2             =   3.2797140867230E-03
(PID.TID 0000.0001) %MON seaice_hsnow_max             =   8.2951376290846E+00
(PID.TID 0000.0001) %MON seaice_hsnow_min             =   0.0000000000000E+00
(PID.TID 0000.0001) %MON seaice_hsnow_mean            =   2.4622173762162E-02
(PID.TID 0000.0001) %MON seaice_hsnow_sd              =   1.5413430165856E-01
(PID.TID 0000.0001) %MON seaice_hsnow_del2            =   1.0444905253225E-03
(PID.TID 0000.0001) // =======================================================
(PID.TID 0000.0001) // End MONITOR SEAICE statistics
(PID.TID 0000.0001) // =======================================================
 Computing Diagnostic #     86  oceQnet      Counter:       4   Parms: SM      U1      
 Computing Diagnostic #     87  oceQsw       Counter:       4   Parms: SM      U1      
 Computing Diagnostic #     84  oceFWflx     Counter:       4   Parms: SM      U1      
 Computing Diagnostic #     85  oceSflux     Counter:       4   Parms: SM      U1      
 Computing Diagnostic #     80  oceTAUX      Counter:       4   Parms: UU      U1      
           Vector  Mate for  oceTAUX      Diagnostic #     81  oceTAUY  exists 
 Computing Diagnostic #     81  oceTAUY      Counter:       4   Parms: VV      U1      
           Vector  Mate for  oceTAUY      Diagnostic #     80  oceTAUX  exists 
 Computing Diagnostic #     26  THETA        Counter:       4   Parms: SMR     MR      
 Computing Diagnostic #     27  SALT         Counter:       4   Parms: SMR     MR      
 Computing Diagnostic #     30  UVEL         Counter:       4   Parms: UUR     MR      
           Vector  Mate for  UVEL         Diagnostic #     31  VVEL     exists 
 Computing Diagnostic #     31  VVEL         Counter:       4   Parms: VVR     MR      
           Vector  Mate for  VVEL         Diagnostic #     30  UVEL     exists 
 Computing Diagnostic #    214  SIarea       Counter:       4   Parms: SM      M1      
 Computing Diagnostic #    217  SIheff       Counter:       4   Parms: SM      M1      
 Computing Diagnostic #    219  SIhsnow      Counter:       4   Parms: SM      M1      
 Computing Diagnostic #     83  sIceLoad     Counter:       4   Parms: SM      U1      
 Computing Diagnostic #    223  SIuice       Counter:       4   Parms: UU      M1      
           Vector  Mate for  SIuice       Diagnostic #    224  SIvice   exists 
 Computing Diagnostic #    224  SIvice       Counter:       4   Parms: VV      M1      
           Vector  Mate for  SIvice       Diagnostic #    223  SIuice   exists 
 Computing Diagnostic #    225  SItaux       Counter:       4   Parms: UU      U1      
           Vector  Mate for  SItaux       Diagnostic #    226  SItauy   exists 
 Computing Diagnostic #    226  SItauy       Counter:       4   Parms: VV      U1      
           Vector  Mate for  SItauy       Diagnostic #    225  SItaux   exists 
 Computing Diagnostic #    285  SIareaN      Counter:       4   Parms: SM      MX      
 Computing Diagnostic #    284  SIheffN      Counter:       4   Parms: SM      MX      
 Computing Diagnostic #    286  SIhsnowN     Counter:       4   Parms: SM      MX      
 Compute Stats, Diag. #    214  SIarea    vol(   0 ): 3.580E+14  Parms: SM      M1      
 Compute Stats, Diag. #    217  SIheff    vol(   0 ): 3.580E+14  Parms: SM      M1      
 Compute Stats, Diag. #    219  SIhsnow   vol(   0 ): 3.580E+14  Parms: SM      M1      
 Compute Stats, Diag. #     83  sIceLoad  vol(   0 ): 3.580E+14  Parms: SM      U1      
 Compute Stats, Diag. #    223  SIuice    vol(   0 ): 3.513E+14  Parms: UU      M1      
 Compute Stats, Diag. #    224  SIvice    vol(   0 ): 3.508E+14  Parms: VV      M1      
 Compute Stats, Diag. #    225  SItaux    vol(   0 ): 3.513E+14  Parms: UU      U1      
 Compute Stats, Diag. #    226  SItauy    vol(   0 ): 3.508E+14  Parms: VV      U1      
 SEAICE_LSR: Residual Initial ipass,Uice,Vice=    1  1.76975962E-02  1.77331737E-02
 SEAICE_LSR (ipass=   1) iters,dU,Resid=  1500  8.37673080E-09  5.97793963E-07
 SEAICE_LSR (ipass=   1) iters,dV,Resid=  1500  2.00145683E-10  9.62814819E-08
 SEAICE_LSR: Residual Initial ipass,Uice,Vice=    2  1.68075745E-02  1.70752256E-02
 SEAICE_LSR (ipass=   2) iters,dU,Resid=  1500  4.56311675E-09  2.89991788E-07
 SEAICE_LSR (ipass=   2) iters,dV,Resid=  1500  1.55469202E-10  7.31097350E-08
 cg2d: Sum(rhs),rhsMax =   9.13725289802804E+01  2.98116691238444E-01
 Compute Stats, Diag. #    214  SIarea    vol(   0 ): 3.580E+14  Parms: SM      M1      
 Compute Stats, Diag. #    217  SIheff    vol(   0 ): 3.580E+14  Parms: SM      M1      
 Compute Stats, Diag. #    219  SIhsnow   vol(   0 ): 3.580E+14  Parms: SM      M1      
 Compute Stats, Diag. #     83  sIceLoad  vol(   0 ): 3.580E+14  Parms: SM      U1      
 Compute Stats, Diag. #    223  SIuice    vol(   0 ): 3.513E+14  Parms: UU      M1      
 Compute Stats, Diag. #    224  SIvice    vol(   0 ): 3.508E+14  Parms: VV      M1      
 Compute Stats, Diag. #    225  SItaux    vol(   0 ): 3.513E+14  Parms: UU      U1      
 Compute Stats, Diag. #    226  SItauy    vol(   0 ): 3.508E+14  Parms: VV      U1      
 cg2d: Sum(rhs),rhsMax =   9.16989719717103E+01  2.98411402293392E-01
 Compute Stats, Diag. #    214  SIarea    vol(   0 ): 3.580E+14  Parms: SM      M1      
 Compute Stats, Diag. #    217  SIheff    vol(   0 ): 3.580E+14  Parms: SM      M1      
 Compute Stats, Diag. #    219  SIhsnow   vol(   0 ): 3.580E+14  Parms: SM      M1      
 Compute Stats, Diag. #     83  sIceLoad  vol(   0 ): 3.580E+14  Parms: SM      U1      
 Compute Stats, Diag. #    223  SIuice    vol(   0 ): 3.513E+14  Parms: UU      M1      
 Compute Stats, Diag. #    224  SIvice    vol(   0 ): 3.508E+14  Parms: VV      M1      
 Compute Stats, Diag. #    225  SItaux    vol(   0 ): 3.513E+14  Parms: UU      U1      
 Compute Stats, Diag. #    226  SItauy    vol(   0 ): 3.508E+14  Parms: VV      U1      
 cg2d: Sum(rhs),rhsMax =   9.20080918598249E+01  2.98656732151195E-01
 Compute Stats, Diag. #    214  SIarea    vol(   0 ): 3.580E+14  Parms: SM      M1      
 Compute Stats, Diag. #    217  SIheff    vol(   0 ): 3.580E+14  Parms: SM      M1      
 Compute Stats, Diag. #    219  SIhsnow   vol(   0 ): 3.580E+14  Parms: SM      M1      
 Compute Stats, Diag. #     83  sIceLoad  vol(   0 ): 3.580E+14  Parms: SM      U1      
 Compute Stats, Diag. #    223  SIuice    vol(   0 ): 3.513E+14  Parms: UU      M1      
 Compute Stats, Diag. #    224  SIvice    vol(   0 ): 3.508E+14  Parms: VV      M1      
 Compute Stats, Diag. #    225  SItaux    vol(   0 ): 3.513E+14  Parms: UU      U1      
 Compute Stats, Diag. #    226  SItauy    vol(   0 ): 3.508E+14  Parms: VV      U1      
 cg2d: Sum(rhs),rhsMax =   9.22995838028019E+01  2.98830485540625E-01
 Computing Diagnostic #     86  oceQnet      Counter:       4   Parms: SM      U1      
 Computing Diagnostic #     87  oceQsw       Counter:       4   Parms: SM      U1      
 Computing Diagnostic #     84  oceFWflx     Counter:       4   Parms: SM      U1      
 Computing Diagnostic #     85  oceSflux     Counter:       4   Parms: SM      U1      
 Computing Diagnostic #     80  oceTAUX      Counter:       4   Parms: UU      U1      
           Vector  Mate for  oceTAUX      Diagnostic #     81  oceTAUY  exists 
 Computing Diagnostic #     81  oceTAUY      Counter:       4   Parms: VV      U1      
           Vector  Mate for  oceTAUY      Diagnostic #     80  oceTAUX  exists 
 Computing Diagnostic #     26  THETA        Counter:       4   Parms: SMR     MR      
 Computing Diagnostic #     27  SALT         Counter:       4   Parms: SMR     MR      
 Computing Diagnostic #     30  UVEL         Counter:       4   Parms: UUR     MR      
           Vector  Mate for  UVEL         Diagnostic #     31  VVEL     exists 
 Computing Diagnostic #     31  VVEL         Counter:       4   Parms: VVR     MR      
           Vector  Mate for  VVEL         Diagnostic #     30  UVEL     exists 
 Computing Diagnostic #    214  SIarea       Counter:       4   Parms: SM      M1      
 Computing Diagnostic #    217  SIheff       Counter:       4   Parms: SM      M1      
 Computing Diagnostic #    219  SIhsnow      Counter:       4   Parms: SM      M1      
 Computing Diagnostic #     83  sIceLoad     Counter:       4   Parms: SM      U1      
 Computing Diagnostic #    223  SIuice       Counter:       4   Parms: UU      M1      
           Vector  Mate for  SIuice       Diagnostic #    224  SIvice   exists 
 Computing Diagnostic #    224  SIvice       Counter:       4   Parms: VV      M1      
           Vector  Mate for  SIvice       Diagnostic #    223  SIuice   exists 
 Computing Diagnostic #    225  SItaux       Counter:       4   Parms: UU      U1      
           Vector  Mate for  SItaux       Diagnostic #    226  SItauy   exists 
 Computing Diagnostic #    226  SItauy       Counter:       4   Parms: VV      U1      
           Vector  Mate for  SItauy       Diagnostic #    225  SItaux   exists 
 Computing Diagnostic #    285  SIareaN      Counter:       4   Parms: SM      MX      
 Computing Diagnostic #    284  SIheffN      Counter:       4   Parms: SM      MX      
 Computing Diagnostic #    286  SIhsnowN     Counter:       4   Parms: SM      MX      
 Compute Stats, Diag. #    214  SIarea    vol(   0 ): 3.580E+14  Parms: SM      M1      
 Compute Stats, Diag. #    217  SIheff    vol(   0 ): 3.580E+14  Parms: SM      M1      
 Compute Stats, Diag. #    219  SIhsnow   vol(   0 ): 3.580E+14  Parms: SM      M1      
 Compute Stats, Diag. #     83  sIceLoad  vol(   0 ): 3.580E+14  Parms: SM      U1      
 Compute Stats, Diag. #    223  SIuice    vol(   0 ): 3.513E+14  Parms: UU      M1      
 Compute Stats, Diag. #    224  SIvice    vol(   0 ): 3.508E+14  Parms: VV      M1      
 Compute Stats, Diag. #    225  SItaux    vol(   0 ): 3.513E+14  Parms: UU      U1      
 Compute Stats, Diag. #    226  SItauy    vol(   0 ): 3.508E+14  Parms: VV      U1      
 cg2d: Sum(rhs),rhsMax =   9.25789109769215E+01  2.98921653990692E-01
 Compute Stats, Diag. #    214  SIarea    vol(   0 ): 3.580E+14  Parms: SM      M1      
 Compute Stats, Diag. #    217  SIheff    vol(   0 ): 3.580E+14  Parms: SM      M1      
 Compute Stats, Diag. #    219  SIhsnow   vol(   0 ): 3.580E+14  Parms: SM      M1      
 Compute Stats, Diag. #     83  sIceLoad  vol(   0 ): 3.580E+14  Parms: SM      U1      
 Compute Stats, Diag. #    223  SIuice    vol(   0 ): 3.513E+14  Parms: UU      M1      
 Compute Stats, Diag. #    224  SIvice    vol(   0 ): 3.508E+14  Parms: VV      M1      
 Compute Stats, Diag. #    225  SItaux    vol(   0 ): 3.513E+14  Parms: UU      U1      
 Compute Stats, Diag. #    226  SItauy    vol(   0 ): 3.508E+14  Parms: VV      U1      
 cg2d: Sum(rhs),rhsMax =   9.28468607622266E+01  2.98928929109337E-01
 Compute Stats, Diag. #    214  SIarea    vol(   0 ): 3.580E+14  Parms: SM      M1      
 Compute Stats, Diag. #    217  SIheff    vol(   0 ): 3.580E+14  Parms: SM      M1      
 Compute Stats, Diag. #    219  SIhsnow   vol(   0 ): 3.580E+14  Parms: SM      M1      
 Compute Stats, Diag. #     83  sIceLoad  vol(   0 ): 3.580E+14  Parms: SM      U1      
 Compute Stats, Diag. #    223  SIuice    vol(   0 ): 3.513E+14  Parms: UU      M1      
 Compute Stats, Diag. #    224  SIvice    vol(   0 ): 3.508E+14  Parms: VV      M1      
 Compute Stats, Diag. #    225  SItaux    vol(   0 ): 3.513E+14  Parms: UU      U1      
 Compute Stats, Diag. #    226  SItauy    vol(   0 ): 3.508E+14  Parms: VV      U1      
 cg2d: Sum(rhs),rhsMax =   9.30958871712404E+01  2.98859464756456E-01
 Compute Stats, Diag. #    214  SIarea    vol(   0 ): 3.580E+14  Parms: SM      M1      
 Compute Stats, Diag. #    217  SIheff    vol(   0 ): 3.580E+14  Parms: SM      M1      
 Compute Stats, Diag. #    219  SIhsnow   vol(   0 ): 3.580E+14  Parms: SM      M1      
 Compute Stats, Diag. #     83  sIceLoad  vol(   0 ): 3.580E+14  Parms: SM      U1      
 Compute Stats, Diag. #    223  SIuice    vol(   0 ): 3.513E+14  Parms: UU      M1      
 Compute Stats, Diag. #    224  SIvice    vol(   0 ): 3.508E+14  Parms: VV      M1      
 Compute Stats, Diag. #    225  SItaux    vol(   0 ): 3.513E+14  Parms: UU      U1      
 Compute Stats, Diag. #    226  SItauy    vol(   0 ): 3.508E+14  Parms: VV      U1      
 cg2d: Sum(rhs),rhsMax =   9.33283939739954E+01  2.98727614705263E-01
(PID.TID 0000.0001)      cg2d_init_res =   3.84316506108548E-01
(PID.TID 0000.0001)      cg2d_iters(min,last) =      -1      32
(PID.TID 0000.0001)      cg2d_last_res =   2.67888467821285E-05
(PID.TID 0000.0001) // =======================================================
(PID.TID 0000.0001) // Begin MONITOR dynamic field statistics
(PID.TID 0000.0001) // =======================================================
(PID.TID 0000.0001) %MON time_tsnumber                =                    56
(PID.TID 0000.0001) %MON time_secondsf                =   5.0400000000000E+04
(PID.TID 0000.0001) %MON dynstat_eta_max              =   1.0896598639276E+00
(PID.TID 0000.0001) %MON dynstat_eta_min              =  -3.2758891143438E+00
(PID.TID 0000.0001) %MON dynstat_eta_mean             =  -2.9522751725106E-03
(PID.TID 0000.0001) %MON dynstat_eta_sd               =   7.0836436409365E-01
(PID.TID 0000.0001) %MON dynstat_eta_del2             =   8.8860083395411E-05
(PID.TID 0000.0001) %MON dynstat_uvel_max             =   1.0961682098054E+00
(PID.TID 0000.0001) %MON dynstat_uvel_min             =  -1.3517281969772E+00
(PID.TID 0000.0001) %MON dynstat_uvel_mean            =   1.7030581943153E-03
(PID.TID 0000.0001) %MON dynstat_uvel_sd              =   2.1613228943756E-02
(PID.TID 0000.0001) %MON dynstat_uvel_del2            =   1.3254999044127E-05
(PID.TID 0000.0001) %MON dynstat_vvel_max             =   1.3131275572868E+00
(PID.TID 0000.0001) %MON dynstat_vvel_min             =  -1.2472404096525E+00
(PID.TID 0000.0001) %MON dynstat_vvel_mean            =   1.5884953764785E-03
(PID.TID 0000.0001) %MON dynstat_vvel_sd              =   2.2912455728635E-02
(PID.TID 0000.0001) %MON dynstat_vvel_del2            =   1.3768977907010E-05
(PID.TID 0000.0001) %MON dynstat_wvel_max             =   3.7054240412828E-03
(PID.TID 0000.0001) %MON dynstat_wvel_min             =  -2.5790303099966E-03
(PID.TID 0000.0001) %MON dynstat_wvel_mean            =   6.8987471745848E-08
(PID.TID 0000.0001) %MON dynstat_wvel_sd              =   3.4467479494429E-05
(PID.TID 0000.0001) %MON dynstat_wvel_del2            =   5.3911384563618E-08
(PID.TID 0000.0001) %MON dynstat_theta_max            =   3.2655050312365E+01
(PID.TID 0000.0001) %MON dynstat_theta_min            =  -2.0423201214745E+00
(PID.TID 0000.0001) %MON dynstat_theta_mean           =   3.5905760082354E+00
(PID.TID 0000.0001) %MON dynstat_theta_sd             =   4.4364562825021E+00
(PID.TID 0000.0001) %MON dynstat_theta_del2           =   1.0629196827753E-04
(PID.TID 0000.0001) %MON dynstat_salt_max             =   4.0711525496768E+01
(PID.TID 0000.0001) %MON dynstat_salt_min             =   1.8870682876698E+01
(PID.TID 0000.0001) %MON dynstat_salt_mean            =   3.4725643562351E+01
(PID.TID 0000.0001) %MON dynstat_salt_sd              =   3.7719331506509E-01
(PID.TID 0000.0001) %MON dynstat_salt_del2            =   2.7937789961046E-05
(PID.TID 0000.0001) %MON dynstat_sst_max              =   3.2655050312365E+01
(PID.TID 0000.0001) %MON dynstat_sst_min              =  -1.9101664952276E+00
(PID.TID 0000.0001) %MON dynstat_sst_mean             =   1.8490481271019E+01
(PID.TID 0000.0001) %MON dynstat_sst_sd               =   1.0105574236190E+01
(PID.TID 0000.0001) %MON dynstat_sst_del2             =   8.6284771684424E-04
(PID.TID 0000.0001) %MON dynstat_sss_max              =   3.9446088832292E+01
(PID.TID 0000.0001) %MON dynstat_sss_min              =   1.8870682876698E+01
(PID.TID 0000.0001) %MON dynstat_sss_mean             =   3.4684740880987E+01
(PID.TID 0000.0001) %MON dynstat_sss_sd               =   1.1236400193013E+00
(PID.TID 0000.0001) %MON dynstat_sss_del2             =   5.4943327193268E-04
(PID.TID 0000.0001) %MON forcing_qnet_max             =   2.2151798828125E+04
(PID.TID 0000.0001) %MON forcing_qnet_min             =  -9.5808186864150E+02
(PID.TID 0000.0001) %MON forcing_qnet_mean            =   3.5102681386701E+01
(PID.TID 0000.0001) %MON forcing_qnet_sd              =   1.8823172483242E+02
(PID.TID 0000.0001) %MON forcing_qnet_del2            =   1.3543047499279E+00
(PID.TID 0000.0001) %MON forcing_qsw_max              =   0.0000000000000E+00
(PID.TID 0000.0001) %MON forcing_qsw_min              =  -9.9518767265577E+01
(PID.TID 0000.0001) %MON forcing_qsw_mean             =  -1.4896020776087E+01
(PID.TID 0000.0001) %MON forcing_qsw_sd               =   2.4722804605486E+01
(PID.TID 0000.0001) %MON forcing_qsw_del2             =   2.0494195069395E-02
(PID.TID 0000.0001) %MON forcing_empmr_max            =   3.2115343492478E-03
(PID.TID 0000.0001) %MON forcing_empmr_min            =  -1.1470822244883E-01
(PID.TID 0000.0001) %MON forcing_empmr_mean           =   8.4091397759912E-06
(PID.TID 0000.0001) %MON forcing_empmr_sd             =   3.6322594838832E-04
(PID.TID 0000.0001) %MON forcing_empmr_del2           =   5.9025850372186E-06
(PID.TID 0000.0001) %MON forcing_fu_max               =   1.0366263389587E+00
(PID.TID 0000.0001) %MON forcing_fu_min               =  -7.4660369753838E-01
(PID.TID 0000.0001) %MON forcing_fu_mean              =   9.7266552235968E-03
(PID.TID 0000.0001) %MON forcing_fu_sd                =   1.0134119441108E-01
(PID.TID 0000.0001) %MON forcing_fu_del2              =   1.3751454625572E-04
(PID.TID 0000.0001) %MON forcing_fv_max               =   7.5816917419434E-01
(PID.TID 0000.0001) %MON forcing_fv_min               =  -7.5797768140212E-01
(PID.TID 0000.0001) %MON forcing_fv_mean              =  -7.7589170687795E-03
(PID.TID 0000.0001) %MON forcing_fv_sd                =   1.0287474726067E-01
(PID.TID 0000.0001) %MON forcing_fv_del2              =   1.2839970935943E-04
(PID.TID 0000.0001) %MON trAdv_CFL_u_max              =   2.1569601725037E-02
(PID.TID 0000.0001) %MON trAdv_CFL_v_max              =   2.4628217218235E-02
(PID.TID 0000.0001) %MON trAdv_CFL_w_max              =   8.1636064990423E-02
(PID.TID 0000.0001) %MON advcfl_uvel_max              =   2.2364228743094E-02
(PID.TID 0000.0001) %MON advcfl_vvel_max              =   2.5322192811155E-02
(PID.TID 0000.0001) %MON advcfl_wvel_max              =   8.5067516028151E-02
(PID.TID 0000.0001) %MON advcfl_W_hf_max              =   9.0277839928650E-02
(PID.TID 0000.0001) %MON pe_b_mean                    =   6.6005416299973E-04
(PID.TID 0000.0001) %MON ke_max                       =   1.0251416574880E+00
(PID.TID 0000.0001) %MON ke_mean                      =   4.8100614377154E-04
(PID.TID 0000.0001) %MON ke_vol                       =   1.3349968226170E+18
(PID.TID 0000.0001) %MON vort_r_min                   =  -3.9243458123578E-05
(PID.TID 0000.0001) %MON vort_r_max                   =   3.9047481584341E-05
(PID.TID 0000.0001) %MON vort_a_mean                  =  -1.9727864647440E-05
(PID.TID 0000.0001) %MON vort_a_sd                    =   7.4543359929829E-05
(PID.TID 0000.0001) %MON vort_p_mean                  =  -2.1760547654182E-05
(PID.TID 0000.0001) %MON vort_p_sd                    =   9.7244631708475E-05
(PID.TID 0000.0001) %MON surfExpan_theta_mean         =  -2.6967710731784E-06
(PID.TID 0000.0001) %MON surfExpan_salt_mean          =  -2.6348308398419E-07
(PID.TID 0000.0001) // =======================================================
(PID.TID 0000.0001) // End MONITOR dynamic field statistics
(PID.TID 0000.0001) // =======================================================
(PID.TID 0000.0001) // =======================================================
(PID.TID 0000.0001) // Begin MONITOR SEAICE statistics
(PID.TID 0000.0001) // =======================================================
(PID.TID 0000.0001) %MON seaice_tsnumber              =                    56
(PID.TID 0000.0001) %MON seaice_time_sec              =   5.0400000000000E+04
(PID.TID 0000.0001) %MON seaice_uice_max              =   6.2627556129637E-01
(PID.TID 0000.0001) %MON seaice_uice_min              =  -9.5101804939392E-01
(PID.TID 0000.0001) %MON seaice_uice_mean             =  -1.4616308587200E-03
(PID.TID 0000.0001) %MON seaice_uice_sd               =   1.3821022407752E-01
(PID.TID 0000.0001) %MON seaice_uice_del2             =   1.9388038006081E-04
(PID.TID 0000.0001) %MON seaice_vice_max              =   1.1505035767447E+00
(PID.TID 0000.0001) %MON seaice_vice_min              =  -9.1163553331324E-01
(PID.TID 0000.0001) %MON seaice_vice_mean             =  -1.5975924331027E-02
(PID.TID 0000.0001) %MON seaice_vice_sd               =   1.3031067028593E-01
(PID.TID 0000.0001) %MON seaice_vice_del2             =   1.6725875671573E-04
(PID.TID 0000.0001) %MON seaice_area_max              =   1.0000000000000E+00
(PID.TID 0000.0001) %MON seaice_area_min              =   0.0000000000000E+00
(PID.TID 0000.0001) %MON seaice_area_mean             =   7.1499614633449E-02
(PID.TID 0000.0001) %MON seaice_area_sd               =   2.3714349430027E-01
(PID.TID 0000.0001) %MON seaice_area_del2             =   3.9116814684612E-04
(PID.TID 0000.0001) %MON seaice_heff_max              =   2.5110911561817E+01
(PID.TID 0000.0001) %MON seaice_heff_min              =   0.0000000000000E+00
(PID.TID 0000.0001) %MON seaice_heff_mean             =   2.1708361809198E-01
(PID.TID 0000.0001) %MON seaice_heff_sd               =   1.0641105425096E+00
(PID.TID 0000.0001) %MON seaice_heff_del2             =   3.2228157395986E-03
(PID.TID 0000.0001) %MON seaice_hsnow_max             =   8.2936528844903E+00
(PID.TID 0000.0001) %MON seaice_hsnow_min             =   0.0000000000000E+00
(PID.TID 0000.0001) %MON seaice_hsnow_mean            =   2.4612465747575E-02
(PID.TID 0000.0001) %MON seaice_hsnow_sd              =   1.5373553943334E-01
(PID.TID 0000.0001) %MON seaice_hsnow_del2            =   1.0259438560808E-03
(PID.TID 0000.0001) // =======================================================
(PID.TID 0000.0001) // End MONITOR SEAICE statistics
(PID.TID 0000.0001) // =======================================================
 Computing Diagnostic #     86  oceQnet      Counter:       4   Parms: SM      U1      
 Computing Diagnostic #     87  oceQsw       Counter:       4   Parms: SM      U1      
 Computing Diagnostic #     84  oceFWflx     Counter:       4   Parms: SM      U1      
 Computing Diagnostic #     85  oceSflux     Counter:       4   Parms: SM      U1      
 Computing Diagnostic #     80  oceTAUX      Counter:       4   Parms: UU      U1      
           Vector  Mate for  oceTAUX      Diagnostic #     81  oceTAUY  exists 
 Computing Diagnostic #     81  oceTAUY      Counter:       4   Parms: VV      U1      
           Vector  Mate for  oceTAUY      Diagnostic #     80  oceTAUX  exists 
 Computing Diagnostic #     26  THETA        Counter:       4   Parms: SMR     MR      
 Computing Diagnostic #     27  SALT         Counter:       4   Parms: SMR     MR      
 Computing Diagnostic #     30  UVEL         Counter:       4   Parms: UUR     MR      
           Vector  Mate for  UVEL         Diagnostic #     31  VVEL     exists 
 Computing Diagnostic #     31  VVEL         Counter:       4   Parms: VVR     MR      
           Vector  Mate for  VVEL         Diagnostic #     30  UVEL     exists 
 Computing Diagnostic #    214  SIarea       Counter:       4   Parms: SM      M1      
 Computing Diagnostic #    217  SIheff       Counter:       4   Parms: SM      M1      
 Computing Diagnostic #    219  SIhsnow      Counter:       4   Parms: SM      M1      
 Computing Diagnostic #     83  sIceLoad     Counter:       4   Parms: SM      U1      
 Computing Diagnostic #    223  SIuice       Counter:       4   Parms: UU      M1      
           Vector  Mate for  SIuice       Diagnostic #    224  SIvice   exists 
 Computing Diagnostic #    224  SIvice       Counter:       4   Parms: VV      M1      
           Vector  Mate for  SIvice       Diagnostic #    223  SIuice   exists 
 Computing Diagnostic #    225  SItaux       Counter:       4   Parms: UU      U1      
           Vector  Mate for  SItaux       Diagnostic #    226  SItauy   exists 
 Computing Diagnostic #    226  SItauy       Counter:       4   Parms: VV      U1      
           Vector  Mate for  SItauy       Diagnostic #    225  SItaux   exists 
 Computing Diagnostic #    285  SIareaN      Counter:       4   Parms: SM      MX      
 Computing Diagnostic #    284  SIheffN      Counter:       4   Parms: SM      MX      
 Computing Diagnostic #    286  SIhsnowN     Counter:       4   Parms: SM      MX      
 Compute Stats, Diag. #    214  SIarea    vol(   0 ): 3.580E+14  Parms: SM      M1      
 Compute Stats, Diag. #    217  SIheff    vol(   0 ): 3.580E+14  Parms: SM      M1      
 Compute Stats, Diag. #    219  SIhsnow   vol(   0 ): 3.580E+14  Parms: SM      M1      
 Compute Stats, Diag. #     83  sIceLoad  vol(   0 ): 3.580E+14  Parms: SM      U1      
 Compute Stats, Diag. #    223  SIuice    vol(   0 ): 3.513E+14  Parms: UU      M1      
 Compute Stats, Diag. #    224  SIvice    vol(   0 ): 3.508E+14  Parms: VV      M1      
 Compute Stats, Diag. #    225  SItaux    vol(   0 ): 3.513E+14  Parms: UU      U1      
 Compute Stats, Diag. #    226  SItauy    vol(   0 ): 3.508E+14  Parms: VV      U1      
 SEAICE_LSR: Residual Initial ipass,Uice,Vice=    1  1.50584900E-02  1.58981973E-02
 SEAICE_LSR (ipass=   1) iters,dU,Resid=  1500  7.81657586E-10  5.23960586E-07
 SEAICE_LSR (ipass=   1) iters,dV,Resid=  1500  2.15234672E-09  2.64429641E-08
 SEAICE_LSR: Residual Initial ipass,Uice,Vice=    2  1.41797053E-02  1.50487816E-02
 SEAICE_LSR (ipass=   2) iters,dU,Resid=  1500  1.06132594E-09  3.41771686E-07
 SEAICE_LSR (ipass=   2) iters,dV,Resid=  1500  1.29334379E-09  2.44939694E-08
 cg2d: Sum(rhs),rhsMax =   9.35477718991008E+01  2.98553457477783E-01
 Compute Stats, Diag. #    214  SIarea    vol(   0 ): 3.580E+14  Parms: SM      M1      
 Compute Stats, Diag. #    217  SIheff    vol(   0 ): 3.580E+14  Parms: SM      M1      
 Compute Stats, Diag. #    219  SIhsnow   vol(   0 ): 3.580E+14  Parms: SM      M1      
 Compute Stats, Diag. #     83  sIceLoad  vol(   0 ): 3.580E+14  Parms: SM      U1      
 Compute Stats, Diag. #    223  SIuice    vol(   0 ): 3.513E+14  Parms: UU      M1      
 Compute Stats, Diag. #    224  SIvice    vol(   0 ): 3.508E+14  Parms: VV      M1      
 Compute Stats, Diag. #    225  SItaux    vol(   0 ): 3.513E+14  Parms: UU      U1      
 Compute Stats, Diag. #    226  SItauy    vol(   0 ): 3.508E+14  Parms: VV      U1      
 cg2d: Sum(rhs),rhsMax =   9.37546001513267E+01  2.98360381980030E-01
 Compute Stats, Diag. #    214  SIarea    vol(   0 ): 3.580E+14  Parms: SM      M1      
 Compute Stats, Diag. #    217  SIheff    vol(   0 ): 3.580E+14  Parms: SM      M1      
 Compute Stats, Diag. #    219  SIhsnow   vol(   0 ): 3.580E+14  Parms: SM      M1      
 Compute Stats, Diag. #     83  sIceLoad  vol(   0 ): 3.580E+14  Parms: SM      U1      
 Compute Stats, Diag. #    223  SIuice    vol(   0 ): 3.513E+14  Parms: UU      M1      
 Compute Stats, Diag. #    224  SIvice    vol(   0 ): 3.508E+14  Parms: VV      M1      
 Compute Stats, Diag. #    225  SItaux    vol(   0 ): 3.513E+14  Parms: UU      U1      
 Compute Stats, Diag. #    226  SItauy    vol(   0 ): 3.508E+14  Parms: VV      U1      
 cg2d: Sum(rhs),rhsMax =   9.39587150961664E+01  2.98172670995569E-01
 Compute Stats, Diag. #    214  SIarea    vol(   0 ): 3.580E+14  Parms: SM      M1      
 Compute Stats, Diag. #    217  SIheff    vol(   0 ): 3.580E+14  Parms: SM      M1      
 Compute Stats, Diag. #    219  SIhsnow   vol(   0 ): 3.580E+14  Parms: SM      M1      
 Compute Stats, Diag. #     83  sIceLoad  vol(   0 ): 3.580E+14  Parms: SM      U1      
 Compute Stats, Diag. #    223  SIuice    vol(   0 ): 3.513E+14  Parms: UU      M1      
 Compute Stats, Diag. #    224  SIvice    vol(   0 ): 3.508E+14  Parms: VV      M1      
 Compute Stats, Diag. #    225  SItaux    vol(   0 ): 3.513E+14  Parms: UU      U1      
 Compute Stats, Diag. #    226  SItauy    vol(   0 ): 3.508E+14  Parms: VV      U1      
 cg2d: Sum(rhs),rhsMax =   9.41504665367553E+01  2.98013370422219E-01
 Computing Diagnostic #     86  oceQnet      Counter:       4   Parms: SM      U1      
 Computing Diagnostic #     87  oceQsw       Counter:       4   Parms: SM      U1      
 Computing Diagnostic #     84  oceFWflx     Counter:       4   Parms: SM      U1      
 Computing Diagnostic #     85  oceSflux     Counter:       4   Parms: SM      U1      
 Computing Diagnostic #     80  oceTAUX      Counter:       4   Parms: UU      U1      
           Vector  Mate for  oceTAUX      Diagnostic #     81  oceTAUY  exists 
 Computing Diagnostic #     81  oceTAUY      Counter:       4   Parms: VV      U1      
           Vector  Mate for  oceTAUY      Diagnostic #     80  oceTAUX  exists 
 Computing Diagnostic #     26  THETA        Counter:       4   Parms: SMR     MR      
 Computing Diagnostic #     27  SALT         Counter:       4   Parms: SMR     MR      
 Computing Diagnostic #     30  UVEL         Counter:       4   Parms: UUR     MR      
           Vector  Mate for  UVEL         Diagnostic #     31  VVEL     exists 
 Computing Diagnostic #     31  VVEL         Counter:       4   Parms: VVR     MR      
           Vector  Mate for  VVEL         Diagnostic #     30  UVEL     exists 
 Computing Diagnostic #    214  SIarea       Counter:       4   Parms: SM      M1      
 Computing Diagnostic #    217  SIheff       Counter:       4   Parms: SM      M1      
 Computing Diagnostic #    219  SIhsnow      Counter:       4   Parms: SM      M1      
 Computing Diagnostic #     83  sIceLoad     Counter:       4   Parms: SM      U1      
 Computing Diagnostic #    223  SIuice       Counter:       4   Parms: UU      M1      
           Vector  Mate for  SIuice       Diagnostic #    224  SIvice   exists 
 Computing Diagnostic #    224  SIvice       Counter:       4   Parms: VV      M1      
           Vector  Mate for  SIvice       Diagnostic #    223  SIuice   exists 
 Computing Diagnostic #    225  SItaux       Counter:       4   Parms: UU      U1      
           Vector  Mate for  SItaux       Diagnostic #    226  SItauy   exists 
 Computing Diagnostic #    226  SItauy       Counter:       4   Parms: VV      U1      
           Vector  Mate for  SItauy       Diagnostic #    225  SItaux   exists 
 Computing Diagnostic #    285  SIareaN      Counter:       4   Parms: SM      MX      
 Computing Diagnostic #    284  SIheffN      Counter:       4   Parms: SM      MX      
 Computing Diagnostic #    286  SIhsnowN     Counter:       4   Parms: SM      MX      
 Compute Stats, Diag. #    214  SIarea    vol(   0 ): 3.580E+14  Parms: SM      M1      
 Compute Stats, Diag. #    217  SIheff    vol(   0 ): 3.580E+14  Parms: SM      M1      
 Compute Stats, Diag. #    219  SIhsnow   vol(   0 ): 3.580E+14  Parms: SM      M1      
 Compute Stats, Diag. #     83  sIceLoad  vol(   0 ): 3.580E+14  Parms: SM      U1      
 Compute Stats, Diag. #    223  SIuice    vol(   0 ): 3.513E+14  Parms: UU      M1      
 Compute Stats, Diag. #    224  SIvice    vol(   0 ): 3.508E+14  Parms: VV      M1      
 Compute Stats, Diag. #    225  SItaux    vol(   0 ): 3.513E+14  Parms: UU      U1      
 Compute Stats, Diag. #    226  SItauy    vol(   0 ): 3.508E+14  Parms: VV      U1      
 cg2d: Sum(rhs),rhsMax =   9.43272845429818E+01  2.97902706617644E-01
 Compute Stats, Diag. #    214  SIarea    vol(   0 ): 3.580E+14  Parms: SM      M1      
 Compute Stats, Diag. #    217  SIheff    vol(   0 ): 3.580E+14  Parms: SM      M1      
 Compute Stats, Diag. #    219  SIhsnow   vol(   0 ): 3.580E+14  Parms: SM      M1      
 Compute Stats, Diag. #     83  sIceLoad  vol(   0 ): 3.580E+14  Parms: SM      U1      
 Compute Stats, Diag. #    223  SIuice    vol(   0 ): 3.513E+14  Parms: UU      M1      
 Compute Stats, Diag. #    224  SIvice    vol(   0 ): 3.508E+14  Parms: VV      M1      
 Compute Stats, Diag. #    225  SItaux    vol(   0 ): 3.513E+14  Parms: UU      U1      
 Compute Stats, Diag. #    226  SItauy    vol(   0 ): 3.508E+14  Parms: VV      U1      
 cg2d: Sum(rhs),rhsMax =   9.44937695180923E+01  2.97856521995749E-01
 Compute Stats, Diag. #    214  SIarea    vol(   0 ): 3.580E+14  Parms: SM      M1      
 Compute Stats, Diag. #    217  SIheff    vol(   0 ): 3.580E+14  Parms: SM      M1      
 Compute Stats, Diag. #    219  SIhsnow   vol(   0 ): 3.580E+14  Parms: SM      M1      
 Compute Stats, Diag. #     83  sIceLoad  vol(   0 ): 3.580E+14  Parms: SM      U1      
 Compute Stats, Diag. #    223  SIuice    vol(   0 ): 3.513E+14  Parms: UU      M1      
 Compute Stats, Diag. #    224  SIvice    vol(   0 ): 3.508E+14  Parms: VV      M1      
 Compute Stats, Diag. #    225  SItaux    vol(   0 ): 3.513E+14  Parms: UU      U1      
 Compute Stats, Diag. #    226  SItauy    vol(   0 ): 3.508E+14  Parms: VV      U1      
 cg2d: Sum(rhs),rhsMax =   9.46449906034467E+01  2.97885012582628E-01
 Compute Stats, Diag. #    214  SIarea    vol(   0 ): 3.580E+14  Parms: SM      M1      
 Compute Stats, Diag. #    217  SIheff    vol(   0 ): 3.580E+14  Parms: SM      M1      
 Compute Stats, Diag. #    219  SIhsnow   vol(   0 ): 3.580E+14  Parms: SM      M1      
 Compute Stats, Diag. #     83  sIceLoad  vol(   0 ): 3.580E+14  Parms: SM      U1      
 Compute Stats, Diag. #    223  SIuice    vol(   0 ): 3.513E+14  Parms: UU      M1      
 Compute Stats, Diag. #    224  SIvice    vol(   0 ): 3.508E+14  Parms: VV      M1      
 Compute Stats, Diag. #    225  SItaux    vol(   0 ): 3.513E+14  Parms: UU      U1      
 Compute Stats, Diag. #    226  SItauy    vol(   0 ): 3.508E+14  Parms: VV      U1      
 cg2d: Sum(rhs),rhsMax =   9.47828653719037E+01  2.97993119840438E-01
(PID.TID 0000.0001)      cg2d_init_res =   3.58105135928752E-01
(PID.TID 0000.0001)      cg2d_iters(min,last) =      -1      32
(PID.TID 0000.0001)      cg2d_last_res =   2.80132044564055E-05
(PID.TID 0000.0001) // =======================================================
(PID.TID 0000.0001) // Begin MONITOR dynamic field statistics
(PID.TID 0000.0001) // =======================================================
(PID.TID 0000.0001) %MON time_tsnumber                =                    64
(PID.TID 0000.0001) %MON time_secondsf                =   5.7600000000000E+04
(PID.TID 0000.0001) %MON dynstat_eta_max              =   1.0910851999173E+00
(PID.TID 0000.0001) %MON dynstat_eta_min              =  -3.0656734731467E+00
(PID.TID 0000.0001) %MON dynstat_eta_mean             =  -2.9982847480998E-03
(PID.TID 0000.0001) %MON dynstat_eta_sd               =   7.0271935925762E-01
(PID.TID 0000.0001) %MON dynstat_eta_del2             =   8.7567751493579E-05
(PID.TID 0000.0001) %MON dynstat_uvel_max             =   1.0560554952805E+00
(PID.TID 0000.0001) %MON dynstat_uvel_min             =  -1.3575667337953E+00
(PID.TID 0000.0001) %MON dynstat_uvel_mean            =   1.6032629109983E-03
(PID.TID 0000.0001) %MON dynstat_uvel_sd              =   2.1534704291772E-02
(PID.TID 0000.0001) %MON dynstat_uvel_del2            =   1.3250358311344E-05
(PID.TID 0000.0001) %MON dynstat_vvel_max             =   1.3442979459422E+00
(PID.TID 0000.0001) %MON dynstat_vvel_min             =  -1.1420772106562E+00
(PID.TID 0000.0001) %MON dynstat_vvel_mean            =   1.6250462564029E-03
(PID.TID 0000.0001) %MON dynstat_vvel_sd              =   2.2806902638533E-02
(PID.TID 0000.0001) %MON dynstat_vvel_del2            =   1.3572668730388E-05
(PID.TID 0000.0001) %MON dynstat_wvel_max             =   4.2666245148725E-03
(PID.TID 0000.0001) %MON dynstat_wvel_min             =  -2.5051664429009E-03
(PID.TID 0000.0001) %MON dynstat_wvel_mean            =   7.6534435567530E-08
(PID.TID 0000.0001) %MON dynstat_wvel_sd              =   3.3528594570441E-05
(PID.TID 0000.0001) %MON dynstat_wvel_del2            =   5.3546152834736E-08
(PID.TID 0000.0001) %MON dynstat_theta_max            =   3.2645714088240E+01
(PID.TID 0000.0001) %MON dynstat_theta_min            =  -2.0422925686964E+00
(PID.TID 0000.0001) %MON dynstat_theta_mean           =   3.5905628169574E+00
(PID.TID 0000.0001) %MON dynstat_theta_sd             =   4.4363903745020E+00
(PID.TID 0000.0001) %MON dynstat_theta_del2           =   1.0573661281254E-04
(PID.TID 0000.0001) %MON dynstat_salt_max             =   4.0711526797675E+01
(PID.TID 0000.0001) %MON dynstat_salt_min             =   1.8871580365876E+01
(PID.TID 0000.0001) %MON dynstat_salt_mean            =   3.4725637118324E+01
(PID.TID 0000.0001) %MON dynstat_salt_sd              =   3.7716260102643E-01
(PID.TID 0000.0001) %MON dynstat_salt_del2            =   2.8265589791169E-05
(PID.TID 0000.0001) %MON dynstat_sst_max              =   3.2645714088240E+01
(PID.TID 0000.0001) %MON dynstat_sst_min              =  -1.8998461876558E+00
(PID.TID 0000.0001) %MON dynstat_sst_mean             =   1.8489368425973E+01
(PID.TID 0000.0001) %MON dynstat_sst_sd               =   1.0106080191017E+01
(PID.TID 0000.0001) %MON dynstat_sst_del2             =   8.5973862275628E-04
(PID.TID 0000.0001) %MON dynstat_sss_max              =   3.9421124141869E+01
(PID.TID 0000.0001) %MON dynstat_sss_min              =   1.8871580365876E+01
(PID.TID 0000.0001) %MON dynstat_sss_mean             =   3.4685383951189E+01
(PID.TID 0000.0001) %MON dynstat_sss_sd               =   1.1242266539353E+00
(PID.TID 0000.0001) %MON dynstat_sss_del2             =   5.8238539267450E-04
(PID.TID 0000.0001) %MON forcing_qnet_max             =   1.3506673583984E+03
(PID.TID 0000.0001) %MON forcing_qnet_min             =  -8.6661546964398E+02
(PID.TID 0000.0001) %MON forcing_qnet_mean            =   2.2948219696705E+01
(PID.TID 0000.0001) %MON forcing_qnet_sd              =   1.9236753004991E+02
(PID.TID 0000.0001) %MON forcing_qnet_del2            =   3.8793111594864E-01
(PID.TID 0000.0001) %MON forcing_qsw_max              =   0.0000000000000E+00
(PID.TID 0000.0001) %MON forcing_qsw_min              =  -1.0412110375810E+02
(PID.TID 0000.0001) %MON forcing_qsw_mean             =  -1.5920375848148E+01
(PID.TID 0000.0001) %MON forcing_qsw_sd               =   2.7566224047373E+01
(PID.TID 0000.0001) %MON forcing_qsw_del2             =   2.0709572000215E-02
(PID.TID 0000.0001) %MON forcing_empmr_max            =   2.5098090991378E-03
(PID.TID 0000.0001) %MON forcing_empmr_min            =  -8.2548148930073E-02
(PID.TID 0000.0001) %MON forcing_empmr_mean           =   4.9865560309851E-06
(PID.TID 0000.0001) %MON forcing_empmr_sd             =   2.6215233283884E-04
(PID.TID 0000.0001) %MON forcing_empmr_del2           =   3.6999560305730E-06
(PID.TID 0000.0001) %MON forcing_fu_max               =   1.0321288704872E+00
(PID.TID 0000.0001) %MON forcing_fu_min               =  -7.3476582765579E-01
(PID.TID 0000.0001) %MON forcing_fu_mean              =   9.3311373418609E-03
(PID.TID 0000.0001) %MON forcing_fu_sd                =   1.0033937021341E-01
(PID.TID 0000.0001) %MON forcing_fu_del2              =   1.3677095497165E-04
(PID.TID 0000.0001) %MON forcing_fv_max               =   8.2363608479500E-01
(PID.TID 0000.0001) %MON forcing_fv_min               =  -8.0189852702863E-01
(PID.TID 0000.0001) %MON forcing_fv_mean              =  -7.7526371357358E-03
(PID.TID 0000.0001) %MON forcing_fv_sd                =   1.0282810663407E-01
(PID.TID 0000.0001) %MON forcing_fv_del2              =   1.3075933374627E-04
(PID.TID 0000.0001) %MON trAdv_CFL_u_max              =   2.1596236834494E-02
(PID.TID 0000.0001) %MON trAdv_CFL_v_max              =   2.5200976968727E-02
(PID.TID 0000.0001) %MON trAdv_CFL_w_max              =   7.9136969772668E-02
(PID.TID 0000.0001) %MON advcfl_uvel_max              =   2.2460826841156E-02
(PID.TID 0000.0001) %MON advcfl_vvel_max              =   2.3862344195623E-02
(PID.TID 0000.0001) %MON advcfl_wvel_max              =   8.2477253206262E-02
(PID.TID 0000.0001) %MON advcfl_W_hf_max              =   8.7589580353004E-02
(PID.TID 0000.0001) %MON pe_b_mean                    =   6.4957659614368E-04
(PID.TID 0000.0001) %MON ke_max                       =   1.0709686294569E+00
(PID.TID 0000.0001) %MON ke_mean                      =   4.7694281576531E-04
(PID.TID 0000.0001) %MON ke_vol                       =   1.3349968050732E+18
(PID.TID 0000.0001) %MON vort_r_min                   =  -3.9391422147967E-05
(PID.TID 0000.0001) %MON vort_r_max                   =   3.9015570581502E-05
(PID.TID 0000.0001) %MON vort_a_mean                  =  -1.9727864647440E-05
(PID.TID 0000.0001) %MON vort_a_sd                    =   7.4543347201913E-05
(PID.TID 0000.0001) %MON vort_p_mean                  =  -2.1760547805287E-05
(PID.TID 0000.0001) %MON vort_p_sd                    =   9.7244969960004E-05
(PID.TID 0000.0001) %MON surfExpan_theta_mean         =  -2.6431862638396E-06
(PID.TID 0000.0001) %MON surfExpan_salt_mean          =  -2.7138094141198E-07
(PID.TID 0000.0001) // =======================================================
(PID.TID 0000.0001) // End MONITOR dynamic field statistics
(PID.TID 0000.0001) // =======================================================
(PID.TID 0000.0001) // =======================================================
(PID.TID 0000.0001) // Begin MONITOR SEAICE statistics
(PID.TID 0000.0001) // =======================================================
(PID.TID 0000.0001) %MON seaice_tsnumber              =                    64
(PID.TID 0000.0001) %MON seaice_time_sec              =   5.7600000000000E+04
(PID.TID 0000.0001) %MON seaice_uice_max              =   6.3552336601817E-01
(PID.TID 0000.0001) %MON seaice_uice_min              =  -9.8412522333504E-01
(PID.TID 0000.0001) %MON seaice_uice_mean             =   2.2569217258840E-04
(PID.TID 0000.0001) %MON seaice_uice_sd               =   1.3860791494609E-01
(PID.TID 0000.0001) %MON seaice_uice_del2             =   1.9357160929640E-04
(PID.TID 0000.0001) %MON seaice_vice_max              =   1.2211423512805E+00
(PID.TID 0000.0001) %MON seaice_vice_min              =  -9.2647145300104E-01
(PID.TID 0000.0001) %MON seaice_vice_mean             =  -1.8178462817598E-02
(PID.TID 0000.0001) %MON seaice_vice_sd               =   1.2909942772233E-01
(PID.TID 0000.0001) %MON seaice_vice_del2             =   1.6509018808022E-04
(PID.TID 0000.0001) %MON seaice_area_max              =   1.0000000000000E+00
(PID.TID 0000.0001) %MON seaice_area_min              =   0.0000000000000E+00
(PID.TID 0000.0001) %MON seaice_area_mean             =   7.1362447030089E-02
(PID.TID 0000.0001) %MON seaice_area_sd               =   2.3702163169103E-01
(PID.TID 0000.0001) %MON seaice_area_del2             =   3.8289092590391E-04
(PID.TID 0000.0001) %MON seaice_heff_max              =   2.5106761046004E+01
(PID.TID 0000.0001) %MON seaice_heff_min              =   0.0000000000000E+00
(PID.TID 0000.0001) %MON seaice_heff_mean             =   2.1710900411839E-01
(PID.TID 0000.0001) %MON seaice_heff_sd               =   1.0639999066507E+00
(PID.TID 0000.0001) %MON seaice_heff_del2             =   3.1669352101889E-03
(PID.TID 0000.0001) %MON seaice_hsnow_max             =   8.2922834214806E+00
(PID.TID 0000.0001) %MON seaice_hsnow_min             =   0.0000000000000E+00
(PID.TID 0000.0001) %MON seaice_hsnow_mean            =   2.4602904385029E-02
(PID.TID 0000.0001) %MON seaice_hsnow_sd              =   1.5333553113344E-01
(PID.TID 0000.0001) %MON seaice_hsnow_del2            =   1.0078017650693E-03
(PID.TID 0000.0001) // =======================================================
(PID.TID 0000.0001) // End MONITOR SEAICE statistics
(PID.TID 0000.0001) // =======================================================
 Computing Diagnostic #     86  oceQnet      Counter:       4   Parms: SM      U1      
 Computing Diagnostic #     87  oceQsw       Counter:       4   Parms: SM      U1      
 Computing Diagnostic #     84  oceFWflx     Counter:       4   Parms: SM      U1      
 Computing Diagnostic #     85  oceSflux     Counter:       4   Parms: SM      U1      
 Computing Diagnostic #     80  oceTAUX      Counter:       4   Parms: UU      U1      
           Vector  Mate for  oceTAUX      Diagnostic #     81  oceTAUY  exists 
 Computing Diagnostic #     81  oceTAUY      Counter:       4   Parms: VV      U1      
           Vector  Mate for  oceTAUY      Diagnostic #     80  oceTAUX  exists 
 Computing Diagnostic #     26  THETA        Counter:       4   Parms: SMR     MR      
 Computing Diagnostic #     27  SALT         Counter:       4   Parms: SMR     MR      
 Computing Diagnostic #     30  UVEL         Counter:       4   Parms: UUR     MR      
           Vector  Mate for  UVEL         Diagnostic #     31  VVEL     exists 
 Computing Diagnostic #     31  VVEL         Counter:       4   Parms: VVR     MR      
           Vector  Mate for  VVEL         Diagnostic #     30  UVEL     exists 
 Computing Diagnostic #    214  SIarea       Counter:       4   Parms: SM      M1      
 Computing Diagnostic #    217  SIheff       Counter:       4   Parms: SM      M1      
 Computing Diagnostic #    219  SIhsnow      Counter:       4   Parms: SM      M1      
 Computing Diagnostic #     83  sIceLoad     Counter:       4   Parms: SM      U1      
 Computing Diagnostic #    223  SIuice       Counter:       4   Parms: UU      M1      
           Vector  Mate for  SIuice       Diagnostic #    224  SIvice   exists 
 Computing Diagnostic #    224  SIvice       Counter:       4   Parms: VV      M1      
           Vector  Mate for  SIvice       Diagnostic #    223  SIuice   exists 
 Computing Diagnostic #    225  SItaux       Counter:       4   Parms: UU      U1      
           Vector  Mate for  SItaux       Diagnostic #    226  SItauy   exists 
 Computing Diagnostic #    226  SItauy       Counter:       4   Parms: VV      U1      
           Vector  Mate for  SItauy       Diagnostic #    225  SItaux   exists 
 Computing Diagnostic #    285  SIareaN      Counter:       4   Parms: SM      MX      
 Computing Diagnostic #    284  SIheffN      Counter:       4   Parms: SM      MX      
 Computing Diagnostic #    286  SIhsnowN     Counter:       4   Parms: SM      MX      
 Compute Stats, Diag. #    214  SIarea    vol(   0 ): 3.580E+14  Parms: SM      M1      
 Compute Stats, Diag. #    217  SIheff    vol(   0 ): 3.580E+14  Parms: SM      M1      
 Compute Stats, Diag. #    219  SIhsnow   vol(   0 ): 3.580E+14  Parms: SM      M1      
 Compute Stats, Diag. #     83  sIceLoad  vol(   0 ): 3.580E+14  Parms: SM      U1      
 Compute Stats, Diag. #    223  SIuice    vol(   0 ): 3.513E+14  Parms: UU      M1      
 Compute Stats, Diag. #    224  SIvice    vol(   0 ): 3.508E+14  Parms: VV      M1      
 Compute Stats, Diag. #    225  SItaux    vol(   0 ): 3.513E+14  Parms: UU      U1      
 Compute Stats, Diag. #    226  SItauy    vol(   0 ): 3.508E+14  Parms: VV      U1      
 SEAICE_LSR: Residual Initial ipass,Uice,Vice=    1  1.27749056E-02  1.36663702E-02
 SEAICE_LSR (ipass=   1) iters,dU,Resid=  1500  1.63812405E-08  3.44857274E-07
 SEAICE_LSR (ipass=   1) iters,dV,Resid=  1500  1.32818870E-09  9.20339589E-08
 SEAICE_LSR: Residual Initial ipass,Uice,Vice=    2  1.20318942E-02  1.32614067E-02
 SEAICE_LSR (ipass=   2) iters,dU,Resid=  1500  8.85922328E-09  1.87051005E-07
 SEAICE_LSR (ipass=   2) iters,dV,Resid=  1500  4.98920611E-10  6.51842757E-08
 cg2d: Sum(rhs),rhsMax =   9.49100478258540E+01  2.98180165146390E-01
 Compute Stats, Diag. #    214  SIarea    vol(   0 ): 3.580E+14  Parms: SM      M1      
 Compute Stats, Diag. #    217  SIheff    vol(   0 ): 3.580E+14  Parms: SM      M1      
 Compute Stats, Diag. #    219  SIhsnow   vol(   0 ): 3.580E+14  Parms: SM      M1      
 Compute Stats, Diag. #     83  sIceLoad  vol(   0 ): 3.580E+14  Parms: SM      U1      
 Compute Stats, Diag. #    223  SIuice    vol(   0 ): 3.513E+14  Parms: UU      M1      
 Compute Stats, Diag. #    224  SIvice    vol(   0 ): 3.508E+14  Parms: VV      M1      
 Compute Stats, Diag. #    225  SItaux    vol(   0 ): 3.513E+14  Parms: UU      U1      
 Compute Stats, Diag. #    226  SItauy    vol(   0 ): 3.508E+14  Parms: VV      U1      
 cg2d: Sum(rhs),rhsMax =   9.50287529318377E+01  2.98440684586567E-01
 Compute Stats, Diag. #    214  SIarea    vol(   0 ): 3.580E+14  Parms: SM      M1      
 Compute Stats, Diag. #    217  SIheff    vol(   0 ): 3.580E+14  Parms: SM      M1      
 Compute Stats, Diag. #    219  SIhsnow   vol(   0 ): 3.580E+14  Parms: SM      M1      
 Compute Stats, Diag. #     83  sIceLoad  vol(   0 ): 3.580E+14  Parms: SM      U1      
 Compute Stats, Diag. #    223  SIuice    vol(   0 ): 3.513E+14  Parms: UU      M1      
 Compute Stats, Diag. #    224  SIvice    vol(   0 ): 3.508E+14  Parms: VV      M1      
 Compute Stats, Diag. #    225  SItaux    vol(   0 ): 3.513E+14  Parms: UU      U1      
 Compute Stats, Diag. #    226  SItauy    vol(   0 ): 3.508E+14  Parms: VV      U1      
 cg2d: Sum(rhs),rhsMax =   9.51292269756667E+01  2.98764897569771E-01
 Compute Stats, Diag. #    214  SIarea    vol(   0 ): 3.580E+14  Parms: SM      M1      
 Compute Stats, Diag. #    217  SIheff    vol(   0 ): 3.580E+14  Parms: SM      M1      
 Compute Stats, Diag. #    219  SIhsnow   vol(   0 ): 3.580E+14  Parms: SM      M1      
 Compute Stats, Diag. #     83  sIceLoad  vol(   0 ): 3.580E+14  Parms: SM      U1      
 Compute Stats, Diag. #    223  SIuice    vol(   0 ): 3.513E+14  Parms: UU      M1      
 Compute Stats, Diag. #    224  SIvice    vol(   0 ): 3.508E+14  Parms: VV      M1      
 Compute Stats, Diag. #    225  SItaux    vol(   0 ): 3.513E+14  Parms: UU      U1      
 Compute Stats, Diag. #    226  SItauy    vol(   0 ): 3.508E+14  Parms: VV      U1      
 cg2d: Sum(rhs),rhsMax =   9.52237524833723E+01  2.99139759463651E-01
 Computing Diagnostic #     86  oceQnet      Counter:       4   Parms: SM      U1      
 Computing Diagnostic #     87  oceQsw       Counter:       4   Parms: SM      U1      
 Computing Diagnostic #     84  oceFWflx     Counter:       4   Parms: SM      U1      
 Computing Diagnostic #     85  oceSflux     Counter:       4   Parms: SM      U1      
 Computing Diagnostic #     80  oceTAUX      Counter:       4   Parms: UU      U1      
           Vector  Mate for  oceTAUX      Diagnostic #     81  oceTAUY  exists 
 Computing Diagnostic #     81  oceTAUY      Counter:       4   Parms: VV      U1      
           Vector  Mate for  oceTAUY      Diagnostic #     80  oceTAUX  exists 
 Computing Diagnostic #     26  THETA        Counter:       4   Parms: SMR     MR      
 Computing Diagnostic #     27  SALT         Counter:       4   Parms: SMR     MR      
 Computing Diagnostic #     30  UVEL         Counter:       4   Parms: UUR     MR      
           Vector  Mate for  UVEL         Diagnostic #     31  VVEL     exists 
 Computing Diagnostic #     31  VVEL         Counter:       4   Parms: VVR     MR      
           Vector  Mate for  VVEL         Diagnostic #     30  UVEL     exists 
 Computing Diagnostic #    214  SIarea       Counter:       4   Parms: SM      M1      
 Computing Diagnostic #    217  SIheff       Counter:       4   Parms: SM      M1      
 Computing Diagnostic #    219  SIhsnow      Counter:       4   Parms: SM      M1      
 Computing Diagnostic #     83  sIceLoad     Counter:       4   Parms: SM      U1      
 Computing Diagnostic #    223  SIuice       Counter:       4   Parms: UU      M1      
           Vector  Mate for  SIuice       Diagnostic #    224  SIvice   exists 
 Computing Diagnostic #    224  SIvice       Counter:       4   Parms: VV      M1      
           Vector  Mate for  SIvice       Diagnostic #    223  SIuice   exists 
 Computing Diagnostic #    225  SItaux       Counter:       4   Parms: UU      U1      
           Vector  Mate for  SItaux       Diagnostic #    226  SItauy   exists 
 Computing Diagnostic #    226  SItauy       Counter:       4   Parms: VV      U1      
           Vector  Mate for  SItauy       Diagnostic #    225  SItaux   exists 
 Computing Diagnostic #    285  SIareaN      Counter:       4   Parms: SM      MX      
 Computing Diagnostic #    284  SIheffN      Counter:       4   Parms: SM      MX      
 Computing Diagnostic #    286  SIhsnowN     Counter:       4   Parms: SM      MX      
 Compute Stats, Diag. #    214  SIarea    vol(   0 ): 3.580E+14  Parms: SM      M1      
 Compute Stats, Diag. #    217  SIheff    vol(   0 ): 3.580E+14  Parms: SM      M1      
 Compute Stats, Diag. #    219  SIhsnow   vol(   0 ): 3.580E+14  Parms: SM      M1      
 Compute Stats, Diag. #     83  sIceLoad  vol(   0 ): 3.580E+14  Parms: SM      U1      
 Compute Stats, Diag. #    223  SIuice    vol(   0 ): 3.513E+14  Parms: UU      M1      
 Compute Stats, Diag. #    224  SIvice    vol(   0 ): 3.508E+14  Parms: VV      M1      
 Compute Stats, Diag. #    225  SItaux    vol(   0 ): 3.513E+14  Parms: UU      U1      
 Compute Stats, Diag. #    226  SItauy    vol(   0 ): 3.508E+14  Parms: VV      U1      
 cg2d: Sum(rhs),rhsMax =   9.53247779806597E+01  2.99550268254679E-01
 Compute Stats, Diag. #    214  SIarea    vol(   0 ): 3.580E+14  Parms: SM      M1      
 Compute Stats, Diag. #    217  SIheff    vol(   0 ): 3.580E+14  Parms: SM      M1      
 Compute Stats, Diag. #    219  SIhsnow   vol(   0 ): 3.580E+14  Parms: SM      M1      
 Compute Stats, Diag. #     83  sIceLoad  vol(   0 ): 3.580E+14  Parms: SM      U1      
 Compute Stats, Diag. #    223  SIuice    vol(   0 ): 3.513E+14  Parms: UU      M1      
 Compute Stats, Diag. #    224  SIvice    vol(   0 ): 3.508E+14  Parms: VV      M1      
 Compute Stats, Diag. #    225  SItaux    vol(   0 ): 3.513E+14  Parms: UU      U1      
 Compute Stats, Diag. #    226  SItauy    vol(   0 ): 3.508E+14  Parms: VV      U1      
 cg2d: Sum(rhs),rhsMax =   9.54181211995343E+01  2.99980853701599E-01
 Compute Stats, Diag. #    214  SIarea    vol(   0 ): 3.580E+14  Parms: SM      M1      
 Compute Stats, Diag. #    217  SIheff    vol(   0 ): 3.580E+14  Parms: SM      M1      
 Compute Stats, Diag. #    219  SIhsnow   vol(   0 ): 3.580E+14  Parms: SM      M1      
 Compute Stats, Diag. #     83  sIceLoad  vol(   0 ): 3.580E+14  Parms: SM      U1      
 Compute Stats, Diag. #    223  SIuice    vol(   0 ): 3.513E+14  Parms: UU      M1      
 Compute Stats, Diag. #    224  SIvice    vol(   0 ): 3.508E+14  Parms: VV      M1      
 Compute Stats, Diag. #    225  SItaux    vol(   0 ): 3.513E+14  Parms: UU      U1      
 Compute Stats, Diag. #    226  SItauy    vol(   0 ): 3.508E+14  Parms: VV      U1      
 cg2d: Sum(rhs),rhsMax =   9.55050295779515E+01  3.00415888902004E-01
 Compute Stats, Diag. #    214  SIarea    vol(   0 ): 3.580E+14  Parms: SM      M1      
 Compute Stats, Diag. #    217  SIheff    vol(   0 ): 3.580E+14  Parms: SM      M1      
 Compute Stats, Diag. #    219  SIhsnow   vol(   0 ): 3.580E+14  Parms: SM      M1      
 Compute Stats, Diag. #     83  sIceLoad  vol(   0 ): 3.580E+14  Parms: SM      U1      
 Compute Stats, Diag. #    223  SIuice    vol(   0 ): 3.513E+14  Parms: UU      M1      
 Compute Stats, Diag. #    224  SIvice    vol(   0 ): 3.508E+14  Parms: VV      M1      
 Compute Stats, Diag. #    225  SItaux    vol(   0 ): 3.513E+14  Parms: UU      U1      
 Compute Stats, Diag. #    226  SItauy    vol(   0 ): 3.508E+14  Parms: VV      U1      
 cg2d: Sum(rhs),rhsMax =   9.55909403705973E+01  3.00840696019843E-01
(PID.TID 0000.0001)      cg2d_init_res =   3.31346120028653E-01
(PID.TID 0000.0001)      cg2d_iters(min,last) =      -1      32
(PID.TID 0000.0001)      cg2d_last_res =   2.23326810947525E-05
(PID.TID 0000.0001) // =======================================================
(PID.TID 0000.0001) // Begin MONITOR dynamic field statistics
(PID.TID 0000.0001) // =======================================================
(PID.TID 0000.0001) %MON time_tsnumber                =                    72
(PID.TID 0000.0001) %MON time_secondsf                =   6.4800000000000E+04
(PID.TID 0000.0001) %MON dynstat_eta_max              =   1.0835402128582E+00
(PID.TID 0000.0001) %MON dynstat_eta_min              =  -2.9850285667095E+00
(PID.TID 0000.0001) %MON dynstat_eta_mean             =  -3.0238467411286E-03
(PID.TID 0000.0001) %MON dynstat_eta_sd               =   6.9711891726129E-01
(PID.TID 0000.0001) %MON dynstat_eta_del2             =   8.5316858002374E-05
(PID.TID 0000.0001) %MON dynstat_uvel_max             =   8.8694400707624E-01
(PID.TID 0000.0001) %MON dynstat_uvel_min             =  -1.3714132734536E+00
(PID.TID 0000.0001) %MON dynstat_uvel_mean            =   1.4071033531605E-03
(PID.TID 0000.0001) %MON dynstat_uvel_sd              =   2.1395541554216E-02
(PID.TID 0000.0001) %MON dynstat_uvel_del2            =   1.3221674818581E-05
(PID.TID 0000.0001) %MON dynstat_vvel_max             =   1.3323840562198E+00
(PID.TID 0000.0001) %MON dynstat_vvel_min             =  -9.2325099950611E-01
(PID.TID 0000.0001) %MON dynstat_vvel_mean            =   1.6686147222096E-03
(PID.TID 0000.0001) %MON dynstat_vvel_sd              =   2.2727236411461E-02
(PID.TID 0000.0001) %MON dynstat_vvel_del2            =   1.3376416620465E-05
(PID.TID 0000.0001) %MON dynstat_wvel_max             =   4.1423202842210E-03
(PID.TID 0000.0001) %MON dynstat_wvel_min             =  -2.4478661990923E-03
(PID.TID 0000.0001) %MON dynstat_wvel_mean            =   5.9964336445579E-08
(PID.TID 0000.0001) %MON dynstat_wvel_sd              =   3.2694414612073E-05
(PID.TID 0000.0001) %MON dynstat_wvel_del2            =   5.2777838356921E-08
(PID.TID 0000.0001) %MON dynstat_theta_max            =   3.2634397660023E+01
(PID.TID 0000.0001) %MON dynstat_theta_min            =  -2.0422806870706E+00
(PID.TID 0000.0001) %MON dynstat_theta_mean           =   3.5905556575502E+00
(PID.TID 0000.0001) %MON dynstat_theta_sd             =   4.4363507503564E+00
(PID.TID 0000.0001) %MON dynstat_theta_del2           =   1.0521839352446E-04
(PID.TID 0000.0001) %MON dynstat_salt_max             =   4.0711527876337E+01
(PID.TID 0000.0001) %MON dynstat_salt_min             =   1.8873096120990E+01
(PID.TID 0000.0001) %MON dynstat_salt_mean            =   3.4725631846258E+01
(PID.TID 0000.0001) %MON dynstat_salt_sd              =   3.7713800917530E-01
(PID.TID 0000.0001) %MON dynstat_salt_del2            =   2.8266746706625E-05
(PID.TID 0000.0001) %MON dynstat_sst_max              =   3.2583384612825E+01
(PID.TID 0000.0001) %MON dynstat_sst_min              =  -1.8923194707798E+00
(PID.TID 0000.0001) %MON dynstat_sst_mean             =   1.8490440541397E+01
(PID.TID 0000.0001) %MON dynstat_sst_sd               =   1.0107262911665E+01
(PID.TID 0000.0001) %MON dynstat_sst_del2             =   8.5728264508273E-04
(PID.TID 0000.0001) %MON dynstat_sss_max              =   3.9397905079519E+01
(PID.TID 0000.0001) %MON dynstat_sss_min              =   1.8873096120990E+01
(PID.TID 0000.0001) %MON dynstat_sss_mean             =   3.4686168248987E+01
(PID.TID 0000.0001) %MON dynstat_sss_sd               =   1.1249767499357E+00
(PID.TID 0000.0001) %MON dynstat_sss_del2             =   5.9050371832250E-04
(PID.TID 0000.0001) %MON forcing_qnet_max             =   1.0334043106648E+03
(PID.TID 0000.0001) %MON forcing_qnet_min             =  -1.1003553466797E+03
(PID.TID 0000.0001) %MON forcing_qnet_mean            =   9.3270301858620E+00
(PID.TID 0000.0001) %MON forcing_qnet_sd              =   1.9977795300155E+02
(PID.TID 0000.0001) %MON forcing_qnet_del2            =   3.5908711958926E-01
(PID.TID 0000.0001) %MON forcing_qsw_max              =   0.0000000000000E+00
(PID.TID 0000.0001) %MON forcing_qsw_min              =  -1.0916510441083E+02
(PID.TID 0000.0001) %MON forcing_qsw_mean             =  -1.7334074857282E+01
(PID.TID 0000.0001) %MON forcing_qsw_sd               =   2.9155756386219E+01
(PID.TID 0000.0001) %MON forcing_qsw_del2             =   2.0677535682553E-02
(PID.TID 0000.0001) %MON forcing_empmr_max            =   2.6474338956177E-03
(PID.TID 0000.0001) %MON forcing_empmr_min            =  -4.0923137217760E-02
(PID.TID 0000.0001) %MON forcing_empmr_mean           =   3.1071601133563E-06
(PID.TID 0000.0001) %MON forcing_empmr_sd             =   2.0628659348159E-04
(PID.TID 0000.0001) %MON forcing_empmr_del2           =   2.1545991693889E-06
(PID.TID 0000.0001) %MON forcing_fu_max               =   9.7782674431801E-01
(PID.TID 0000.0001) %MON forcing_fu_min               =  -7.6054188609123E-01
(PID.TID 0000.0001) %MON forcing_fu_mean              =   9.0962177250840E-03
(PID.TID 0000.0001) %MON forcing_fu_sd                =   9.9082992831507E-02
(PID.TID 0000.0001) %MON forcing_fu_del2              =   1.3591821986407E-04
(PID.TID 0000.0001) %MON forcing_fv_max               =   8.4673535823822E-01
(PID.TID 0000.0001) %MON forcing_fv_min               =  -8.5616531968117E-01
(PID.TID 0000.0001) %MON forcing_fv_mean              =  -8.1865469476673E-03
(PID.TID 0000.0001) %MON forcing_fv_sd                =   1.0275187012345E-01
(PID.TID 0000.0001) %MON forcing_fv_del2              =   1.3193705671618E-04
(PID.TID 0000.0001) %MON trAdv_CFL_u_max              =   2.2203821538678E-02
(PID.TID 0000.0001) %MON trAdv_CFL_v_max              =   2.4995154154651E-02
(PID.TID 0000.0001) %MON trAdv_CFL_w_max              =   9.6652630218413E-02
(PID.TID 0000.0001) %MON advcfl_uvel_max              =   2.2679275716526E-02
(PID.TID 0000.0001) %MON advcfl_vvel_max              =   2.3650863297270E-02
(PID.TID 0000.0001) %MON advcfl_wvel_max              =   1.0061003638775E-01
(PID.TID 0000.0001) %MON advcfl_W_hf_max              =   1.0600461293698E-01
(PID.TID 0000.0001) %MON pe_b_mean                    =   6.3926442598072E-04
(PID.TID 0000.0001) %MON ke_max                       =   1.0642702593342E+00
(PID.TID 0000.0001) %MON ke_mean                      =   4.7209755137450E-04
(PID.TID 0000.0001) %MON ke_vol                       =   1.3349967953332E+18
(PID.TID 0000.0001) %MON vort_r_min                   =  -4.0148314859291E-05
(PID.TID 0000.0001) %MON vort_r_max                   =   3.9221588211422E-05
(PID.TID 0000.0001) %MON vort_a_mean                  =  -1.9727864647440E-05
(PID.TID 0000.0001) %MON vort_a_sd                    =   7.4543320826342E-05
(PID.TID 0000.0001) %MON vort_p_mean                  =  -2.1760547640857E-05
(PID.TID 0000.0001) %MON vort_p_sd                    =   9.7245161321994E-05
(PID.TID 0000.0001) %MON surfExpan_theta_mean         =  -2.2334916690588E-06
(PID.TID 0000.0001) %MON surfExpan_salt_mean          =  -1.7180466796432E-07
(PID.TID 0000.0001) // =======================================================
(PID.TID 0000.0001) // End MONITOR dynamic field statistics
(PID.TID 0000.0001) // =======================================================
(PID.TID 0000.0001) // =======================================================
(PID.TID 0000.0001) // Begin MONITOR SEAICE statistics
(PID.TID 0000.0001) // =======================================================
(PID.TID 0000.0001) %MON seaice_tsnumber              =                    72
(PID.TID 0000.0001) %MON seaice_time_sec              =   6.4800000000000E+04
(PID.TID 0000.0001) %MON seaice_uice_max              =   6.7412938683714E-01
(PID.TID 0000.0001) %MON seaice_uice_min              =  -1.0085598605227E+00
(PID.TID 0000.0001) %MON seaice_uice_mean             =   1.3403445063832E-03
(PID.TID 0000.0001) %MON seaice_uice_sd               =   1.3863244311360E-01
(PID.TID 0000.0001) %MON seaice_uice_del2             =   1.9317322466039E-04
(PID.TID 0000.0001) %MON seaice_vice_max              =   1.2653049855135E+00
(PID.TID 0000.0001) %MON seaice_vice_min              =  -9.2356751325553E-01
(PID.TID 0000.0001) %MON seaice_vice_mean             =  -1.9512889093003E-02
(PID.TID 0000.0001) %MON seaice_vice_sd               =   1.2807120645639E-01
(PID.TID 0000.0001) %MON seaice_vice_del2             =   1.6336225217250E-04
(PID.TID 0000.0001) %MON seaice_area_max              =   1.0000000000000E+00
(PID.TID 0000.0001) %MON seaice_area_min              =   0.0000000000000E+00
(PID.TID 0000.0001) %MON seaice_area_mean             =   7.1246688116693E-02
(PID.TID 0000.0001) %MON seaice_area_sd               =   2.3690126177773E-01
(PID.TID 0000.0001) %MON seaice_area_del2             =   3.7513054163878E-04
(PID.TID 0000.0001) %MON seaice_heff_max              =   2.5102846428850E+01
(PID.TID 0000.0001) %MON seaice_heff_min              =   0.0000000000000E+00
(PID.TID 0000.0001) %MON seaice_heff_mean             =   2.1711912615047E-01
(PID.TID 0000.0001) %MON seaice_heff_sd               =   1.0638134578353E+00
(PID.TID 0000.0001) %MON seaice_heff_del2             =   3.1131635587595E-03
(PID.TID 0000.0001) %MON seaice_hsnow_max             =   8.2909917768313E+00
(PID.TID 0000.0001) %MON seaice_hsnow_min             =   0.0000000000000E+00
(PID.TID 0000.0001) %MON seaice_hsnow_mean            =   2.4593386820498E-02
(PID.TID 0000.0001) %MON seaice_hsnow_sd              =   1.5295508151135E-01
(PID.TID 0000.0001) %MON seaice_hsnow_del2            =   9.9024037226073E-04
(PID.TID 0000.0001) // =======================================================
(PID.TID 0000.0001) // End MONITOR SEAICE statistics
(PID.TID 0000.0001) // =======================================================
 Computing Diagnostic #     86  oceQnet      Counter:       4   Parms: SM      U1      
 Computing Diagnostic #     87  oceQsw       Counter:       4   Parms: SM      U1      
 Computing Diagnostic #     84  oceFWflx     Counter:       4   Parms: SM      U1      
 Computing Diagnostic #     85  oceSflux     Counter:       4   Parms: SM      U1      
 Computing Diagnostic #     80  oceTAUX      Counter:       4   Parms: UU      U1      
           Vector  Mate for  oceTAUX      Diagnostic #     81  oceTAUY  exists 
 Computing Diagnostic #     81  oceTAUY      Counter:       4   Parms: VV      U1      
           Vector  Mate for  oceTAUY      Diagnostic #     80  oceTAUX  exists 
 Computing Diagnostic #     26  THETA        Counter:       4   Parms: SMR     MR      
 Computing Diagnostic #     27  SALT         Counter:       4   Parms: SMR     MR      
 Computing Diagnostic #     30  UVEL         Counter:       4   Parms: UUR     MR      
           Vector  Mate for  UVEL         Diagnostic #     31  VVEL     exists 
 Computing Diagnostic #     31  VVEL         Counter:       4   Parms: VVR     MR      
           Vector  Mate for  VVEL         Diagnostic #     30  UVEL     exists 
 Computing Diagnostic #    214  SIarea       Counter:       4   Parms: SM      M1      
 Computing Diagnostic #    217  SIheff       Counter:       4   Parms: SM      M1      
 Computing Diagnostic #    219  SIhsnow      Counter:       4   Parms: SM      M1      
 Computing Diagnostic #     83  sIceLoad     Counter:       4   Parms: SM      U1      
 Computing Diagnostic #    223  SIuice       Counter:       4   Parms: UU      M1      
           Vector  Mate for  SIuice       Diagnostic #    224  SIvice   exists 
 Computing Diagnostic #    224  SIvice       Counter:       4   Parms: VV      M1      
           Vector  Mate for  SIvice       Diagnostic #    223  SIuice   exists 
 Computing Diagnostic #    225  SItaux       Counter:       4   Parms: UU      U1      
           Vector  Mate for  SItaux       Diagnostic #    226  SItauy   exists 
 Computing Diagnostic #    226  SItauy       Counter:       4   Parms: VV      U1      
           Vector  Mate for  SItauy       Diagnostic #    225  SItaux   exists 
 Computing Diagnostic #    285  SIareaN      Counter:       4   Parms: SM      MX      
 Computing Diagnostic #    284  SIheffN      Counter:       4   Parms: SM      MX      
 Computing Diagnostic #    286  SIhsnowN     Counter:       4   Parms: SM      MX      
 Compute Stats, Diag. #    214  SIarea    vol(   0 ): 3.580E+14  Parms: SM      M1      
 Compute Stats, Diag. #    217  SIheff    vol(   0 ): 3.580E+14  Parms: SM      M1      
 Compute Stats, Diag. #    219  SIhsnow   vol(   0 ): 3.580E+14  Parms: SM      M1      
 Compute Stats, Diag. #     83  sIceLoad  vol(   0 ): 3.580E+14  Parms: SM      U1      
 Compute Stats, Diag. #    223  SIuice    vol(   0 ): 3.513E+14  Parms: UU      M1      
 Compute Stats, Diag. #    224  SIvice    vol(   0 ): 3.508E+14  Parms: VV      M1      
 Compute Stats, Diag. #    225  SItaux    vol(   0 ): 3.513E+14  Parms: UU      U1      
 Compute Stats, Diag. #    226  SItauy    vol(   0 ): 3.508E+14  Parms: VV      U1      
 SEAICE_LSR: Residual Initial ipass,Uice,Vice=    1  1.22102256E-02  1.15787972E-02
 SEAICE_LSR (ipass=   1) iters,dU,Resid=  1500  4.89072368E-09  1.32920490E-07
 SEAICE_LSR (ipass=   1) iters,dV,Resid=  1500  2.59422348E-09  6.64830618E-07
 SEAICE_LSR: Residual Initial ipass,Uice,Vice=    2  1.08248932E-02  1.14286995E-02
 SEAICE_LSR (ipass=   2) iters,dU,Resid=  1500  3.21477984E-09  8.66317092E-08
 SEAICE_LSR (ipass=   2) iters,dV,Resid=  1500  1.95933978E-09  4.98485075E-07
 cg2d: Sum(rhs),rhsMax =   9.56729984867935E+01  3.01242196209624E-01
 Compute Stats, Diag. #    214  SIarea    vol(   0 ): 3.580E+14  Parms: SM      M1      
 Compute Stats, Diag. #    217  SIheff    vol(   0 ): 3.580E+14  Parms: SM      M1      
 Compute Stats, Diag. #    219  SIhsnow   vol(   0 ): 3.580E+14  Parms: SM      M1      
 Compute Stats, Diag. #     83  sIceLoad  vol(   0 ): 3.580E+14  Parms: SM      U1      
 Compute Stats, Diag. #    223  SIuice    vol(   0 ): 3.513E+14  Parms: UU      M1      
 Compute Stats, Diag. #    224  SIvice    vol(   0 ): 3.508E+14  Parms: VV      M1      
 Compute Stats, Diag. #    225  SItaux    vol(   0 ): 3.513E+14  Parms: UU      U1      
 Compute Stats, Diag. #    226  SItauy    vol(   0 ): 3.508E+14  Parms: VV      U1      
 cg2d: Sum(rhs),rhsMax =   9.57526388789671E+01  3.01609314666229E-01
 Compute Stats, Diag. #    214  SIarea    vol(   0 ): 3.580E+14  Parms: SM      M1      
 Compute Stats, Diag. #    217  SIheff    vol(   0 ): 3.580E+14  Parms: SM      M1      
 Compute Stats, Diag. #    219  SIhsnow   vol(   0 ): 3.580E+14  Parms: SM      M1      
 Compute Stats, Diag. #     83  sIceLoad  vol(   0 ): 3.580E+14  Parms: SM      U1      
 Compute Stats, Diag. #    223  SIuice    vol(   0 ): 3.513E+14  Parms: UU      M1      
 Compute Stats, Diag. #    224  SIvice    vol(   0 ): 3.508E+14  Parms: VV      M1      
 Compute Stats, Diag. #    225  SItaux    vol(   0 ): 3.513E+14  Parms: UU      U1      
 Compute Stats, Diag. #    226  SItauy    vol(   0 ): 3.508E+14  Parms: VV      U1      
 cg2d: Sum(rhs),rhsMax =   9.58166836512451E+01  3.01932750518695E-01
 Compute Stats, Diag. #    214  SIarea    vol(   0 ): 3.580E+14  Parms: SM      M1      
 Compute Stats, Diag. #    217  SIheff    vol(   0 ): 3.580E+14  Parms: SM      M1      
 Compute Stats, Diag. #    219  SIhsnow   vol(   0 ): 3.580E+14  Parms: SM      M1      
 Compute Stats, Diag. #     83  sIceLoad  vol(   0 ): 3.580E+14  Parms: SM      U1      
 Compute Stats, Diag. #    223  SIuice    vol(   0 ): 3.513E+14  Parms: UU      M1      
 Compute Stats, Diag. #    224  SIvice    vol(   0 ): 3.508E+14  Parms: VV      M1      
 Compute Stats, Diag. #    225  SItaux    vol(   0 ): 3.513E+14  Parms: UU      U1      
 Compute Stats, Diag. #    226  SItauy    vol(   0 ): 3.508E+14  Parms: VV      U1      
 cg2d: Sum(rhs),rhsMax =   9.58824618236319E+01  3.02205572999190E-01
 Computing Diagnostic #     86  oceQnet      Counter:       4   Parms: SM      U1      
 Computing Diagnostic #     87  oceQsw       Counter:       4   Parms: SM      U1      
 Computing Diagnostic #     84  oceFWflx     Counter:       4   Parms: SM      U1      
 Computing Diagnostic #     85  oceSflux     Counter:       4   Parms: SM      U1      
 Computing Diagnostic #     80  oceTAUX      Counter:       4   Parms: UU      U1      
           Vector  Mate for  oceTAUX      Diagnostic #     81  oceTAUY  exists 
 Computing Diagnostic #     81  oceTAUY      Counter:       4   Parms: VV      U1      
           Vector  Mate for  oceTAUY      Diagnostic #     80  oceTAUX  exists 
 Computing Diagnostic #     26  THETA        Counter:       4   Parms: SMR     MR      
 Computing Diagnostic #     27  SALT         Counter:       4   Parms: SMR     MR      
 Computing Diagnostic #     30  UVEL         Counter:       4   Parms: UUR     MR      
           Vector  Mate for  UVEL         Diagnostic #     31  VVEL     exists 
 Computing Diagnostic #     31  VVEL         Counter:       4   Parms: VVR     MR      
           Vector  Mate for  VVEL         Diagnostic #     30  UVEL     exists 
 Computing Diagnostic #    214  SIarea       Counter:       4   Parms: SM      M1      
 Computing Diagnostic #    217  SIheff       Counter:       4   Parms: SM      M1      
 Computing Diagnostic #    219  SIhsnow      Counter:       4   Parms: SM      M1      
 Computing Diagnostic #     83  sIceLoad     Counter:       4   Parms: SM      U1      
 Computing Diagnostic #    223  SIuice       Counter:       4   Parms: UU      M1      
           Vector  Mate for  SIuice       Diagnostic #    224  SIvice   exists 
 Computing Diagnostic #    224  SIvice       Counter:       4   Parms: VV      M1      
           Vector  Mate for  SIvice       Diagnostic #    223  SIuice   exists 
 Computing Diagnostic #    225  SItaux       Counter:       4   Parms: UU      U1      
           Vector  Mate for  SItaux       Diagnostic #    226  SItauy   exists 
 Computing Diagnostic #    226  SItauy       Counter:       4   Parms: VV      U1      
           Vector  Mate for  SItauy       Diagnostic #    225  SItaux   exists 
 Computing Diagnostic #    285  SIareaN      Counter:       4   Parms: SM      MX      
 Computing Diagnostic #    284  SIheffN      Counter:       4   Parms: SM      MX      
 Computing Diagnostic #    286  SIhsnowN     Counter:       4   Parms: SM      MX      
 Compute Stats, Diag. #    214  SIarea    vol(   0 ): 3.580E+14  Parms: SM      M1      
 Compute Stats, Diag. #    217  SIheff    vol(   0 ): 3.580E+14  Parms: SM      M1      
 Compute Stats, Diag. #    219  SIhsnow   vol(   0 ): 3.580E+14  Parms: SM      M1      
 Compute Stats, Diag. #     83  sIceLoad  vol(   0 ): 3.580E+14  Parms: SM      U1      
 Compute Stats, Diag. #    223  SIuice    vol(   0 ): 3.513E+14  Parms: UU      M1      
 Compute Stats, Diag. #    224  SIvice    vol(   0 ): 3.508E+14  Parms: VV      M1      
 Compute Stats, Diag. #    225  SItaux    vol(   0 ): 3.513E+14  Parms: UU      U1      
 Compute Stats, Diag. #    226  SItauy    vol(   0 ): 3.508E+14  Parms: VV      U1      
 cg2d: Sum(rhs),rhsMax =   9.59418568035401E+01  3.02422526130600E-01
 Compute Stats, Diag. #    214  SIarea    vol(   0 ): 3.580E+14  Parms: SM      M1      
 Compute Stats, Diag. #    217  SIheff    vol(   0 ): 3.580E+14  Parms: SM      M1      
 Compute Stats, Diag. #    219  SIhsnow   vol(   0 ): 3.580E+14  Parms: SM      M1      
 Compute Stats, Diag. #     83  sIceLoad  vol(   0 ): 3.580E+14  Parms: SM      U1      
 Compute Stats, Diag. #    223  SIuice    vol(   0 ): 3.513E+14  Parms: UU      M1      
 Compute Stats, Diag. #    224  SIvice    vol(   0 ): 3.508E+14  Parms: VV      M1      
 Compute Stats, Diag. #    225  SItaux    vol(   0 ): 3.513E+14  Parms: UU      U1      
 Compute Stats, Diag. #    226  SItauy    vol(   0 ): 3.508E+14  Parms: VV      U1      
 cg2d: Sum(rhs),rhsMax =   9.59927643333965E+01  3.02653653464506E-01
 Compute Stats, Diag. #    214  SIarea    vol(   0 ): 3.580E+14  Parms: SM      M1      
 Compute Stats, Diag. #    217  SIheff    vol(   0 ): 3.580E+14  Parms: SM      M1      
 Compute Stats, Diag. #    219  SIhsnow   vol(   0 ): 3.580E+14  Parms: SM      M1      
 Compute Stats, Diag. #     83  sIceLoad  vol(   0 ): 3.580E+14  Parms: SM      U1      
 Compute Stats, Diag. #    223  SIuice    vol(   0 ): 3.513E+14  Parms: UU      M1      
 Compute Stats, Diag. #    224  SIvice    vol(   0 ): 3.508E+14  Parms: VV      M1      
 Compute Stats, Diag. #    225  SItaux    vol(   0 ): 3.513E+14  Parms: UU      U1      
 Compute Stats, Diag. #    226  SItauy    vol(   0 ): 3.508E+14  Parms: VV      U1      
 cg2d: Sum(rhs),rhsMax =   9.60440427551315E+01  3.02962957279206E-01
 Compute Stats, Diag. #    214  SIarea    vol(   0 ): 3.580E+14  Parms: SM      M1      
 Compute Stats, Diag. #    217  SIheff    vol(   0 ): 3.580E+14  Parms: SM      M1      
 Compute Stats, Diag. #    219  SIhsnow   vol(   0 ): 3.580E+14  Parms: SM      M1      
 Compute Stats, Diag. #     83  sIceLoad  vol(   0 ): 3.580E+14  Parms: SM      U1      
 Compute Stats, Diag. #    223  SIuice    vol(   0 ): 3.513E+14  Parms: UU      M1      
 Compute Stats, Diag. #    224  SIvice    vol(   0 ): 3.508E+14  Parms: VV      M1      
 Compute Stats, Diag. #    225  SItaux    vol(   0 ): 3.513E+14  Parms: UU      U1      
 Compute Stats, Diag. #    226  SItauy    vol(   0 ): 3.508E+14  Parms: VV      U1      
 cg2d: Sum(rhs),rhsMax =   9.60889458322228E+01  3.03210935893009E-01
(PID.TID 0000.0001)      cg2d_init_res =   3.13358717163825E-01
(PID.TID 0000.0001)      cg2d_iters(min,last) =      -1      31
(PID.TID 0000.0001)      cg2d_last_res =   2.08406355324181E-05
(PID.TID 0000.0001) // =======================================================
(PID.TID 0000.0001) // Begin MONITOR dynamic field statistics
(PID.TID 0000.0001) // =======================================================
(PID.TID 0000.0001) %MON time_tsnumber                =                    80
(PID.TID 0000.0001) %MON time_secondsf                =   7.2000000000000E+04
(PID.TID 0000.0001) %MON dynstat_eta_max              =   1.0814136243519E+00
(PID.TID 0000.0001) %MON dynstat_eta_min              =  -2.9812682293006E+00
(PID.TID 0000.0001) %MON dynstat_eta_mean             =  -3.0396002444040E-03
(PID.TID 0000.0001) %MON dynstat_eta_sd               =   6.9245390767101E-01
(PID.TID 0000.0001) %MON dynstat_eta_del2             =   8.3214170605134E-05
(PID.TID 0000.0001) %MON dynstat_uvel_max             =   9.1575841160726E-01
(PID.TID 0000.0001) %MON dynstat_uvel_min             =  -1.3496170075121E+00
(PID.TID 0000.0001) %MON dynstat_uvel_mean            =   1.1568510781857E-03
(PID.TID 0000.0001) %MON dynstat_uvel_sd              =   2.1201719772761E-02
(PID.TID 0000.0001) %MON dynstat_uvel_del2            =   1.3184781991228E-05
(PID.TID 0000.0001) %MON dynstat_vvel_max             =   1.3243232726610E+00
(PID.TID 0000.0001) %MON dynstat_vvel_min             =  -9.2059446206623E-01
(PID.TID 0000.0001) %MON dynstat_vvel_mean            =   1.6773533395334E-03
(PID.TID 0000.0001) %MON dynstat_vvel_sd              =   2.2609637048557E-02
(PID.TID 0000.0001) %MON dynstat_vvel_del2            =   1.3146577686559E-05
(PID.TID 0000.0001) %MON dynstat_wvel_max             =   3.5984097120375E-03
(PID.TID 0000.0001) %MON dynstat_wvel_min             =  -2.2875289629219E-03
(PID.TID 0000.0001) %MON dynstat_wvel_mean            =   4.1014766519302E-08
(PID.TID 0000.0001) %MON dynstat_wvel_sd              =   3.2086364673548E-05
(PID.TID 0000.0001) %MON dynstat_wvel_del2            =   5.1828153914737E-08
(PID.TID 0000.0001) %MON dynstat_theta_max            =   3.2628671944865E+01
(PID.TID 0000.0001) %MON dynstat_theta_min            =  -2.0422712966275E+00
(PID.TID 0000.0001) %MON dynstat_theta_mean           =   3.5905542605900E+00
(PID.TID 0000.0001) %MON dynstat_theta_sd             =   4.4363392097843E+00
(PID.TID 0000.0001) %MON dynstat_theta_del2           =   1.0473450764437E-04
(PID.TID 0000.0001) %MON dynstat_salt_max             =   4.0711528764185E+01
(PID.TID 0000.0001) %MON dynstat_salt_min             =   1.8874760815489E+01
(PID.TID 0000.0001) %MON dynstat_salt_mean            =   3.4725627365171E+01
(PID.TID 0000.0001) %MON dynstat_salt_sd              =   3.7711756896976E-01
(PID.TID 0000.0001) %MON dynstat_salt_del2            =   2.8114755710612E-05
(PID.TID 0000.0001) %MON dynstat_sst_max              =   3.2571159234593E+01
(PID.TID 0000.0001) %MON dynstat_sst_min              =  -1.8846627767203E+00
(PID.TID 0000.0001) %MON dynstat_sst_mean             =   1.8493039734167E+01
(PID.TID 0000.0001) %MON dynstat_sst_sd               =   1.0109441052526E+01
(PID.TID 0000.0001) %MON dynstat_sst_del2             =   8.5559114545118E-04
(PID.TID 0000.0001) %MON dynstat_sss_max              =   3.9375830424403E+01
(PID.TID 0000.0001) %MON dynstat_sss_min              =   1.8874760815489E+01
(PID.TID 0000.0001) %MON dynstat_sss_mean             =   3.4686960436363E+01
(PID.TID 0000.0001) %MON dynstat_sss_sd               =   1.1257579889631E+00
(PID.TID 0000.0001) %MON dynstat_sss_del2             =   5.8745501936818E-04
(PID.TID 0000.0001) %MON forcing_qnet_max             =   3.9349216308594E+03
(PID.TID 0000.0001) %MON forcing_qnet_min             =  -7.7938521507494E+02
(PID.TID 0000.0001) %MON forcing_qnet_mean            =  -9.2668444641226E-01
(PID.TID 0000.0001) %MON forcing_qnet_sd              =   1.9254741932090E+02
(PID.TID 0000.0001) %MON forcing_qnet_del2            =   4.1385069834678E-01
(PID.TID 0000.0001) %MON forcing_qsw_max              =   0.0000000000000E+00
(PID.TID 0000.0001) %MON forcing_qsw_min              =  -1.0964071656840E+02
(PID.TID 0000.0001) %MON forcing_qsw_mean             =  -1.8825283599208E+01
(PID.TID 0000.0001) %MON forcing_qsw_sd               =   2.8483454876102E+01
(PID.TID 0000.0001) %MON forcing_qsw_del2             =   2.0531125368704E-02
(PID.TID 0000.0001) %MON forcing_empmr_max            =   1.7748080426827E-03
(PID.TID 0000.0001) %MON forcing_empmr_min            =  -5.2549939602613E-02
(PID.TID 0000.0001) %MON forcing_empmr_mean           =   1.6240223820188E-06
(PID.TID 0000.0001) %MON forcing_empmr_sd             =   2.3141729087708E-04
(PID.TID 0000.0001) %MON forcing_empmr_del2           =   2.2876622312276E-06
(PID.TID 0000.0001) %MON forcing_fu_max               =   9.0296643972397E-01
(PID.TID 0000.0001) %MON forcing_fu_min               =  -8.0736884474754E-01
(PID.TID 0000.0001) %MON forcing_fu_mean              =   8.9535258058662E-03
(PID.TID 0000.0001) %MON forcing_fu_sd                =   9.7656118367420E-02
(PID.TID 0000.0001) %MON forcing_fu_del2              =   1.3516272004401E-04
(PID.TID 0000.0001) %MON forcing_fv_max               =   9.5264270901680E-01
(PID.TID 0000.0001) %MON forcing_fv_min               =  -9.7437489032746E-01
(PID.TID 0000.0001) %MON forcing_fv_mean              =  -8.6566293451256E-03
(PID.TID 0000.0001) %MON forcing_fv_sd                =   1.0341182975698E-01
(PID.TID 0000.0001) %MON forcing_fv_del2              =   1.3452676679368E-04
(PID.TID 0000.0001) %MON trAdv_CFL_u_max              =   2.2934591084105E-02
(PID.TID 0000.0001) %MON trAdv_CFL_v_max              =   2.4646739670717E-02
(PID.TID 0000.0001) %MON trAdv_CFL_w_max              =   1.1173829035657E-01
(PID.TID 0000.0001) %MON advcfl_uvel_max              =   2.2138752453827E-02
(PID.TID 0000.0001) %MON advcfl_vvel_max              =   2.3507935502795E-02
(PID.TID 0000.0001) %MON advcfl_wvel_max              =   1.1633692249495E-01
(PID.TID 0000.0001) %MON advcfl_W_hf_max              =   1.2264667460741E-01
(PID.TID 0000.0001) %MON pe_b_mean                    =   6.3073762872566E-04
(PID.TID 0000.0001) %MON ke_max                       =   1.0500673587584E+00
(PID.TID 0000.0001) %MON ke_mean                      =   4.6525060144446E-04
(PID.TID 0000.0001) %MON ke_vol                       =   1.3349967892288E+18
(PID.TID 0000.0001) %MON vort_r_min                   =  -3.9534191432391E-05
(PID.TID 0000.0001) %MON vort_r_max                   =   3.9574537039929E-05
(PID.TID 0000.0001) %MON vort_a_mean                  =  -1.9727864647440E-05
(PID.TID 0000.0001) %MON vort_a_sd                    =   7.4543279674293E-05
(PID.TID 0000.0001) %MON vort_p_mean                  =  -2.1760547350628E-05
(PID.TID 0000.0001) %MON vort_p_sd                    =   9.7245203842839E-05
(PID.TID 0000.0001) %MON surfExpan_theta_mean         =  -1.8833538384492E-06
(PID.TID 0000.0001) %MON surfExpan_salt_mean          =  -1.0090240332057E-07
(PID.TID 0000.0001) // =======================================================
(PID.TID 0000.0001) // End MONITOR dynamic field statistics
(PID.TID 0000.0001) // =======================================================
(PID.TID 0000.0001) // =======================================================
(PID.TID 0000.0001) // Begin MONITOR SEAICE statistics
(PID.TID 0000.0001) // =======================================================
(PID.TID 0000.0001) %MON seaice_tsnumber              =                    80
(PID.TID 0000.0001) %MON seaice_time_sec              =   7.2000000000000E+04
(PID.TID 0000.0001) %MON seaice_uice_max              =   6.7351446630180E-01
(PID.TID 0000.0001) %MON seaice_uice_min              =  -9.9446797500687E-01
(PID.TID 0000.0001) %MON seaice_uice_mean             =   1.3916300568696E-03
(PID.TID 0000.0001) %MON seaice_uice_sd               =   1.3733859315808E-01
(PID.TID 0000.0001) %MON seaice_uice_del2             =   1.9182876520544E-04
(PID.TID 0000.0001) %MON seaice_vice_max              =   1.2942627148055E+00
(PID.TID 0000.0001) %MON seaice_vice_min              =  -9.2096206595051E-01
(PID.TID 0000.0001) %MON seaice_vice_mean             =  -2.1296085300913E-02
(PID.TID 0000.0001) %MON seaice_vice_sd               =   1.2810600364167E-01
(PID.TID 0000.0001) %MON seaice_vice_del2             =   1.6153634108267E-04
(PID.TID 0000.0001) %MON seaice_area_max              =   1.0000000000000E+00
(PID.TID 0000.0001) %MON seaice_area_min              =   0.0000000000000E+00
(PID.TID 0000.0001) %MON seaice_area_mean             =   7.1148261245328E-02
(PID.TID 0000.0001) %MON seaice_area_sd               =   2.3678596635979E-01
(PID.TID 0000.0001) %MON seaice_area_del2             =   3.6834152785780E-04
(PID.TID 0000.0001) %MON seaice_heff_max              =   2.5099085667209E+01
(PID.TID 0000.0001) %MON seaice_heff_min              =   0.0000000000000E+00
(PID.TID 0000.0001) %MON seaice_heff_mean             =   2.1711729333883E-01
(PID.TID 0000.0001) %MON seaice_heff_sd               =   1.0636109533978E+00
(PID.TID 0000.0001) %MON seaice_heff_del2             =   3.0645476102809E-03
(PID.TID 0000.0001) %MON seaice_hsnow_max             =   8.2897560579343E+00
(PID.TID 0000.0001) %MON seaice_hsnow_min             =   0.0000000000000E+00
(PID.TID 0000.0001) %MON seaice_hsnow_mean            =   2.4583752575735E-02
(PID.TID 0000.0001) %MON seaice_hsnow_sd              =   1.5262082781183E-01
(PID.TID 0000.0001) %MON seaice_hsnow_del2            =   9.7423601862210E-04
(PID.TID 0000.0001) // =======================================================
(PID.TID 0000.0001) // End MONITOR SEAICE statistics
(PID.TID 0000.0001) // =======================================================
 Computing Diagnostic #     86  oceQnet      Counter:       4   Parms: SM      U1      
 Computing Diagnostic #     87  oceQsw       Counter:       4   Parms: SM      U1      
 Computing Diagnostic #     84  oceFWflx     Counter:       4   Parms: SM      U1      
 Computing Diagnostic #     85  oceSflux     Counter:       4   Parms: SM      U1      
 Computing Diagnostic #     80  oceTAUX      Counter:       4   Parms: UU      U1      
           Vector  Mate for  oceTAUX      Diagnostic #     81  oceTAUY  exists 
 Computing Diagnostic #     81  oceTAUY      Counter:       4   Parms: VV      U1      
           Vector  Mate for  oceTAUY      Diagnostic #     80  oceTAUX  exists 
 Computing Diagnostic #     26  THETA        Counter:       4   Parms: SMR     MR      
 Computing Diagnostic #     27  SALT         Counter:       4   Parms: SMR     MR      
 Computing Diagnostic #     30  UVEL         Counter:       4   Parms: UUR     MR      
           Vector  Mate for  UVEL         Diagnostic #     31  VVEL     exists 
 Computing Diagnostic #     31  VVEL         Counter:       4   Parms: VVR     MR      
           Vector  Mate for  VVEL         Diagnostic #     30  UVEL     exists 
 Computing Diagnostic #    214  SIarea       Counter:       4   Parms: SM      M1      
 Computing Diagnostic #    217  SIheff       Counter:       4   Parms: SM      M1      
 Computing Diagnostic #    219  SIhsnow      Counter:       4   Parms: SM      M1      
 Computing Diagnostic #     83  sIceLoad     Counter:       4   Parms: SM      U1      
 Computing Diagnostic #    223  SIuice       Counter:       4   Parms: UU      M1      
           Vector  Mate for  SIuice       Diagnostic #    224  SIvice   exists 
 Computing Diagnostic #    224  SIvice       Counter:       4   Parms: VV      M1      
           Vector  Mate for  SIvice       Diagnostic #    223  SIuice   exists 
 Computing Diagnostic #    225  SItaux       Counter:       4   Parms: UU      U1      
           Vector  Mate for  SItaux       Diagnostic #    226  SItauy   exists 
 Computing Diagnostic #    226  SItauy       Counter:       4   Parms: VV      U1      
           Vector  Mate for  SItauy       Diagnostic #    225  SItaux   exists 
 Computing Diagnostic #    285  SIareaN      Counter:       4   Parms: SM      MX      
 Computing Diagnostic #    284  SIheffN      Counter:       4   Parms: SM      MX      
 Computing Diagnostic #    286  SIhsnowN     Counter:       4   Parms: SM      MX      
 Compute Stats, Diag. #    214  SIarea    vol(   0 ): 3.580E+14  Parms: SM      M1      
 Compute Stats, Diag. #    217  SIheff    vol(   0 ): 3.580E+14  Parms: SM      M1      
 Compute Stats, Diag. #    219  SIhsnow   vol(   0 ): 3.580E+14  Parms: SM      M1      
 Compute Stats, Diag. #     83  sIceLoad  vol(   0 ): 3.580E+14  Parms: SM      U1      
 Compute Stats, Diag. #    223  SIuice    vol(   0 ): 3.513E+14  Parms: UU      M1      
 Compute Stats, Diag. #    224  SIvice    vol(   0 ): 3.508E+14  Parms: VV      M1      
 Compute Stats, Diag. #    225  SItaux    vol(   0 ): 3.513E+14  Parms: UU      U1      
 Compute Stats, Diag. #    226  SItauy    vol(   0 ): 3.508E+14  Parms: VV      U1      
 SEAICE_LSR: Residual Initial ipass,Uice,Vice=    1  1.19709166E-02  1.14942369E-02
 SEAICE_LSR (ipass=   1) iters,dU,Resid=  1500  3.32995634E-08  8.97591826E-07
 SEAICE_LSR (ipass=   1) iters,dV,Resid=  1500  6.09951469E-09  1.46888960E-06
 SEAICE_LSR: Residual Initial ipass,Uice,Vice=    2  1.11520313E-02  1.17461642E-02
 SEAICE_LSR (ipass=   2) iters,dU,Resid=  1500  1.68228314E-08  4.92281078E-07
 SEAICE_LSR (ipass=   2) iters,dV,Resid=  1500  4.26967637E-09  1.02018075E-06
 cg2d: Sum(rhs),rhsMax =   9.61250995396566E+01  3.03394307835951E-01
 Compute Stats, Diag. #    214  SIarea    vol(   0 ): 3.580E+14  Parms: SM      M1      
 Compute Stats, Diag. #    217  SIheff    vol(   0 ): 3.580E+14  Parms: SM      M1      
 Compute Stats, Diag. #    219  SIhsnow   vol(   0 ): 3.580E+14  Parms: SM      M1      
 Compute Stats, Diag. #     83  sIceLoad  vol(   0 ): 3.580E+14  Parms: SM      U1      
 Compute Stats, Diag. #    223  SIuice    vol(   0 ): 3.513E+14  Parms: UU      M1      
 Compute Stats, Diag. #    224  SIvice    vol(   0 ): 3.508E+14  Parms: VV      M1      
 Compute Stats, Diag. #    225  SItaux    vol(   0 ): 3.513E+14  Parms: UU      U1      
 Compute Stats, Diag. #    226  SItauy    vol(   0 ): 3.508E+14  Parms: VV      U1      
 cg2d: Sum(rhs),rhsMax =   9.61594562364669E+01  3.03511302225270E-01
 Compute Stats, Diag. #    214  SIarea    vol(   0 ): 3.580E+14  Parms: SM      M1      
 Compute Stats, Diag. #    217  SIheff    vol(   0 ): 3.580E+14  Parms: SM      M1      
 Compute Stats, Diag. #    219  SIhsnow   vol(   0 ): 3.580E+14  Parms: SM      M1      
 Compute Stats, Diag. #     83  sIceLoad  vol(   0 ): 3.580E+14  Parms: SM      U1      
 Compute Stats, Diag. #    223  SIuice    vol(   0 ): 3.513E+14  Parms: UU      M1      
 Compute Stats, Diag. #    224  SIvice    vol(   0 ): 3.508E+14  Parms: VV      M1      
 Compute Stats, Diag. #    225  SItaux    vol(   0 ): 3.513E+14  Parms: UU      U1      
 Compute Stats, Diag. #    226  SItauy    vol(   0 ): 3.508E+14  Parms: VV      U1      
 cg2d: Sum(rhs),rhsMax =   9.61894043412519E+01  3.03559868491723E-01
 Compute Stats, Diag. #    214  SIarea    vol(   0 ): 3.580E+14  Parms: SM      M1      
 Compute Stats, Diag. #    217  SIheff    vol(   0 ): 3.580E+14  Parms: SM      M1      
 Compute Stats, Diag. #    219  SIhsnow   vol(   0 ): 3.580E+14  Parms: SM      M1      
 Compute Stats, Diag. #     83  sIceLoad  vol(   0 ): 3.580E+14  Parms: SM      U1      
 Compute Stats, Diag. #    223  SIuice    vol(   0 ): 3.513E+14  Parms: UU      M1      
 Compute Stats, Diag. #    224  SIvice    vol(   0 ): 3.508E+14  Parms: VV      M1      
 Compute Stats, Diag. #    225  SItaux    vol(   0 ): 3.513E+14  Parms: UU      U1      
 Compute Stats, Diag. #    226  SItauy    vol(   0 ): 3.508E+14  Parms: VV      U1      
 cg2d: Sum(rhs),rhsMax =   9.62087196399195E+01  3.03539712813729E-01
 Computing Diagnostic #     86  oceQnet      Counter:       4   Parms: SM      U1      
 Computing Diagnostic #     87  oceQsw       Counter:       4   Parms: SM      U1      
 Computing Diagnostic #     84  oceFWflx     Counter:       4   Parms: SM      U1      
 Computing Diagnostic #     85  oceSflux     Counter:       4   Parms: SM      U1      
 Computing Diagnostic #     80  oceTAUX      Counter:       4   Parms: UU      U1      
           Vector  Mate for  oceTAUX      Diagnostic #     81  oceTAUY  exists 
 Computing Diagnostic #     81  oceTAUY      Counter:       4   Parms: VV      U1      
           Vector  Mate for  oceTAUY      Diagnostic #     80  oceTAUX  exists 
 Computing Diagnostic #     26  THETA        Counter:       4   Parms: SMR     MR      
 Computing Diagnostic #     27  SALT         Counter:       4   Parms: SMR     MR      
 Computing Diagnostic #     30  UVEL         Counter:       4   Parms: UUR     MR      
           Vector  Mate for  UVEL         Diagnostic #     31  VVEL     exists 
 Computing Diagnostic #     31  VVEL         Counter:       4   Parms: VVR     MR      
           Vector  Mate for  VVEL         Diagnostic #     30  UVEL     exists 
 Computing Diagnostic #    214  SIarea       Counter:       4   Parms: SM      M1      
 Computing Diagnostic #    217  SIheff       Counter:       4   Parms: SM      M1      
 Computing Diagnostic #    219  SIhsnow      Counter:       4   Parms: SM      M1      
 Computing Diagnostic #     83  sIceLoad     Counter:       4   Parms: SM      U1      
 Computing Diagnostic #    223  SIuice       Counter:       4   Parms: UU      M1      
           Vector  Mate for  SIuice       Diagnostic #    224  SIvice   exists 
 Computing Diagnostic #    224  SIvice       Counter:       4   Parms: VV      M1      
           Vector  Mate for  SIvice       Diagnostic #    223  SIuice   exists 
 Computing Diagnostic #    225  SItaux       Counter:       4   Parms: UU      U1      
           Vector  Mate for  SItaux       Diagnostic #    226  SItauy   exists 
 Computing Diagnostic #    226  SItauy       Counter:       4   Parms: VV      U1      
           Vector  Mate for  SItauy       Diagnostic #    225  SItaux   exists 
 Computing Diagnostic #    285  SIareaN      Counter:       4   Parms: SM      MX      
 Computing Diagnostic #    284  SIheffN      Counter:       4   Parms: SM      MX      
 Computing Diagnostic #    286  SIhsnowN     Counter:       4   Parms: SM      MX      
 Compute Stats, Diag. #    214  SIarea    vol(   0 ): 3.580E+14  Parms: SM      M1      
 Compute Stats, Diag. #    217  SIheff    vol(   0 ): 3.580E+14  Parms: SM      M1      
 Compute Stats, Diag. #    219  SIhsnow   vol(   0 ): 3.580E+14  Parms: SM      M1      
 Compute Stats, Diag. #     83  sIceLoad  vol(   0 ): 3.580E+14  Parms: SM      U1      
 Compute Stats, Diag. #    223  SIuice    vol(   0 ): 3.513E+14  Parms: UU      M1      
 Compute Stats, Diag. #    224  SIvice    vol(   0 ): 3.508E+14  Parms: VV      M1      
 Compute Stats, Diag. #    225  SItaux    vol(   0 ): 3.513E+14  Parms: UU      U1      
 Compute Stats, Diag. #    226  SItauy    vol(   0 ): 3.508E+14  Parms: VV      U1      
 cg2d: Sum(rhs),rhsMax =   9.62285302183864E+01  3.03450288699364E-01
 Compute Stats, Diag. #    214  SIarea    vol(   0 ): 3.580E+14  Parms: SM      M1      
 Compute Stats, Diag. #    217  SIheff    vol(   0 ): 3.580E+14  Parms: SM      M1      
 Compute Stats, Diag. #    219  SIhsnow   vol(   0 ): 3.580E+14  Parms: SM      M1      
 Compute Stats, Diag. #     83  sIceLoad  vol(   0 ): 3.580E+14  Parms: SM      U1      
 Compute Stats, Diag. #    223  SIuice    vol(   0 ): 3.513E+14  Parms: UU      M1      
 Compute Stats, Diag. #    224  SIvice    vol(   0 ): 3.508E+14  Parms: VV      M1      
 Compute Stats, Diag. #    225  SItaux    vol(   0 ): 3.513E+14  Parms: UU      U1      
 Compute Stats, Diag. #    226  SItauy    vol(   0 ): 3.508E+14  Parms: VV      U1      
 cg2d: Sum(rhs),rhsMax =   9.62503432774973E+01  3.03291393163868E-01
 Compute Stats, Diag. #    214  SIarea    vol(   0 ): 3.580E+14  Parms: SM      M1      
 Compute Stats, Diag. #    217  SIheff    vol(   0 ): 3.580E+14  Parms: SM      M1      
 Compute Stats, Diag. #    219  SIhsnow   vol(   0 ): 3.580E+14  Parms: SM      M1      
 Compute Stats, Diag. #     83  sIceLoad  vol(   0 ): 3.580E+14  Parms: SM      U1      
 Compute Stats, Diag. #    223  SIuice    vol(   0 ): 3.513E+14  Parms: UU      M1      
 Compute Stats, Diag. #    224  SIvice    vol(   0 ): 3.508E+14  Parms: VV      M1      
 Compute Stats, Diag. #    225  SItaux    vol(   0 ): 3.513E+14  Parms: UU      U1      
 Compute Stats, Diag. #    226  SItauy    vol(   0 ): 3.508E+14  Parms: VV      U1      
 cg2d: Sum(rhs),rhsMax =   9.62690100940698E+01  3.03063483101202E-01
 Compute Stats, Diag. #    214  SIarea    vol(   0 ): 3.580E+14  Parms: SM      M1      
 Compute Stats, Diag. #    217  SIheff    vol(   0 ): 3.580E+14  Parms: SM      M1      
 Compute Stats, Diag. #    219  SIhsnow   vol(   0 ): 3.580E+14  Parms: SM      M1      
 Compute Stats, Diag. #     83  sIceLoad  vol(   0 ): 3.580E+14  Parms: SM      U1      
 Compute Stats, Diag. #    223  SIuice    vol(   0 ): 3.513E+14  Parms: UU      M1      
 Compute Stats, Diag. #    224  SIvice    vol(   0 ): 3.508E+14  Parms: VV      M1      
 Compute Stats, Diag. #    225  SItaux    vol(   0 ): 3.513E+14  Parms: UU      U1      
 Compute Stats, Diag. #    226  SItauy    vol(   0 ): 3.508E+14  Parms: VV      U1      
 cg2d: Sum(rhs),rhsMax =   9.62830177227074E+01  3.02767982293889E-01
(PID.TID 0000.0001)      cg2d_init_res =   2.88419444402557E-01
(PID.TID 0000.0001)      cg2d_iters(min,last) =      -1      31
(PID.TID 0000.0001)      cg2d_last_res =   2.57196018537573E-05
(PID.TID 0000.0001) // =======================================================
(PID.TID 0000.0001) // Begin MONITOR dynamic field statistics
(PID.TID 0000.0001) // =======================================================
(PID.TID 0000.0001) %MON time_tsnumber                =                    88
(PID.TID 0000.0001) %MON time_secondsf                =   7.9200000000000E+04
(PID.TID 0000.0001) %MON dynstat_eta_max              =   1.0858163683216E+00
(PID.TID 0000.0001) %MON dynstat_eta_min              =  -2.8697799371719E+00
(PID.TID 0000.0001) %MON dynstat_eta_mean             =  -3.0457393581244E-03
(PID.TID 0000.0001) %MON dynstat_eta_sd               =   6.8876221148805E-01
(PID.TID 0000.0001) %MON dynstat_eta_del2             =   8.2241781848229E-05
(PID.TID 0000.0001) %MON dynstat_uvel_max             =   9.6401779024227E-01
(PID.TID 0000.0001) %MON dynstat_uvel_min             =  -1.2992485281303E+00
(PID.TID 0000.0001) %MON dynstat_uvel_mean            =   9.5633068921140E-04
(PID.TID 0000.0001) %MON dynstat_uvel_sd              =   2.1001825969370E-02
(PID.TID 0000.0001) %MON dynstat_uvel_del2            =   1.3123649795429E-05
(PID.TID 0000.0001) %MON dynstat_vvel_max             =   1.3372443302234E+00
(PID.TID 0000.0001) %MON dynstat_vvel_min             =  -9.1682179137146E-01
(PID.TID 0000.0001) %MON dynstat_vvel_mean            =   1.6231286089288E-03
(PID.TID 0000.0001) %MON dynstat_vvel_sd              =   2.2423583927896E-02
(PID.TID 0000.0001) %MON dynstat_vvel_del2            =   1.2907532372206E-05
(PID.TID 0000.0001) %MON dynstat_wvel_max             =   3.8866758294324E-03
(PID.TID 0000.0001) %MON dynstat_wvel_min             =  -2.0543390278980E-03
(PID.TID 0000.0001) %MON dynstat_wvel_mean            =   3.7603906309294E-08
(PID.TID 0000.0001) %MON dynstat_wvel_sd              =   3.1498746729356E-05
(PID.TID 0000.0001) %MON dynstat_wvel_del2            =   5.0690257313962E-08
(PID.TID 0000.0001) %MON dynstat_theta_max            =   3.2622489010106E+01
(PID.TID 0000.0001) %MON dynstat_theta_min            =  -2.0422672225653E+00
(PID.TID 0000.0001) %MON dynstat_theta_mean           =   3.5905569572893E+00
(PID.TID 0000.0001) %MON dynstat_theta_sd             =   4.4363478857467E+00
(PID.TID 0000.0001) %MON dynstat_theta_del2           =   1.0427185954813E-04
(PID.TID 0000.0001) %MON dynstat_salt_max             =   4.0711529621498E+01
(PID.TID 0000.0001) %MON dynstat_salt_min             =   1.8877403251574E+01
(PID.TID 0000.0001) %MON dynstat_salt_mean            =   3.4725623361246E+01
(PID.TID 0000.0001) %MON dynstat_salt_sd              =   3.7710030832486E-01
(PID.TID 0000.0001) %MON dynstat_salt_del2            =   2.8006724689409E-05
(PID.TID 0000.0001) %MON dynstat_sst_max              =   3.2559990081371E+01
(PID.TID 0000.0001) %MON dynstat_sst_min              =  -1.8781343564817E+00
(PID.TID 0000.0001) %MON dynstat_sst_mean             =   1.8495769922683E+01
(PID.TID 0000.0001) %MON dynstat_sst_sd               =   1.0112018150219E+01
(PID.TID 0000.0001) %MON dynstat_sst_del2             =   8.5322737954153E-04
(PID.TID 0000.0001) %MON dynstat_sss_max              =   3.9354885341635E+01
(PID.TID 0000.0001) %MON dynstat_sss_min              =   1.8877403251574E+01
(PID.TID 0000.0001) %MON dynstat_sss_mean             =   3.4687631694435E+01
(PID.TID 0000.0001) %MON dynstat_sss_sd               =   1.1265260851633E+00
(PID.TID 0000.0001) %MON dynstat_sss_del2             =   5.8814095499407E-04
(PID.TID 0000.0001) %MON forcing_qnet_max             =   1.6788365895398E+03
(PID.TID 0000.0001) %MON forcing_qnet_min             =  -6.7169250562044E+02
(PID.TID 0000.0001) %MON forcing_qnet_mean            =  -9.5206877584839E+00
(PID.TID 0000.0001) %MON forcing_qnet_sd              =   1.8629477172416E+02
(PID.TID 0000.0001) %MON forcing_qnet_del2            =   3.6606467785115E-01
(PID.TID 0000.0001) %MON forcing_qsw_max              =   0.0000000000000E+00
(PID.TID 0000.0001) %MON forcing_qsw_min              =  -1.0806735107716E+02
(PID.TID 0000.0001) %MON forcing_qsw_mean             =  -2.0057372299804E+01
(PID.TID 0000.0001) %MON forcing_qsw_sd               =   2.9307580979964E+01
(PID.TID 0000.0001) %MON forcing_qsw_del2             =   1.9734992411739E-02
(PID.TID 0000.0001) %MON forcing_empmr_max            =   1.5817600069568E-03
(PID.TID 0000.0001) %MON forcing_empmr_min            =  -5.9083934873343E-02
(PID.TID 0000.0001) %MON forcing_empmr_mean           =   5.0661789564152E-07
(PID.TID 0000.0001) %MON forcing_empmr_sd             =   2.5308159999418E-04
(PID.TID 0000.0001) %MON forcing_empmr_del2           =   2.5476147201786E-06
(PID.TID 0000.0001) %MON forcing_fu_max               =   8.5545656085014E-01
(PID.TID 0000.0001) %MON forcing_fu_min               =  -8.9296072721481E-01
(PID.TID 0000.0001) %MON forcing_fu_mean              =   8.6975920620239E-03
(PID.TID 0000.0001) %MON forcing_fu_sd                =   9.6324584356493E-02
(PID.TID 0000.0001) %MON forcing_fu_del2              =   1.3545495428056E-04
(PID.TID 0000.0001) %MON forcing_fv_max               =   9.5735704898834E-01
(PID.TID 0000.0001) %MON forcing_fv_min               =  -1.0243780016899E+00
(PID.TID 0000.0001) %MON forcing_fv_mean              =  -9.1908753909998E-03
(PID.TID 0000.0001) %MON forcing_fv_sd                =   1.0387575677219E-01
(PID.TID 0000.0001) %MON forcing_fv_del2              =   1.3621594241202E-04
(PID.TID 0000.0001) %MON trAdv_CFL_u_max              =   2.3226521667085E-02
(PID.TID 0000.0001) %MON trAdv_CFL_v_max              =   2.4546511447960E-02
(PID.TID 0000.0001) %MON trAdv_CFL_w_max              =   1.2101186589710E-01
(PID.TID 0000.0001) %MON advcfl_uvel_max              =   2.2709466588227E-02
(PID.TID 0000.0001) %MON advcfl_vvel_max              =   2.3737295957356E-02
(PID.TID 0000.0001) %MON advcfl_wvel_max              =   1.2600851553087E-01
(PID.TID 0000.0001) %MON advcfl_W_hf_max              =   1.3290226257020E-01
(PID.TID 0000.0001) %MON pe_b_mean                    =   6.2403040236478E-04
(PID.TID 0000.0001) %MON ke_max                       =   1.0500616575022E+00
(PID.TID 0000.0001) %MON ke_mean                      =   4.5685212865678E-04
(PID.TID 0000.0001) %MON ke_vol                       =   1.3349967866810E+18
(PID.TID 0000.0001) %MON vort_r_min                   =  -3.7897644621369E-05
(PID.TID 0000.0001) %MON vort_r_max                   =   4.0297660202408E-05
(PID.TID 0000.0001) %MON vort_a_mean                  =  -1.9727864647440E-05
(PID.TID 0000.0001) %MON vort_a_sd                    =   7.4543230295438E-05
(PID.TID 0000.0001) %MON vort_p_mean                  =  -2.1760547025718E-05
(PID.TID 0000.0001) %MON vort_p_sd                    =   9.7245287899601E-05
(PID.TID 0000.0001) %MON surfExpan_theta_mean         =  -1.6208095655230E-06
(PID.TID 0000.0001) %MON surfExpan_salt_mean          =  -9.2430562282421E-08
(PID.TID 0000.0001) // =======================================================
(PID.TID 0000.0001) // End MONITOR dynamic field statistics
(PID.TID 0000.0001) // =======================================================
(PID.TID 0000.0001) // =======================================================
(PID.TID 0000.0001) // Begin MONITOR SEAICE statistics
(PID.TID 0000.0001) // =======================================================
(PID.TID 0000.0001) %MON seaice_tsnumber              =                    88
(PID.TID 0000.0001) %MON seaice_time_sec              =   7.9200000000000E+04
(PID.TID 0000.0001) %MON seaice_uice_max              =   6.2777696935455E-01
(PID.TID 0000.0001) %MON seaice_uice_min              =  -9.5141886720884E-01
(PID.TID 0000.0001) %MON seaice_uice_mean             =   7.3972132789907E-04
(PID.TID 0000.0001) %MON seaice_uice_sd               =   1.3558605804997E-01
(PID.TID 0000.0001) %MON seaice_uice_del2             =   1.9040399972035E-04
(PID.TID 0000.0001) %MON seaice_vice_max              =   1.3209093597173E+00
(PID.TID 0000.0001) %MON seaice_vice_min              =  -9.1738450143885E-01
(PID.TID 0000.0001) %MON seaice_vice_mean             =  -2.3530653152165E-02
(PID.TID 0000.0001) %MON seaice_vice_sd               =   1.2821114020905E-01
(PID.TID 0000.0001) %MON seaice_vice_del2             =   1.5942532378250E-04
(PID.TID 0000.0001) %MON seaice_area_max              =   1.0000000000000E+00
(PID.TID 0000.0001) %MON seaice_area_min              =   0.0000000000000E+00
(PID.TID 0000.0001) %MON seaice_area_mean             =   7.1065711633416E-02
(PID.TID 0000.0001) %MON seaice_area_sd               =   2.3667424165829E-01
(PID.TID 0000.0001) %MON seaice_area_del2             =   3.6257001105161E-04
(PID.TID 0000.0001) %MON seaice_heff_max              =   2.5095426157635E+01
(PID.TID 0000.0001) %MON seaice_heff_min              =   0.0000000000000E+00
(PID.TID 0000.0001) %MON seaice_heff_mean             =   2.1710643554847E-01
(PID.TID 0000.0001) %MON seaice_heff_sd               =   1.0634198414140E+00
(PID.TID 0000.0001) %MON seaice_heff_del2             =   3.0233312138307E-03
(PID.TID 0000.0001) %MON seaice_hsnow_max             =   8.2885514541494E+00
(PID.TID 0000.0001) %MON seaice_hsnow_min             =   0.0000000000000E+00
(PID.TID 0000.0001) %MON seaice_hsnow_mean            =   2.4574130171565E-02
(PID.TID 0000.0001) %MON seaice_hsnow_sd              =   1.5234214358136E-01
(PID.TID 0000.0001) %MON seaice_hsnow_del2            =   9.6058376963614E-04
(PID.TID 0000.0001) // =======================================================
(PID.TID 0000.0001) // End MONITOR SEAICE statistics
(PID.TID 0000.0001) // =======================================================
 Computing Diagnostic #     86  oceQnet      Counter:       4   Parms: SM      U1      
 Computing Diagnostic #     87  oceQsw       Counter:       4   Parms: SM      U1      
 Computing Diagnostic #     84  oceFWflx     Counter:       4   Parms: SM      U1      
 Computing Diagnostic #     85  oceSflux     Counter:       4   Parms: SM      U1      
 Computing Diagnostic #     80  oceTAUX      Counter:       4   Parms: UU      U1      
           Vector  Mate for  oceTAUX      Diagnostic #     81  oceTAUY  exists 
 Computing Diagnostic #     81  oceTAUY      Counter:       4   Parms: VV      U1      
           Vector  Mate for  oceTAUY      Diagnostic #     80  oceTAUX  exists 
 Computing Diagnostic #     26  THETA        Counter:       4   Parms: SMR     MR      
 Computing Diagnostic #     27  SALT         Counter:       4   Parms: SMR     MR      
 Computing Diagnostic #     30  UVEL         Counter:       4   Parms: UUR     MR      
           Vector  Mate for  UVEL         Diagnostic #     31  VVEL     exists 
 Computing Diagnostic #     31  VVEL         Counter:       4   Parms: VVR     MR      
           Vector  Mate for  VVEL         Diagnostic #     30  UVEL     exists 
 Computing Diagnostic #    214  SIarea       Counter:       4   Parms: SM      M1      
 Computing Diagnostic #    217  SIheff       Counter:       4   Parms: SM      M1      
 Computing Diagnostic #    219  SIhsnow      Counter:       4   Parms: SM      M1      
 Computing Diagnostic #     83  sIceLoad     Counter:       4   Parms: SM      U1      
 Computing Diagnostic #    223  SIuice       Counter:       4   Parms: UU      M1      
           Vector  Mate for  SIuice       Diagnostic #    224  SIvice   exists 
 Computing Diagnostic #    224  SIvice       Counter:       4   Parms: VV      M1      
           Vector  Mate for  SIvice       Diagnostic #    223  SIuice   exists 
 Computing Diagnostic #    225  SItaux       Counter:       4   Parms: UU      U1      
           Vector  Mate for  SItaux       Diagnostic #    226  SItauy   exists 
 Computing Diagnostic #    226  SItauy       Counter:       4   Parms: VV      U1      
           Vector  Mate for  SItauy       Diagnostic #    225  SItaux   exists 
 Computing Diagnostic #    285  SIareaN      Counter:       4   Parms: SM      MX      
 Computing Diagnostic #    284  SIheffN      Counter:       4   Parms: SM      MX      
 Computing Diagnostic #    286  SIhsnowN     Counter:       4   Parms: SM      MX      
 Compute Stats, Diag. #    214  SIarea    vol(   0 ): 3.580E+14  Parms: SM      M1      
 Compute Stats, Diag. #    217  SIheff    vol(   0 ): 3.580E+14  Parms: SM      M1      
 Compute Stats, Diag. #    219  SIhsnow   vol(   0 ): 3.580E+14  Parms: SM      M1      
 Compute Stats, Diag. #     83  sIceLoad  vol(   0 ): 3.580E+14  Parms: SM      U1      
 Compute Stats, Diag. #    223  SIuice    vol(   0 ): 3.513E+14  Parms: UU      M1      
 Compute Stats, Diag. #    224  SIvice    vol(   0 ): 3.508E+14  Parms: VV      M1      
 Compute Stats, Diag. #    225  SItaux    vol(   0 ): 3.513E+14  Parms: UU      U1      
 Compute Stats, Diag. #    226  SItauy    vol(   0 ): 3.508E+14  Parms: VV      U1      
 SEAICE_LSR: Residual Initial ipass,Uice,Vice=    1  1.07691390E-02  1.06435385E-02
 SEAICE_LSR (ipass=   1) iters,dU,Resid=  1500  2.32591616E-08  1.38167049E-06
 SEAICE_LSR (ipass=   1) iters,dV,Resid=  1500  9.66313571E-10  1.88600326E-07
 SEAICE_LSR: Residual Initial ipass,Uice,Vice=    2  9.76790364E-03  1.03647069E-02
 SEAICE_LSR (ipass=   2) iters,dU,Resid=  1500  1.20480950E-08  9.77633143E-07
 SEAICE_LSR (ipass=   2) iters,dV,Resid=  1500  7.00711759E-10  1.35830948E-07
 cg2d: Sum(rhs),rhsMax =   9.62853806822649E+01  3.02405862875191E-01
 Compute Stats, Diag. #    214  SIarea    vol(   0 ): 3.580E+14  Parms: SM      M1      
 Compute Stats, Diag. #    217  SIheff    vol(   0 ): 3.580E+14  Parms: SM      M1      
 Compute Stats, Diag. #    219  SIhsnow   vol(   0 ): 3.580E+14  Parms: SM      M1      
 Compute Stats, Diag. #     83  sIceLoad  vol(   0 ): 3.580E+14  Parms: SM      U1      
 Compute Stats, Diag. #    223  SIuice    vol(   0 ): 3.513E+14  Parms: UU      M1      
 Compute Stats, Diag. #    224  SIvice    vol(   0 ): 3.508E+14  Parms: VV      M1      
 Compute Stats, Diag. #    225  SItaux    vol(   0 ): 3.513E+14  Parms: UU      U1      
 Compute Stats, Diag. #    226  SItauy    vol(   0 ): 3.508E+14  Parms: VV      U1      
 cg2d: Sum(rhs),rhsMax =   9.62919966227256E+01  3.01979887352219E-01
 Compute Stats, Diag. #    214  SIarea    vol(   0 ): 3.580E+14  Parms: SM      M1      
 Compute Stats, Diag. #    217  SIheff    vol(   0 ): 3.580E+14  Parms: SM      M1      
 Compute Stats, Diag. #    219  SIhsnow   vol(   0 ): 3.580E+14  Parms: SM      M1      
 Compute Stats, Diag. #     83  sIceLoad  vol(   0 ): 3.580E+14  Parms: SM      U1      
 Compute Stats, Diag. #    223  SIuice    vol(   0 ): 3.513E+14  Parms: UU      M1      
 Compute Stats, Diag. #    224  SIvice    vol(   0 ): 3.508E+14  Parms: VV      M1      
 Compute Stats, Diag. #    225  SItaux    vol(   0 ): 3.513E+14  Parms: UU      U1      
 Compute Stats, Diag. #    226  SItauy    vol(   0 ): 3.508E+14  Parms: VV      U1      
 cg2d: Sum(rhs),rhsMax =   9.62962050250935E+01  3.01492968016341E-01
 Compute Stats, Diag. #    214  SIarea    vol(   0 ): 3.580E+14  Parms: SM      M1      
 Compute Stats, Diag. #    217  SIheff    vol(   0 ): 3.580E+14  Parms: SM      M1      
 Compute Stats, Diag. #    219  SIhsnow   vol(   0 ): 3.580E+14  Parms: SM      M1      
 Compute Stats, Diag. #     83  sIceLoad  vol(   0 ): 3.580E+14  Parms: SM      U1      
 Compute Stats, Diag. #    223  SIuice    vol(   0 ): 3.513E+14  Parms: UU      M1      
 Compute Stats, Diag. #    224  SIvice    vol(   0 ): 3.508E+14  Parms: VV      M1      
 Compute Stats, Diag. #    225  SItaux    vol(   0 ): 3.513E+14  Parms: UU      U1      
 Compute Stats, Diag. #    226  SItauy    vol(   0 ): 3.508E+14  Parms: VV      U1      
 cg2d: Sum(rhs),rhsMax =   9.62998034130244E+01  3.00948924119727E-01
 Computing Diagnostic #     86  oceQnet      Counter:       4   Parms: SM      U1      
 Computing Diagnostic #     87  oceQsw       Counter:       4   Parms: SM      U1      
 Computing Diagnostic #     84  oceFWflx     Counter:       4   Parms: SM      U1      
 Computing Diagnostic #     85  oceSflux     Counter:       4   Parms: SM      U1      
 Computing Diagnostic #     80  oceTAUX      Counter:       4   Parms: UU      U1      
           Vector  Mate for  oceTAUX      Diagnostic #     81  oceTAUY  exists 
 Computing Diagnostic #     81  oceTAUY      Counter:       4   Parms: VV      U1      
           Vector  Mate for  oceTAUY      Diagnostic #     80  oceTAUX  exists 
 Computing Diagnostic #     26  THETA        Counter:       4   Parms: SMR     MR      
 Computing Diagnostic #     27  SALT         Counter:       4   Parms: SMR     MR      
 Computing Diagnostic #     30  UVEL         Counter:       4   Parms: UUR     MR      
           Vector  Mate for  UVEL         Diagnostic #     31  VVEL     exists 
 Computing Diagnostic #     31  VVEL         Counter:       4   Parms: VVR     MR      
           Vector  Mate for  VVEL         Diagnostic #     30  UVEL     exists 
 Computing Diagnostic #    214  SIarea       Counter:       4   Parms: SM      M1      
 Computing Diagnostic #    217  SIheff       Counter:       4   Parms: SM      M1      
 Computing Diagnostic #    219  SIhsnow      Counter:       4   Parms: SM      M1      
 Computing Diagnostic #     83  sIceLoad     Counter:       4   Parms: SM      U1      
 Computing Diagnostic #    223  SIuice       Counter:       4   Parms: UU      M1      
           Vector  Mate for  SIuice       Diagnostic #    224  SIvice   exists 
 Computing Diagnostic #    224  SIvice       Counter:       4   Parms: VV      M1      
           Vector  Mate for  SIvice       Diagnostic #    223  SIuice   exists 
 Computing Diagnostic #    225  SItaux       Counter:       4   Parms: UU      U1      
           Vector  Mate for  SItaux       Diagnostic #    226  SItauy   exists 
 Computing Diagnostic #    226  SItauy       Counter:       4   Parms: VV      U1      
           Vector  Mate for  SItauy       Diagnostic #    225  SItaux   exists 
 Computing Diagnostic #    285  SIareaN      Counter:       4   Parms: SM      MX      
 Computing Diagnostic #    284  SIheffN      Counter:       4   Parms: SM      MX      
 Computing Diagnostic #    286  SIhsnowN     Counter:       4   Parms: SM      MX      
 Compute Stats, Diag. #    214  SIarea    vol(   0 ): 3.580E+14  Parms: SM      M1      
 Compute Stats, Diag. #    217  SIheff    vol(   0 ): 3.580E+14  Parms: SM      M1      
 Compute Stats, Diag. #    219  SIhsnow   vol(   0 ): 3.580E+14  Parms: SM      M1      
 Compute Stats, Diag. #     83  sIceLoad  vol(   0 ): 3.580E+14  Parms: SM      U1      
 Compute Stats, Diag. #    223  SIuice    vol(   0 ): 3.513E+14  Parms: UU      M1      
 Compute Stats, Diag. #    224  SIvice    vol(   0 ): 3.508E+14  Parms: VV      M1      
 Compute Stats, Diag. #    225  SItaux    vol(   0 ): 3.513E+14  Parms: UU      U1      
 Compute Stats, Diag. #    226  SItauy    vol(   0 ): 3.508E+14  Parms: VV      U1      
 cg2d: Sum(rhs),rhsMax =   9.63018440112770E+01  3.00352540498518E-01
 Compute Stats, Diag. #    214  SIarea    vol(   0 ): 3.580E+14  Parms: SM      M1      
 Compute Stats, Diag. #    217  SIheff    vol(   0 ): 3.580E+14  Parms: SM      M1      
 Compute Stats, Diag. #    219  SIhsnow   vol(   0 ): 3.580E+14  Parms: SM      M1      
 Compute Stats, Diag. #     83  sIceLoad  vol(   0 ): 3.580E+14  Parms: SM      U1      
 Compute Stats, Diag. #    223  SIuice    vol(   0 ): 3.513E+14  Parms: UU      M1      
 Compute Stats, Diag. #    224  SIvice    vol(   0 ): 3.508E+14  Parms: VV      M1      
 Compute Stats, Diag. #    225  SItaux    vol(   0 ): 3.513E+14  Parms: UU      U1      
 Compute Stats, Diag. #    226  SItauy    vol(   0 ): 3.508E+14  Parms: VV      U1      
 cg2d: Sum(rhs),rhsMax =   9.63060349757262E+01  2.99710089609443E-01
 Compute Stats, Diag. #    214  SIarea    vol(   0 ): 3.580E+14  Parms: SM      M1      
 Compute Stats, Diag. #    217  SIheff    vol(   0 ): 3.580E+14  Parms: SM      M1      
 Compute Stats, Diag. #    219  SIhsnow   vol(   0 ): 3.580E+14  Parms: SM      M1      
 Compute Stats, Diag. #     83  sIceLoad  vol(   0 ): 3.580E+14  Parms: SM      U1      
 Compute Stats, Diag. #    223  SIuice    vol(   0 ): 3.513E+14  Parms: UU      M1      
 Compute Stats, Diag. #    224  SIvice    vol(   0 ): 3.508E+14  Parms: VV      M1      
 Compute Stats, Diag. #    225  SItaux    vol(   0 ): 3.513E+14  Parms: UU      U1      
 Compute Stats, Diag. #    226  SItauy    vol(   0 ): 3.508E+14  Parms: VV      U1      
 cg2d: Sum(rhs),rhsMax =   9.63096302869426E+01  2.99028015895002E-01
 Compute Stats, Diag. #    214  SIarea    vol(   0 ): 3.580E+14  Parms: SM      M1      
 Compute Stats, Diag. #    217  SIheff    vol(   0 ): 3.580E+14  Parms: SM      M1      
 Compute Stats, Diag. #    219  SIhsnow   vol(   0 ): 3.580E+14  Parms: SM      M1      
 Compute Stats, Diag. #     83  sIceLoad  vol(   0 ): 3.580E+14  Parms: SM      U1      
 Compute Stats, Diag. #    223  SIuice    vol(   0 ): 3.513E+14  Parms: UU      M1      
 Compute Stats, Diag. #    224  SIvice    vol(   0 ): 3.508E+14  Parms: VV      M1      
 Compute Stats, Diag. #    225  SItaux    vol(   0 ): 3.513E+14  Parms: UU      U1      
 Compute Stats, Diag. #    226  SItauy    vol(   0 ): 3.508E+14  Parms: VV      U1      
 cg2d: Sum(rhs),rhsMax =   9.63072176048983E+01  2.98314560974764E-01
(PID.TID 0000.0001)      cg2d_init_res =   2.76990897188673E-01
(PID.TID 0000.0001)      cg2d_iters(min,last) =      -1      32
(PID.TID 0000.0001)      cg2d_last_res =   2.20843554023793E-05
(PID.TID 0000.0001) // =======================================================
(PID.TID 0000.0001) // Begin MONITOR dynamic field statistics
(PID.TID 0000.0001) // =======================================================
(PID.TID 0000.0001) %MON time_tsnumber                =                    96
(PID.TID 0000.0001) %MON time_secondsf                =   8.6400000000000E+04
(PID.TID 0000.0001) %MON dynstat_eta_max              =   1.0826701619311E+00
(PID.TID 0000.0001) %MON dynstat_eta_min              =  -2.8477035773499E+00
(PID.TID 0000.0001) %MON dynstat_eta_mean             =  -3.0465048776874E-03
(PID.TID 0000.0001) %MON dynstat_eta_sd               =   6.8554193475122E-01
(PID.TID 0000.0001) %MON dynstat_eta_del2             =   8.0398070051019E-05
(PID.TID 0000.0001) %MON dynstat_uvel_max             =   9.6884363800649E-01
(PID.TID 0000.0001) %MON dynstat_uvel_min             =  -1.2754267364111E+00
(PID.TID 0000.0001) %MON dynstat_uvel_mean            =   8.5746136417505E-04
(PID.TID 0000.0001) %MON dynstat_uvel_sd              =   2.0855908183282E-02
(PID.TID 0000.0001) %MON dynstat_uvel_del2            =   1.3004968214949E-05
(PID.TID 0000.0001) %MON dynstat_vvel_max             =   1.3412887644921E+00
(PID.TID 0000.0001) %MON dynstat_vvel_min             =  -9.1138426420083E-01
(PID.TID 0000.0001) %MON dynstat_vvel_mean            =   1.5095726071839E-03
(PID.TID 0000.0001) %MON dynstat_vvel_sd              =   2.2194313454114E-02
(PID.TID 0000.0001) %MON dynstat_vvel_del2            =   1.2646118988557E-05
(PID.TID 0000.0001) %MON dynstat_wvel_max             =   4.0862988290029E-03
(PID.TID 0000.0001) %MON dynstat_wvel_min             =  -1.9513982777876E-03
(PID.TID 0000.0001) %MON dynstat_wvel_mean            =   3.5402993654391E-08
(PID.TID 0000.0001) %MON dynstat_wvel_sd              =   3.0790035067029E-05
(PID.TID 0000.0001) %MON dynstat_wvel_del2            =   4.9392495450069E-08
(PID.TID 0000.0001) %MON dynstat_theta_max            =   3.2615833799336E+01
(PID.TID 0000.0001) %MON dynstat_theta_min            =  -2.0422529013443E+00
(PID.TID 0000.0001) %MON dynstat_theta_mean           =   3.5905639487448E+00
(PID.TID 0000.0001) %MON dynstat_theta_sd             =   4.4363794405462E+00
(PID.TID 0000.0001) %MON dynstat_theta_del2           =   1.0382786794025E-04
(PID.TID 0000.0001) %MON dynstat_salt_max             =   4.0711530677542E+01
(PID.TID 0000.0001) %MON dynstat_salt_min             =   1.8879498626621E+01
(PID.TID 0000.0001) %MON dynstat_salt_mean            =   3.4725619814788E+01
(PID.TID 0000.0001) %MON dynstat_salt_sd              =   3.7708527055154E-01
(PID.TID 0000.0001) %MON dynstat_salt_del2            =   2.7950206861691E-05
(PID.TID 0000.0001) %MON dynstat_sst_max              =   3.2548092798113E+01
(PID.TID 0000.0001) %MON dynstat_sst_min              =  -1.8738554992839E+00
(PID.TID 0000.0001) %MON dynstat_sst_mean             =   1.8498271673148E+01
(PID.TID 0000.0001) %MON dynstat_sst_sd               =   1.0114639394337E+01
(PID.TID 0000.0001) %MON dynstat_sst_del2             =   8.5044570117698E-04
(PID.TID 0000.0001) %MON dynstat_sss_max              =   3.9335566572797E+01
(PID.TID 0000.0001) %MON dynstat_sss_min              =   1.8879498626621E+01
(PID.TID 0000.0001) %MON dynstat_sss_mean             =   3.4688180245904E+01
(PID.TID 0000.0001) %MON dynstat_sss_sd               =   1.1272372129645E+00
(PID.TID 0000.0001) %MON dynstat_sss_del2             =   5.9264710635789E-04
(PID.TID 0000.0001) %MON forcing_qnet_max             =   1.3612094726562E+03
(PID.TID 0000.0001) %MON forcing_qnet_min             =  -8.3249957275391E+02
(PID.TID 0000.0001) %MON forcing_qnet_mean            =  -1.9816642258974E+01
(PID.TID 0000.0001) %MON forcing_qnet_sd              =   1.9697127914735E+02
(PID.TID 0000.0001) %MON forcing_qnet_del2            =   3.3848674345639E-01
(PID.TID 0000.0001) %MON forcing_qsw_max              =   0.0000000000000E+00
(PID.TID 0000.0001) %MON forcing_qsw_min              =  -1.0846684761020E+02
(PID.TID 0000.0001) %MON forcing_qsw_mean             =  -2.1802370718113E+01
(PID.TID 0000.0001) %MON forcing_qsw_sd               =   3.0484097618502E+01
(PID.TID 0000.0001) %MON forcing_qsw_del2             =   1.9169068473475E-02
(PID.TID 0000.0001) %MON forcing_empmr_max            =   3.1045193318278E-03
(PID.TID 0000.0001) %MON forcing_empmr_min            =  -6.0826752334833E-02
(PID.TID 0000.0001) %MON forcing_empmr_mean           =  -8.7260158789595E-08
(PID.TID 0000.0001) %MON forcing_empmr_sd             =   2.5364386062800E-04
(PID.TID 0000.0001) %MON forcing_empmr_del2           =   2.5854917408719E-06
(PID.TID 0000.0001) %MON forcing_fu_max               =   8.3193299174309E-01
(PID.TID 0000.0001) %MON forcing_fu_min               =  -9.8002451658249E-01
(PID.TID 0000.0001) %MON forcing_fu_mean              =   8.2576359199036E-03
(PID.TID 0000.0001) %MON forcing_fu_sd                =   9.5666890914443E-02
(PID.TID 0000.0001) %MON forcing_fu_del2              =   1.3630814010380E-04
(PID.TID 0000.0001) %MON forcing_fv_max               =   1.0372837185860E+00
(PID.TID 0000.0001) %MON forcing_fv_min               =  -1.1031458377838E+00
(PID.TID 0000.0001) %MON forcing_fv_mean              =  -9.1319569347812E-03
(PID.TID 0000.0001) %MON forcing_fv_sd                =   1.0426019513740E-01
(PID.TID 0000.0001) %MON forcing_fv_del2              =   1.3817113966636E-04
(PID.TID 0000.0001) %MON trAdv_CFL_u_max              =   2.3132018340698E-02
(PID.TID 0000.0001) %MON trAdv_CFL_v_max              =   2.4477725895892E-02
(PID.TID 0000.0001) %MON trAdv_CFL_w_max              =   1.2587747000793E-01
(PID.TID 0000.0001) %MON advcfl_uvel_max              =   2.2823149582121E-02
(PID.TID 0000.0001) %MON advcfl_vvel_max              =   2.3809088322482E-02
(PID.TID 0000.0001) %MON advcfl_wvel_max              =   1.3108080190448E-01
(PID.TID 0000.0001) %MON advcfl_W_hf_max              =   1.3833113647454E-01
(PID.TID 0000.0001) %MON pe_b_mean                    =   6.1820891162818E-04
(PID.TID 0000.0001) %MON ke_max                       =   1.0458385744339E+00
(PID.TID 0000.0001) %MON ke_mean                      =   4.4871617116824E-04
(PID.TID 0000.0001) %MON ke_vol                       =   1.3349967862210E+18
(PID.TID 0000.0001) %MON vort_r_min                   =  -3.6726527993495E-05
(PID.TID 0000.0001) %MON vort_r_max                   =   3.9337283017946E-05
(PID.TID 0000.0001) %MON vort_a_mean                  =  -1.9727864647440E-05
(PID.TID 0000.0001) %MON vort_a_sd                    =   7.4543178132332E-05
(PID.TID 0000.0001) %MON vort_p_mean                  =  -2.1760546766212E-05
(PID.TID 0000.0001) %MON vort_p_sd                    =   9.7245525157494E-05
(PID.TID 0000.0001) %MON surfExpan_theta_mean         =  -1.4971547155036E-06
(PID.TID 0000.0001) %MON surfExpan_salt_mean          =  -9.6426589265281E-08
(PID.TID 0000.0001) // =======================================================
(PID.TID 0000.0001) // End MONITOR dynamic field statistics
(PID.TID 0000.0001) // =======================================================
(PID.TID 0000.0001) // =======================================================
(PID.TID 0000.0001) // Begin MONITOR SEAICE statistics
(PID.TID 0000.0001) // =======================================================
(PID.TID 0000.0001) %MON seaice_tsnumber              =                    96
(PID.TID 0000.0001) %MON seaice_time_sec              =   8.6400000000000E+04
(PID.TID 0000.0001) %MON seaice_uice_max              =   6.5398461566880E-01
(PID.TID 0000.0001) %MON seaice_uice_min              =  -9.1863586145023E-01
(PID.TID 0000.0001) %MON seaice_uice_mean             =   3.4208606497587E-04
(PID.TID 0000.0001) %MON seaice_uice_sd               =   1.3476951151952E-01
(PID.TID 0000.0001) %MON seaice_uice_del2             =   1.8920990437574E-04
(PID.TID 0000.0001) %MON seaice_vice_max              =   1.3355971282661E+00
(PID.TID 0000.0001) %MON seaice_vice_min              =  -9.1214369967055E-01
(PID.TID 0000.0001) %MON seaice_vice_mean             =  -2.5470434359463E-02
(PID.TID 0000.0001) %MON seaice_vice_sd               =   1.2734328489577E-01
(PID.TID 0000.0001) %MON seaice_vice_del2             =   1.5713833930662E-04
(PID.TID 0000.0001) %MON seaice_area_max              =   1.0000000000000E+00
(PID.TID 0000.0001) %MON seaice_area_min              =   0.0000000000000E+00
(PID.TID 0000.0001) %MON seaice_area_mean             =   7.0994369594877E-02
(PID.TID 0000.0001) %MON seaice_area_sd               =   2.3656462925251E-01
(PID.TID 0000.0001) %MON seaice_area_del2             =   3.5743689233689E-04
(PID.TID 0000.0001) %MON seaice_heff_max              =   2.5091865569302E+01
(PID.TID 0000.0001) %MON seaice_heff_min              =   0.0000000000000E+00
(PID.TID 0000.0001) %MON seaice_heff_mean             =   2.1708827671074E-01
(PID.TID 0000.0001) %MON seaice_heff_sd               =   1.0632279521612E+00
(PID.TID 0000.0001) %MON seaice_heff_del2             =   2.9883672026188E-03
(PID.TID 0000.0001) %MON seaice_hsnow_max             =   8.2873816566199E+00
(PID.TID 0000.0001) %MON seaice_hsnow_min             =   0.0000000000000E+00
(PID.TID 0000.0001) %MON seaice_hsnow_mean            =   2.4564504257079E-02
(PID.TID 0000.0001) %MON seaice_hsnow_sd              =   1.5210047881302E-01
(PID.TID 0000.0001) %MON seaice_hsnow_del2            =   9.4896031404458E-04
(PID.TID 0000.0001) // =======================================================
(PID.TID 0000.0001) // End MONITOR SEAICE statistics
(PID.TID 0000.0001) // =======================================================
 Computing Diagnostic #     86  oceQnet      Counter:       4   Parms: SM      U1      
 Computing Diagnostic #     87  oceQsw       Counter:       4   Parms: SM      U1      
 Computing Diagnostic #     84  oceFWflx     Counter:       4   Parms: SM      U1      
 Computing Diagnostic #     85  oceSflux     Counter:       4   Parms: SM      U1      
 Computing Diagnostic #     80  oceTAUX      Counter:       4   Parms: UU      U1      
           Vector  Mate for  oceTAUX      Diagnostic #     81  oceTAUY  exists 
 Computing Diagnostic #     81  oceTAUY      Counter:       4   Parms: VV      U1      
           Vector  Mate for  oceTAUY      Diagnostic #     80  oceTAUX  exists 
 Computing Diagnostic #     26  THETA        Counter:       4   Parms: SMR     MR      
 Computing Diagnostic #     27  SALT         Counter:       4   Parms: SMR     MR      
 Computing Diagnostic #     30  UVEL         Counter:       4   Parms: UUR     MR      
           Vector  Mate for  UVEL         Diagnostic #     31  VVEL     exists 
 Computing Diagnostic #     31  VVEL         Counter:       4   Parms: VVR     MR      
           Vector  Mate for  VVEL         Diagnostic #     30  UVEL     exists 
 Computing Diagnostic #    214  SIarea       Counter:       4   Parms: SM      M1      
 Computing Diagnostic #    217  SIheff       Counter:       4   Parms: SM      M1      
 Computing Diagnostic #    219  SIhsnow      Counter:       4   Parms: SM      M1      
 Computing Diagnostic #     83  sIceLoad     Counter:       4   Parms: SM      U1      
 Computing Diagnostic #    223  SIuice       Counter:       4   Parms: UU      M1      
           Vector  Mate for  SIuice       Diagnostic #    224  SIvice   exists 
 Computing Diagnostic #    224  SIvice       Counter:       4   Parms: VV      M1      
           Vector  Mate for  SIvice       Diagnostic #    223  SIuice   exists 
 Computing Diagnostic #    225  SItaux       Counter:       4   Parms: UU      U1      
           Vector  Mate for  SItaux       Diagnostic #    226  SItauy   exists 
 Computing Diagnostic #    226  SItauy       Counter:       4   Parms: VV      U1      
           Vector  Mate for  SItauy       Diagnostic #    225  SItaux   exists 
 Computing Diagnostic #    285  SIareaN      Counter:       4   Parms: SM      MX      
 Computing Diagnostic #    284  SIheffN      Counter:       4   Parms: SM      MX      
 Computing Diagnostic #    286  SIhsnowN     Counter:       4   Parms: SM      MX      
 Compute Stats, Diag. #    214  SIarea    vol(   0 ): 3.580E+14  Parms: SM      M1      
 Compute Stats, Diag. #    217  SIheff    vol(   0 ): 3.580E+14  Parms: SM      M1      
 Compute Stats, Diag. #    219  SIhsnow   vol(   0 ): 3.580E+14  Parms: SM      M1      
 Compute Stats, Diag. #     83  sIceLoad  vol(   0 ): 3.580E+14  Parms: SM      U1      
 Compute Stats, Diag. #    223  SIuice    vol(   0 ): 3.513E+14  Parms: UU      M1      
 Compute Stats, Diag. #    224  SIvice    vol(   0 ): 3.508E+14  Parms: VV      M1      
 Compute Stats, Diag. #    225  SItaux    vol(   0 ): 3.513E+14  Parms: UU      U1      
 Compute Stats, Diag. #    226  SItauy    vol(   0 ): 3.508E+14  Parms: VV      U1      
(PID.TID 0000.0001) %CHECKPOINT        96 0000000096
 SEAICE_LSR: Residual Initial ipass,Uice,Vice=    1  8.88236720E-03  8.73860658E-03
 SEAICE_LSR (ipass=   1) iters,dU,Resid=  1500  5.27254131E-09  3.58864065E-07
 SEAICE_LSR (ipass=   1) iters,dV,Resid=  1500  9.64238939E-10  1.89325921E-07
 SEAICE_LSR: Residual Initial ipass,Uice,Vice=    2  8.04695202E-03  8.43272305E-03
 SEAICE_LSR (ipass=   2) iters,dU,Resid=  1500  2.30858104E-09  2.39938452E-07
 SEAICE_LSR (ipass=   2) iters,dV,Resid=  1500  6.24759473E-10  1.23287046E-07
 cg2d: Sum(rhs),rhsMax =   9.63013638784459E+01  2.97578509798898E-01
 Computing Diagnostic #     86  oceQnet      Counter:       1   Parms: SM      U1      
 Computing Diagnostic #     87  oceQsw       Counter:       1   Parms: SM      U1      
 Computing Diagnostic #     84  oceFWflx     Counter:       1   Parms: SM      U1      
 Computing Diagnostic #     85  oceSflux     Counter:       1   Parms: SM      U1      
 Computing Diagnostic #     80  oceTAUX      Counter:       1   Parms: UU      U1      
           Vector  Mate for  oceTAUX      Diagnostic #     81  oceTAUY  exists 
 Computing Diagnostic #     81  oceTAUY      Counter:       1   Parms: VV      U1      
           Vector  Mate for  oceTAUY      Diagnostic #     80  oceTAUX  exists 
 Computing Diagnostic #     26  THETA        Counter:       1   Parms: SMR     MR      
 Computing Diagnostic #     27  SALT         Counter:       1   Parms: SMR     MR      
 Computing Diagnostic #     30  UVEL         Counter:       1   Parms: UUR     MR      
           Vector  Mate for  UVEL         Diagnostic #     31  VVEL     exists 
 Computing Diagnostic #     31  VVEL         Counter:       1   Parms: VVR     MR      
           Vector  Mate for  VVEL         Diagnostic #     30  UVEL     exists 
 Computing Diagnostic #    214  SIarea       Counter:       1   Parms: SM      M1      
 Computing Diagnostic #    217  SIheff       Counter:       1   Parms: SM      M1      
 Computing Diagnostic #    219  SIhsnow      Counter:       1   Parms: SM      M1      
 Computing Diagnostic #     83  sIceLoad     Counter:       1   Parms: SM      U1      
 Computing Diagnostic #    223  SIuice       Counter:       1   Parms: UU      M1      
           Vector  Mate for  SIuice       Diagnostic #    224  SIvice   exists 
 Computing Diagnostic #    224  SIvice       Counter:       1   Parms: VV      M1      
           Vector  Mate for  SIvice       Diagnostic #    223  SIuice   exists 
 Computing Diagnostic #    225  SItaux       Counter:       1   Parms: UU      U1      
           Vector  Mate for  SItaux       Diagnostic #    226  SItauy   exists 
 Computing Diagnostic #    226  SItauy       Counter:       1   Parms: VV      U1      
           Vector  Mate for  SItauy       Diagnostic #    225  SItaux   exists 
 Computing Diagnostic #    285  SIareaN      Counter:       1   Parms: SM      MX      
 Computing Diagnostic #    284  SIheffN      Counter:       1   Parms: SM      MX      
 Computing Diagnostic #    286  SIhsnowN     Counter:       1   Parms: SM      MX      
 Compute Stats, Diag. #    214  SIarea    vol(   0 ): 3.580E+14  Parms: SM      M1      
 Compute Stats, Diag. #    217  SIheff    vol(   0 ): 3.580E+14  Parms: SM      M1      
 Compute Stats, Diag. #    219  SIhsnow   vol(   0 ): 3.580E+14  Parms: SM      M1      
 Compute Stats, Diag. #     83  sIceLoad  vol(   0 ): 3.580E+14  Parms: SM      U1      
 Compute Stats, Diag. #    223  SIuice    vol(   0 ): 3.513E+14  Parms: UU      M1      
 Compute Stats, Diag. #    224  SIvice    vol(   0 ): 3.508E+14  Parms: VV      M1      
 Compute Stats, Diag. #    225  SItaux    vol(   0 ): 3.513E+14  Parms: UU      U1      
 Compute Stats, Diag. #    226  SItauy    vol(   0 ): 3.508E+14  Parms: VV      U1      
(PID.TID 0000.0001) DIAGSTATS_CLOSE_IO: close file: iceStDiag.0000000001.txt , unit=    37
(PID.TID 0000.0001) %CHECKPOINT        97 ckptA
