(PID.TID 0000.0001) 
(PID.TID 0000.0001) // ======================================================
(PID.TID 0000.0001) //                      MITgcm UV
(PID.TID 0000.0001) //                      =========
(PID.TID 0000.0001) // ======================================================
(PID.TID 0000.0001) // execution environment starting up...
(PID.TID 0000.0001) 
(PID.TID 0000.0001) // MITgcmUV version:  checkpoint67c
(PID.TID 0000.0001) // Build user:        estrobac
(PID.TID 0000.0001) // Build host:        r403i4n5
(PID.TID 0000.0001) // Build date:        Fri Jul 13 08:38:28 PDT 2018
(PID.TID 0000.0001) 
(PID.TID 0000.0001) // =======================================================
(PID.TID 0000.0001) // Execution Environment parameter file "eedata"
(PID.TID 0000.0001) // =======================================================
(PID.TID 0000.0001) ># Example "eedata" file
(PID.TID 0000.0001) ># Lines beginning "#" are comments
(PID.TID 0000.0001) ># nTx - No. threads per process in X
(PID.TID 0000.0001) ># nTy - No. threads per process in Y
(PID.TID 0000.0001) > &EEPARMS
(PID.TID 0000.0001) > useCubedSphereExchange=.TRUE.,
(PID.TID 0000.0001) > nTx=1,
(PID.TID 0000.0001) > nTy=1,
(PID.TID 0000.0001) > &
(PID.TID 0000.0001) 
(PID.TID 0000.0001) // =======================================================
(PID.TID 0000.0001) // Computational Grid Specification ( see files "SIZE.h" )
(PID.TID 0000.0001) //                                  ( and "eedata"       )
(PID.TID 0000.0001) // =======================================================
(PID.TID 0000.0001)      nPx =   96 ; /* No. processes in X */
(PID.TID 0000.0001)      nPy =    1 ; /* No. processes in Y */
(PID.TID 0000.0001)      nSx =    1 ; /* No. tiles in X per process */
(PID.TID 0000.0001)      nSy =    1 ; /* No. tiles in Y per process */
(PID.TID 0000.0001)      sNx =   30 ; /* Tile size in X */
(PID.TID 0000.0001)      sNy =   30 ; /* Tile size in Y */
(PID.TID 0000.0001)      OLx =    4 ; /* Tile overlap distance in X */
(PID.TID 0000.0001)      OLy =    4 ; /* Tile overlap distance in Y */
(PID.TID 0000.0001)      nTx =    1 ; /* No. threads in X per process */
(PID.TID 0000.0001)      nTy =    1 ; /* No. threads in Y per process */
(PID.TID 0000.0001)       Nr =   50 ; /* No. levels in the vertical   */
(PID.TID 0000.0001)       Nx = 2880 ; /* Total domain size in X ( = nPx*nSx*sNx ) */
(PID.TID 0000.0001)       Ny =   30 ; /* Total domain size in Y ( = nPy*nSy*sNy ) */
(PID.TID 0000.0001)   nTiles =    1 ; /* Total no. tiles per process ( = nSx*nSy ) */
(PID.TID 0000.0001)   nProcs =   96 ; /* Total no. processes ( = nPx*nPy ) */
(PID.TID 0000.0001) nThreads =    1 ; /* Total no. threads per process ( = nTx*nTy ) */
(PID.TID 0000.0001) usingMPI =    T ; /* Flag used to control whether MPI is in use */
(PID.TID 0000.0001)                   /*  note: To execute a program with MPI calls */
(PID.TID 0000.0001)                   /*  it must be launched appropriately e.g     */
(PID.TID 0000.0001)                   /*  "mpirun -np 64 ......"                    */
(PID.TID 0000.0001) useCoupler=    F ;/* Flag used to control communications with   */
(PID.TID 0000.0001)                   /*  other model components, through a coupler */
(PID.TID 0000.0001) debugMode =    F ; /* print debug msg. (sequence of S/R calls)  */
(PID.TID 0000.0001) printMapIncludesZeros=    F ; /* print zeros in Std.Output maps */
(PID.TID 0000.0001) maxLengthPrt1D=   65 /* maxLength of 1D array printed to StdOut */
(PID.TID 0000.0001) 
(PID.TID 0000.0001) ======= Starting MPI parallel Run =========
(PID.TID 0000.0001)  My Processor Name (len:  8 ) = r403i4n5
(PID.TID 0000.0001)  Located at (  0,  0) on processor grid (0: 95,0:  0)
(PID.TID 0000.0001)  Origin at  (     1,     1) on global grid (1:  2880,1:    30)
(PID.TID 0000.0001)  North neighbor = processor 0000
(PID.TID 0000.0001)  South neighbor = processor 0000
(PID.TID 0000.0001)   East neighbor = processor 0001
(PID.TID 0000.0001)   West neighbor = processor 0095
(PID.TID 0000.0001) // ======================================================
(PID.TID 0000.0001) // Mapping of tiles to threads
(PID.TID 0000.0001) // ======================================================
(PID.TID 0000.0001) // -o- Thread   1, tiles (   1:   1,   1:   1)
(PID.TID 0000.0001) 
(PID.TID 0000.0001) W2_READPARMS: opening data.exch2
(PID.TID 0000.0001)  OPEN_COPY_DATA_FILE: opening file data.exch2
(PID.TID 0000.0001) // =======================================================
(PID.TID 0000.0001) // Parameter file "data.exch2"
(PID.TID 0000.0001) // =======================================================
(PID.TID 0000.0001) ># EXCH2 Package: Wrapper-2 User Choice
(PID.TID 0000.0001) >#--------------------
(PID.TID 0000.0001) >#  preDefTopol   :: pre-defined Topology selector:
(PID.TID 0000.0001) >#                :: = 0 : topology defined from processing "data.exch2";
(PID.TID 0000.0001) >#                :: = 1 : simple, single facet topology;
(PID.TID 0000.0001) >#                :: = 2 : customized topology (w2_set_myown_facets)
(PID.TID 0000.0001) >#                :: = 3 : 6-facet Cube (3 face-dims: nRed, nGreen, nBlue).
(PID.TID 0000.0001) >#  dimsFacets    :: facet pair of dimensions (n1x,n1y, n2x,n2y ...)
(PID.TID 0000.0001) >#  facetEdgeLink :: Face-Edge connectivity map:
(PID.TID 0000.0001) >#    facetEdgeLink(i,j)=XX.1 : face(j)-edge(i) (i=1,2,3,4 <==> N,S,E,W)
(PID.TID 0000.0001) >#    is connected to Northern edge of face "XX" ; similarly,
(PID.TID 0000.0001) >#    = XX.2 : to Southern.E, XX.3 = Eastern.E, XX.4 = Western.E of face "XX"
(PID.TID 0000.0001) >#  blankList     :: List of "blank" tiles
(PID.TID 0000.0001) >#  W2_mapIO      :: global map IO selector (-1 = old type ; 0 = 1 long line in X
(PID.TID 0000.0001) >#                :: 1 = compact, mostly in Y dir)
(PID.TID 0000.0001) >#  W2_printMsg   :: option for information messages printing
(PID.TID 0000.0001) >#                :: <0 : write to log file ; =0 : minimum print ;
(PID.TID 0000.0001) >#                :: =1 : no duplicated print ; =2 : all processes do print
(PID.TID 0000.0001) >#--------------------
(PID.TID 0000.0001) > &W2_EXCH2_PARM01
(PID.TID 0000.0001) ># W2_printMsg= 0,
(PID.TID 0000.0001) >  W2_mapIO   = 1,
(PID.TID 0000.0001) >#
(PID.TID 0000.0001) >  preDefTopol=0,
(PID.TID 0000.0001) >#-- 5 facets llc_120 topology (drop facet 6 and its connection):
(PID.TID 0000.0001) >  dimsFacets(1:10) = 90, 270, 90, 270, 90, 90, 270, 90, 270, 90,
(PID.TID 0000.0001) >  facetEdgeLink(1:4,1)= 3.4, 0. , 2.4, 5.1,
(PID.TID 0000.0001) >  facetEdgeLink(1:4,2)= 3.2, 0. , 4.2, 1.3,
(PID.TID 0000.0001) >  facetEdgeLink(1:4,3)= 5.4, 2.1, 4.4, 1.1,
(PID.TID 0000.0001) >  facetEdgeLink(1:4,4)= 5.2, 2.3, 0. , 3.3,
(PID.TID 0000.0001) >  facetEdgeLink(1:4,5)= 1.4, 4.1, 0. , 3.1,
(PID.TID 0000.0001) >#-- full 6 facets llc_120 topology (equivalent to default preDefTopol=3):
(PID.TID 0000.0001) ># dimsFacets(1:12) = 120, 360, 120, 360, 120, 120, 360, 120, 360, 120, 120, 120,
(PID.TID 0000.0001) ># facetEdgeLink(1:4,1)= 3.4, 6.1, 2.4, 5.1,
(PID.TID 0000.0001) ># facetEdgeLink(1:4,2)= 3.2, 6.3, 4.2, 1.3,
(PID.TID 0000.0001) ># facetEdgeLink(1:4,3)= 5.4, 2.1, 4.4, 1.1,
(PID.TID 0000.0001) ># facetEdgeLink(1:4,4)= 5.2, 2.3, 6.2, 3.3,
(PID.TID 0000.0001) ># facetEdgeLink(1:4,5)= 1.4, 4.1, 6.4, 3.1,
(PID.TID 0000.0001) ># facetEdgeLink(1:4,6)= 1.2, 4.3, 2.2, 5.3,
(PID.TID 0000.0001) >#
(PID.TID 0000.0001) >#90x30   nprocs = 36
(PID.TID 0000.0001) ># blankList(1:3)=1,10,11,
(PID.TID 0000.0001) >#30x90
(PID.TID 0000.0001) >#
(PID.TID 0000.0001) >#45x30   nprocs = 72
(PID.TID 0000.0001) ># blankList(1:6)=1,2,19,20,21,22
(PID.TID 0000.0001) >#30x45   nprocs = 68
(PID.TID 0000.0001) ># blankList(1:10)=2,3,19,20,21,35,51,60,69,78
(PID.TID 0000.0001) >#45x45   nprocs = 48
(PID.TID 0000.0001) ># blankList(1:4)=2,13,14,23
(PID.TID 0000.0001) >#30x30   nprocs = 96
(PID.TID 0000.0001) >  blankList(1:21)=1,2,3,5,6,28,29,30,31,32,33,49,50,52,53,72,81,90,99,108,117
(PID.TID 0000.0001) >#30x30   nprocs = 112
(PID.TID 0000.0001) ># blankList(1:5)=2,3,28,29,30
(PID.TID 0000.0001) >#15x30   nprocs = 192
(PID.TID 0000.0001) ># blankList(1:42)=1,2,3,4,5,6,9,10,11,12,55,56,57,58,59,60,61,62,63,64,65,66,
(PID.TID 0000.0001) >#            97,98,99,100,103,104,105,106,143,144,
(PID.TID 0000.0001) >#            161,162,179,180,197,198,215,216,233,234
(PID.TID 0000.0001) >#15x15   nprocs = 360
(PID.TID 0000.0001) ># blankList(1:108)=1,2,3,4,5,6,7,8,9,10,11,12,14,15,16,17,18,21,22,23,24,
(PID.TID 0000.0001) >#  65,71,75,76,90,95,96,101,102,109,110,111,112,113,114,115,116,117,118,119,
(PID.TID 0000.0001) >#  120,121,122,123,124,125,126,127,128,129,130,131,132,
(PID.TID 0000.0001) >#  188,189,190,193,194,195,196,199,
(PID.TID 0000.0001) >#  200,201,202,203,205,206,207,208,209,211,212,213,214,215,216,242,247,253,
(PID.TID 0000.0001) >#  267,268,269,270,287,288,305,306,323,324,341,342,359,360,362,376,377,378,
(PID.TID 0000.0001) >#  380,381,382,395,396,400,412,413,414,430,
(PID.TID 0000.0001) >#note: it seems that 8 of the followig 9 tiles could be added to 15x15 blank
(PID.TID 0000.0001) >#  list to reach 352=22*16 cores : 431 432 440 441 448 449 450 467 468
(PID.TID 0000.0001) > &
(PID.TID 0000.0001) 
(PID.TID 0000.0001) W2_READPARMS: finished reading data.exch2
(PID.TID 0000.0001) W2_useE2ioLayOut=    T ;/* T: use Exch2 glob IO map; F: use model default */
(PID.TID 0000.0001) W2_mapIO        =   1 ; /* select option for Exch2 global-IO map */
(PID.TID 0000.0001) W2_printMsg     =  -1 ; /* select option for printing information */
(PID.TID 0000.0001) ===== Start setting W2 TOPOLOGY:
(PID.TID 0000.0001)  write to log-file: w2_tile_topology.0000.log
(PID.TID 0000.0001) =====       setting W2 TOPOLOGY: Done
(PID.TID 0000.0001) 
(PID.TID 0000.0001)  INI_PARMS: opening model parameter file "data"
(PID.TID 0000.0001)  OPEN_COPY_DATA_FILE: opening file data
(PID.TID 0000.0001) // =======================================================
(PID.TID 0000.0001) // Parameter file "data"
(PID.TID 0000.0001) // =======================================================
(PID.TID 0000.0001) ># ====================
(PID.TID 0000.0001) ># | Model parameters |
(PID.TID 0000.0001) ># ====================
(PID.TID 0000.0001) >#
(PID.TID 0000.0001) ># Continuous equation parameters
(PID.TID 0000.0001) > &PARM01
(PID.TID 0000.0001) > tRef               = 3*23.,3*22.,21.,2*20.,19.,2*18.,17.,2*16.,15.,14.,13.,
(PID.TID 0000.0001) >                      12.,11.,2*9.,8.,7.,2*6.,2*5.,3*4.,3*3.,4*2.,12*1.,
(PID.TID 0000.0001) > sRef               = 50*34.5,
(PID.TID 0000.0001) > no_slip_sides  = .TRUE.,
(PID.TID 0000.0001) > no_slip_bottom = .TRUE.,
(PID.TID 0000.0001) >#
(PID.TID 0000.0001) > viscAr=0.5E-4,
(PID.TID 0000.0001) >#
(PID.TID 0000.0001) > viscAh=1.E0,
(PID.TID 0000.0001) > viscAhGrid=2.E-2,
(PID.TID 0000.0001) ># viscAh=2.0e4,
(PID.TID 0000.0001) >#
(PID.TID 0000.0001) > diffKhT=1.E1,
(PID.TID 0000.0001) > diffKrT=1.E-5,
(PID.TID 0000.0001) > diffKhS=1.E1,
(PID.TID 0000.0001) > diffKrS=1.E-5,
(PID.TID 0000.0001) >#
(PID.TID 0000.0001) >### diffKrBL79surf=0.1E-4,
(PID.TID 0000.0001) >### diffKrBL79deep=1.0E-4,
(PID.TID 0000.0001) > bottomDragQuadratic = 0.001,
(PID.TID 0000.0001) >#when using ggl90
(PID.TID 0000.0001) > ivdc_kappa=10.,
(PID.TID 0000.0001) > implicitDiffusion=.TRUE.,
(PID.TID 0000.0001) > implicitViscosity=.TRUE.,
(PID.TID 0000.0001) > useRealFreshWaterFlux=.TRUE.,
(PID.TID 0000.0001) ># balanceThetaClimRelax=.TRUE.,
(PID.TID 0000.0001) > balanceSaltClimRelax=.TRUE.,
(PID.TID 0000.0001) ># balanceEmPmR=.TRUE.,
(PID.TID 0000.0001) ># balanceQnet=.TRUE.,
(PID.TID 0000.0001) > allowFreezing=.FALSE.,
(PID.TID 0000.0001) >### hFacInf=0.2,
(PID.TID 0000.0001) >### hFacSup=2.0,
(PID.TID 0000.0001) > hFacMin=.2,
(PID.TID 0000.0001) > hFacMinDr=5.,
(PID.TID 0000.0001) > select_rStar=2,
(PID.TID 0000.0001) > nonlinFreeSurf=4,
(PID.TID 0000.0001) > gravity=9.81,
(PID.TID 0000.0001) > rhonil=1029.,
(PID.TID 0000.0001) > rhoConst=1029.,
(PID.TID 0000.0001) > rhoConstFresh=1000.,
(PID.TID 0000.0001) > convertFW2Salt=-1.,
(PID.TID 0000.0001) > eosType='JMD95Z',
(PID.TID 0000.0001) > implicitFreeSurface=.TRUE.,
(PID.TID 0000.0001) > exactConserv=.TRUE.,
(PID.TID 0000.0001) > useSingleCpuIO=.TRUE.,
(PID.TID 0000.0001) > tempAdvScheme=77,
(PID.TID 0000.0001) > saltAdvScheme=77,
(PID.TID 0000.0001) ># tempVertAdvScheme=3,
(PID.TID 0000.0001) ># saltVertAdvScheme=3,
(PID.TID 0000.0001) ># tempImplVertAdv=.TRUE.,
(PID.TID 0000.0001) ># saltImplVertAdv=.TRUE.,
(PID.TID 0000.0001) > staggerTimeStep=.TRUE.,
(PID.TID 0000.0001) > vectorInvariantMomentum=.TRUE.,
(PID.TID 0000.0001) >#when using the cd scheme:
(PID.TID 0000.0001) ># useCDscheme=.TRUE.,
(PID.TID 0000.0001) > useJamartWetPoints=.TRUE.,
(PID.TID 0000.0001) > readBinaryPrec=32,
(PID.TID 0000.0001) > writeBinaryPrec=32,
(PID.TID 0000.0001) > debugLevel=2,
(PID.TID 0000.0001) > &
(PID.TID 0000.0001) >
(PID.TID 0000.0001) ># Elliptic solver parameters
(PID.TID 0000.0001) > &PARM02
(PID.TID 0000.0001) > cg2dMaxIters=300,
(PID.TID 0000.0001) > cg2dTargetResWunit=1.E-12,
(PID.TID 0000.0001) > &
(PID.TID 0000.0001) >
(PID.TID 0000.0001) ># Time stepping parameters
(PID.TID 0000.0001) > &PARM03
(PID.TID 0000.0001) > nIter0=1,
(PID.TID 0000.0001) >#2 lev2 for testing:
(PID.TID 0000.0001) ># nTimeSteps       = 96,
(PID.TID 0000.0001) >#20y:
(PID.TID 0000.0001) >  nTimeSteps       = 96,
(PID.TID 0000.0001) >#60 years
(PID.TID 0000.0001) ># nTimeSteps       = 96,
(PID.TID 0000.0001) >#
(PID.TID 0000.0001) > forcing_In_AB=.FALSE.,
(PID.TID 0000.0001) > momDissip_In_AB=.FALSE.,
(PID.TID 0000.0001) >#when using the cd scheme:
(PID.TID 0000.0001) ># epsAB_CD = 0.25,
(PID.TID 0000.0001) ># tauCD=172800.0,
(PID.TID 0000.0001) > deltaT = 900.,
(PID.TID 0000.0001) >#when using ab2:
(PID.TID 0000.0001) > abEps = 0.1,
(PID.TID 0000.0001) >#when using ab3:
(PID.TID 0000.0001) ># doAB_onGtGs=.FALSE.,
(PID.TID 0000.0001) ># alph_AB=0.5,
(PID.TID 0000.0001) ># beta_AB=0.281105,
(PID.TID 0000.0001) >#
(PID.TID 0000.0001) >  pChkptFreq        = 86400.0,
(PID.TID 0000.0001) >  chkptFreq        = 86400.0,
(PID.TID 0000.0001) ># taveFreq    =31536000.0,
(PID.TID 0000.0001) ># dumpFreq    =31536000.0,
(PID.TID 0000.0001) > monitorFreq = 7200.0,
(PID.TID 0000.0001) > dumpInitAndLast = .TRUE.,
(PID.TID 0000.0001) > pickupStrictlyMatch=.FALSE.,
(PID.TID 0000.0001) > &
(PID.TID 0000.0001) >
(PID.TID 0000.0001) ># Gridding parameters
(PID.TID 0000.0001) > &PARM04
(PID.TID 0000.0001) > usingCurvilinearGrid=.TRUE.,
(PID.TID 0000.0001) > delR =
(PID.TID 0000.0001) >     10.00, 10.00, 10.00, 10.00, 10.00, 10.00, 10.00, 10.01,
(PID.TID 0000.0001) >     10.03, 10.11, 10.32, 10.80, 11.76, 13.42, 16.04, 19.82, 24.85,
(PID.TID 0000.0001) >     31.10, 38.42, 46.50, 55.00, 63.50, 71.58, 78.90, 85.15, 90.18,
(PID.TID 0000.0001) >     93.96, 96.58, 98.25, 99.25,100.01,101.33,104.56,111.33,122.83,
(PID.TID 0000.0001) >     139.09,158.94,180.83,203.55,226.50,249.50,272.50,295.50,318.50,
(PID.TID 0000.0001) >     341.50,364.50,387.50,410.50,433.50,456.50,
(PID.TID 0000.0001) > &
(PID.TID 0000.0001) >
(PID.TID 0000.0001) ># Input datasets
(PID.TID 0000.0001) > &PARM05
(PID.TID 0000.0001) >#adTapeDir='tapes',
(PID.TID 0000.0001) > bathyFile      ='bathy.bin',
(PID.TID 0000.0001) > hydrogThetaFile='T_OWPv1_M_eccollc_90x50.bin',
(PID.TID 0000.0001) > hydrogSaltFile ='S_OWPv1_M_eccollc_90x50.bin',
(PID.TID 0000.0001) > viscA4Dfile    ='viscA4Dfld.bin',
(PID.TID 0000.0001) > viscA4Zfile    ='viscA4Zfld.bin',
(PID.TID 0000.0001) > geothermalFile='geothermalFlux.bin',
(PID.TID 0000.0001) >#
(PID.TID 0000.0001) > &
(PID.TID 0000.0001) 
(PID.TID 0000.0001)  INI_PARMS ; starts to read PARM01
(PID.TID 0000.0001)  INI_PARMS ; read PARM01 : OK
(PID.TID 0000.0001)  INI_PARMS ; starts to read PARM02
(PID.TID 0000.0001)  INI_PARMS ; read PARM02 : OK
(PID.TID 0000.0001)  INI_PARMS ; starts to read PARM03
(PID.TID 0000.0001)  INI_PARMS ; read PARM03 : OK
(PID.TID 0000.0001)  INI_PARMS ; starts to read PARM04
(PID.TID 0000.0001)  INI_PARMS ; read PARM04 : OK
(PID.TID 0000.0001)  INI_PARMS ; starts to read PARM05
(PID.TID 0000.0001)  INI_PARMS ; read PARM05 : OK
(PID.TID 0000.0001)  INI_PARMS: finished reading file "data"
(PID.TID 0000.0001)  PACKAGES_BOOT: opening data.pkg
(PID.TID 0000.0001)  OPEN_COPY_DATA_FILE: opening file data.pkg
(PID.TID 0000.0001) // =======================================================
(PID.TID 0000.0001) // Parameter file "data.pkg"
(PID.TID 0000.0001) // =======================================================
(PID.TID 0000.0001) ># Packages
(PID.TID 0000.0001) > &PACKAGES
(PID.TID 0000.0001) > useGMRedi          = .TRUE.,
(PID.TID 0000.0001) > useGGL90           = .TRUE.,
(PID.TID 0000.0001) > useSALT_PLUME      = .FALSE.,
(PID.TID 0000.0001) > useDiagnostics     = .TRUE.,
(PID.TID 0000.0001) > useCTRL            = .TRUE.,
(PID.TID 0000.0001) > useSEAICE          = .TRUE.,
(PID.TID 0000.0001) > &
(PID.TID 0000.0001) 
(PID.TID 0000.0001)  PACKAGES_BOOT: finished reading data.pkg
(PID.TID 0000.0001)  PACKAGES_BOOT: On/Off package Summary
 --------  pkgs with a standard "usePKG" On/Off switch in "data.pkg":  --------
 pkg/ggl90                compiled   and   used ( useGGL90                 = T )
 pkg/gmredi               compiled   and   used ( useGMRedi                = T )
 pkg/ctrl                 compiled   and   used ( useCTRL                  = T )
 pkg/seaice               compiled   and   used ( useSEAICE                = T )
 pkg/salt_plume           compiled but not used ( useSALT_PLUME            = F )
 pkg/diagnostics          compiled   and   used ( useDiagnostics           = T )
 -------- pkgs without standard "usePKG" On/Off switch in "data.pkg":  --------
 pkg/generic_advdiff      compiled   and   used ( useGAD                   = T )
 pkg/mom_common           compiled   and   used ( momStepping              = T )
 pkg/mom_vecinv           compiled   and   used ( +vectorInvariantMomentum = T )
 pkg/mom_fluxform         compiled but not used ( & not vectorInvariantMom = F )
 pkg/monitor              compiled   and   used ( monitorFreq > 0.         = T )
 pkg/debug                compiled but not used ( debugMode                = F )
 pkg/exch2                compiled   and   used
 pkg/rw                   compiled   and   used
 pkg/mdsio                compiled   and   used
(PID.TID 0000.0001)  PACKAGES_BOOT: End of package Summary
(PID.TID 0000.0001) 
(PID.TID 0000.0001)  GGL90_READPARMS: opening data.ggl90
(PID.TID 0000.0001)  OPEN_COPY_DATA_FILE: opening file data.ggl90
(PID.TID 0000.0001) // =======================================================
(PID.TID 0000.0001) // Parameter file "data.ggl90"
(PID.TID 0000.0001) // =======================================================
(PID.TID 0000.0001) ># =====================================================================
(PID.TID 0000.0001) ># | Parameters for Gaspar et al. (1990)'s TKE vertical mixing scheme  |
(PID.TID 0000.0001) ># =====================================================================
(PID.TID 0000.0001) > &GGL90_PARM01
(PID.TID 0000.0001) ># GGL90taveFreq = 345600000.,
(PID.TID 0000.0001) ># GGL90dumpFreq = 86400.,
(PID.TID 0000.0001) ># GGL90writeState=.FALSE.,
(PID.TID 0000.0001) ># GGL90diffTKEh=3.e3,
(PID.TID 0000.0001) > GGL90alpha=30.,
(PID.TID 0000.0001) ># GGL90TKEFile = 'TKE_init.bin',
(PID.TID 0000.0001) > GGL90TKEmin  = 1.e-7,
(PID.TID 0000.0001) > GGL90TKEbottom = 1.e-6,
(PID.TID 0000.0001) > mxlMaxFlag =2,
(PID.TID 0000.0001) > mxlSurfFlag=.TRUE.,
(PID.TID 0000.0001) > &
(PID.TID 0000.0001) 
(PID.TID 0000.0001)  GGL90_READPARMS ; starts to read GGL90_PARM01
(PID.TID 0000.0001)  GGL90_READPARMS: read GGL90_PARM01 : OK
(PID.TID 0000.0001)  GGL90_READPARMS: finished reading data.ggl90
(PID.TID 0000.0001) // =======================================================
(PID.TID 0000.0001) // GGL90 configuration
(PID.TID 0000.0001) // =======================================================
(PID.TID 0000.0001) GGL90dumpFreq =   /* GGL90 state write out interval ( s ). */
(PID.TID 0000.0001)                 0.000000000000000E+00
(PID.TID 0000.0001)     ;
(PID.TID 0000.0001) GGL90taveFreq =   /* GGL90 averaging interval ( s ). */
(PID.TID 0000.0001)                 0.000000000000000E+00
(PID.TID 0000.0001)     ;
(PID.TID 0000.0001) GGL90mixingMAPS =   /* GGL90 IO flag. */
(PID.TID 0000.0001)                   F
(PID.TID 0000.0001)     ;
(PID.TID 0000.0001) GGL90writeState =   /* GGL90 IO flag. */
(PID.TID 0000.0001)                   F
(PID.TID 0000.0001)     ;
(PID.TID 0000.0001) GGL90ck =   /* GGL90 viscosity parameter. */
(PID.TID 0000.0001)                 1.000000000000000E-01
(PID.TID 0000.0001)     ;
(PID.TID 0000.0001) GGL90ceps =   /* GGL90 dissipation parameter. */
(PID.TID 0000.0001)                 7.000000000000000E-01
(PID.TID 0000.0001)     ;
(PID.TID 0000.0001) GGL90alpha =   /* GGL90 TKE diffusivity parameter. */
(PID.TID 0000.0001)                 3.000000000000000E+01
(PID.TID 0000.0001)     ;
(PID.TID 0000.0001) GGL90m2 =   /* GGL90 wind stress to vertical stress ratio. */
(PID.TID 0000.0001)                 3.750000000000000E+00
(PID.TID 0000.0001)     ;
(PID.TID 0000.0001) GGL90TKEmin =   /* GGL90 minimum kinetic energy ( m^2/s^2 ). */
(PID.TID 0000.0001)                 1.000000000000000E-07
(PID.TID 0000.0001)     ;
(PID.TID 0000.0001) GGL90TKEsurfMin =   /* GGL90 minimum surface kinetic energy ( m^2/s^2 ). */
(PID.TID 0000.0001)                 1.000000000000000E-04
(PID.TID 0000.0001)     ;
(PID.TID 0000.0001) GGL90TKEbottom =   /* GGL90 bottom kinetic energy ( m^2/s^2 ). */
(PID.TID 0000.0001)                 1.000000000000000E-06
(PID.TID 0000.0001)     ;
(PID.TID 0000.0001) GGL90viscMax =   /* GGL90 upper limit for viscosity ( m^2/s ). */
(PID.TID 0000.0001)                 1.000000000000000E+02
(PID.TID 0000.0001)     ;
(PID.TID 0000.0001) GGL90diffMax =   /* GGL90 upper limit for diffusivity ( m^2/s ). */
(PID.TID 0000.0001)                 1.000000000000000E+02
(PID.TID 0000.0001)     ;
(PID.TID 0000.0001) GGL90diffTKEh =   /* GGL90 horizontal diffusivity for TKE ( m^2/s ). */
(PID.TID 0000.0001)                 0.000000000000000E+00
(PID.TID 0000.0001)     ;
(PID.TID 0000.0001) GGL90mixingLengthMin =   /* GGL90 minimum mixing length ( m ). */
(PID.TID 0000.0001)                 1.000000000000000E-08
(PID.TID 0000.0001)     ;
(PID.TID 0000.0001) mxlMaxFlag =   /* Flag for limiting mixing-length method */
(PID.TID 0000.0001)                       2
(PID.TID 0000.0001)     ;
(PID.TID 0000.0001) mxlSurfFlag =   /* GGL90 flag for near surface mixing. */
(PID.TID 0000.0001)                   T
(PID.TID 0000.0001)     ;
(PID.TID 0000.0001) calcMeanVertShear = /* calc Mean of Vert.Shear (vs shear of Mean flow) */
(PID.TID 0000.0001)                   F
(PID.TID 0000.0001)     ;
(PID.TID 0000.0001) GGL90: GGL90TKEFile =
(PID.TID 0000.0001) GGL90writeState =   /* GGL90 Boundary condition flag. */
(PID.TID 0000.0001)                   T
(PID.TID 0000.0001)     ;
(PID.TID 0000.0001) // =======================================================
(PID.TID 0000.0001) // End of GGL90 config. summary
(PID.TID 0000.0001) // =======================================================
(PID.TID 0000.0001) 
(PID.TID 0000.0001)  GM_READPARMS: opening data.gmredi
(PID.TID 0000.0001)  OPEN_COPY_DATA_FILE: opening file data.gmredi
(PID.TID 0000.0001) // =======================================================
(PID.TID 0000.0001) // Parameter file "data.gmredi"
(PID.TID 0000.0001) // =======================================================
(PID.TID 0000.0001) ># GM+Redi package parameters:
(PID.TID 0000.0001) >#     GM_Small_Number  :: epsilon used in computing the slope
(PID.TID 0000.0001) >#     GM_slopeSqCutoff :: slope^2 cut-off value
(PID.TID 0000.0001) >
(PID.TID 0000.0001) >#-from MOM :
(PID.TID 0000.0001) ># GM_background_K: 	G & Mc.W  diffusion coefficient
(PID.TID 0000.0001) ># GM_maxSlope    :	max slope of isopycnals
(PID.TID 0000.0001) ># GM_Scrit       :	transition for scaling diffusion coefficient
(PID.TID 0000.0001) ># GM_Sd          :	half width scaling for diffusion coefficient
(PID.TID 0000.0001) ># GM_taper_scheme:	slope clipping or one of the tapering schemes
(PID.TID 0000.0001) ># GM_Kmin_horiz  :	horizontal diffusion minimum value
(PID.TID 0000.0001) >
(PID.TID 0000.0001) >#-Option parameters (needs to "define" options in GMREDI_OPTIONS.h")
(PID.TID 0000.0001) ># GM_isopycK     :	isopycnal diffusion coefficient (default=GM_background_K)
(PID.TID 0000.0001) ># GM_AdvForm     :	turn on GM Advective form       (default=Skew flux form)
(PID.TID 0000.0001) >
(PID.TID 0000.0001) > &GM_PARM01
(PID.TID 0000.0001) >  GM_Small_Number  = 1.D-20,
(PID.TID 0000.0001) >  GM_slopeSqCutoff = 1.D+08,
(PID.TID 0000.0001) >  GM_AdvForm         = .TRUE.,
(PID.TID 0000.0001) >  GM_isopycK         = 1.D+3,
(PID.TID 0000.0001) >  GM_background_K    = 1.D+3,
(PID.TID 0000.0001) >  GM_maxSlope        = 4.D-3,
(PID.TID 0000.0001) >  GM_taper_scheme    = 'stableGmAdjTap',
(PID.TID 0000.0001) >  GM_Kmin_horiz      = 100.,
(PID.TID 0000.0001) >  GM_Scrit           = 4.D-3,
(PID.TID 0000.0001) >  GM_Sd              = 1.D-3,
(PID.TID 0000.0001) >#
(PID.TID 0000.0001) >###  GM_Visbeck_alpha   = 1.5D-2,
(PID.TID 0000.0001) >###  GM_Visbeck_alpha   = 0.D0,
(PID.TID 0000.0001) >###  GM_Visbeck_length  = 2.D+5,
(PID.TID 0000.0001) >###  GM_Visbeck_depth   = 1.D+3,
(PID.TID 0000.0001) >###  GM_Visbeck_maxval_K= 2.5D+3,
(PID.TID 0000.0001) > &
(PID.TID 0000.0001) >
(PID.TID 0000.0001) >
(PID.TID 0000.0001) 
(PID.TID 0000.0001)  GM_READPARMS: finished reading data.gmredi
(PID.TID 0000.0001) 
(PID.TID 0000.0001)  SEAICE_READPARMS: opening data.seaice
(PID.TID 0000.0001)  OPEN_COPY_DATA_FILE: opening file data.seaice
(PID.TID 0000.0001) // =======================================================
(PID.TID 0000.0001) // Parameter file "data.seaice"
(PID.TID 0000.0001) // =======================================================
(PID.TID 0000.0001) ># SEAICE parameters
(PID.TID 0000.0001) > &SEAICE_PARM01
(PID.TID 0000.0001) > usePW79thermodynamics= .FALSE.,
(PID.TID 0000.0001) >#  SEAICEuseDYNAMICS = .FALSE.,
(PID.TID 0000.0001) >#  SEAICEupdateOceanStress=.FALSE.,
(PID.TID 0000.0001) >#  SEAICEadvHeff  = .FALSE.,
(PID.TID 0000.0001) >#  SEAICEadvArea  = .FALSE.,
(PID.TID 0000.0001) >#  SEAICEadvSnow  = .FALSE.,
(PID.TID 0000.0001) >#  SEAICEadvSalt  = .FALSE.,
(PID.TID 0000.0001) >#--
(PID.TID 0000.0001) > SEAICE_strength    = 2.6780e+04,
(PID.TID 0000.0001) > OCEAN_drag         = 8.1541e-04,
(PID.TID 0000.0001) > SEAICE_waterDrag   = 5.3508,
(PID.TID 0000.0001) > SEAICE_no_Slip     = .FALSE.,
(PID.TID 0000.0001) > LSR_ERROR          = 1.E-12,
(PID.TID 0000.0001) > SEAICElinearIterMax= 1500,
(PID.TID 0000.0001) >#LSR_mixIniGuess    = 1,
(PID.TID 0000.0001) > SEAICEadvScheme    = 77,
(PID.TID 0000.0001) > AreaFile  = 'const100.bin',
(PID.TID 0000.0001) > HeffFile  = 'const+20.bin',
(PID.TID 0000.0001) > HsnowFile = 'const_00.bin',
(PID.TID 0000.0001) > SEAICEwriteState   = .TRUE.,
(PID.TID 0000.0001) >#SEAICE_monFreq = 1800.,
(PID.TID 0000.0001) > &
(PID.TID 0000.0001) >
(PID.TID 0000.0001) > &SEAICE_PARM03
(PID.TID 0000.0001) > &
(PID.TID 0000.0001) 
(PID.TID 0000.0001)  SEAICE_READPARMS: finished reading data.seaice
(PID.TID 0000.0001) OPTIM_READPARMS: opening data.optim
(PID.TID 0000.0001)  OPEN_COPY_DATA_FILE: opening file data.optim
(PID.TID 0000.0001) // =======================================================
(PID.TID 0000.0001) // Parameter file "data.optim"
(PID.TID 0000.0001) // =======================================================
(PID.TID 0000.0001) >#
(PID.TID 0000.0001) ># ********************************
(PID.TID 0000.0001) ># Off-line optimization parameters
(PID.TID 0000.0001) ># ********************************
(PID.TID 0000.0001) > &OPTIM
(PID.TID 0000.0001) > optimcycle=12,
(PID.TID 0000.0001) > &
(PID.TID 0000.0001) 
(PID.TID 0000.0001) OPTIM_READPARMS: finished reading data.optim
(PID.TID 0000.0001) CTRL_READPARMS: opening data.ctrl
(PID.TID 0000.0001)  OPEN_COPY_DATA_FILE: opening file data.ctrl
(PID.TID 0000.0001) // =======================================================
(PID.TID 0000.0001) // Parameter file "data.ctrl"
(PID.TID 0000.0001) // =======================================================
(PID.TID 0000.0001) ># *********************
(PID.TID 0000.0001) ># ECCO control variables
(PID.TID 0000.0001) ># *********************
(PID.TID 0000.0001) > &ctrl_nml
(PID.TID 0000.0001) > doSinglePrecTapelev=.TRUE.,
(PID.TID 0000.0001) >#to start from given xx*00.data files
(PID.TID 0000.0001) >  doinitxx = .FALSE.,
(PID.TID 0000.0001) >  doMainUnpack = .FALSE.,
(PID.TID 0000.0001) >#to start from given ecco_ctrl... files
(PID.TID 0000.0001) ># doinitxx = .FALSE.,
(PID.TID 0000.0001) > &
(PID.TID 0000.0001) >#
(PID.TID 0000.0001) ># *********************
(PID.TID 0000.0001) ># names for ctrl_pack/unpack
(PID.TID 0000.0001) ># *********************
(PID.TID 0000.0001) > &ctrl_packnames
(PID.TID 0000.0001) > &
(PID.TID 0000.0001) >#
(PID.TID 0000.0001) ># *********************
(PID.TID 0000.0001) ># names for CTRL_GENARR2D,3D CTRL_GENTIM2D
(PID.TID 0000.0001) ># *********************
(PID.TID 0000.0001) > &CTRL_NML_GENARR
(PID.TID 0000.0001) >#
(PID.TID 0000.0001) > xx_genarr3d_weight(1) = 'wt_ones.data',
(PID.TID 0000.0001) > xx_genarr3d_file(1)='xx_kapgm',
(PID.TID 0000.0001) > mult_genarr3d(1) = 0.,
(PID.TID 0000.0001) >#
(PID.TID 0000.0001) > xx_genarr3d_weight(2) = 'wt_ones.data',
(PID.TID 0000.0001) > xx_genarr3d_file(2)='xx_kapredi',
(PID.TID 0000.0001) > mult_genarr3d(2) = 0.,
(PID.TID 0000.0001) >#
(PID.TID 0000.0001) > xx_genarr3d_weight(3) = 'wt_ones.data',
(PID.TID 0000.0001) > xx_genarr3d_file(3)='xx_diffkr',
(PID.TID 0000.0001) > mult_genarr3d(3) = 0.,
(PID.TID 0000.0001) >#
(PID.TID 0000.0001) > &
(PID.TID 0000.0001) 
(PID.TID 0000.0001) CTRL_READPARMS: finished reading data.ctrl
(PID.TID 0000.0001)  DIAGNOSTICS_READPARMS: opening data.diagnostics
(PID.TID 0000.0001)  OPEN_COPY_DATA_FILE: opening file data.diagnostics
(PID.TID 0000.0001) // =======================================================
(PID.TID 0000.0001) // Parameter file "data.diagnostics"
(PID.TID 0000.0001) // =======================================================
(PID.TID 0000.0001) ># Diagnostic Package Choices
(PID.TID 0000.0001) >#--------------------
(PID.TID 0000.0001) >#  dumpAtLast (logical): always write output at the end of simulation (default=F)
(PID.TID 0000.0001) >#  diag_mnc   (logical): write to NetCDF files (default=useMNC)
(PID.TID 0000.0001) >#--for each output-stream:
(PID.TID 0000.0001) >#  fileName(n) : prefix of the output file name (max 80c long) for outp.stream n
(PID.TID 0000.0001) >#  frequency(n):< 0 : write snap-shot output every |frequency| seconds
(PID.TID 0000.0001) >#               > 0 : write time-average output every frequency seconds
(PID.TID 0000.0001) >#  timePhase(n)     : write at time = timePhase + multiple of |frequency|
(PID.TID 0000.0001) >#    averagingFreq  : frequency (in s) for periodic averaging interval
(PID.TID 0000.0001) >#    averagingPhase : phase     (in s) for periodic averaging interval
(PID.TID 0000.0001) >#    repeatCycle    : number of averaging intervals in 1 cycle
(PID.TID 0000.0001) >#  levels(:,n) : list of levels to write to file (Notes: declared as REAL)
(PID.TID 0000.0001) >#                when this entry is missing, select all common levels of this list
(PID.TID 0000.0001) >#  fields(:,n) : list of selected diagnostics fields (8.c) in outp.stream n
(PID.TID 0000.0001) >#                (see "available_diagnostics.log" file for the full list of diags)
(PID.TID 0000.0001) >#  missing_value(n) : missing value for real-type fields in output file "n"
(PID.TID 0000.0001) >#  fileFlags(n)     : specific code (8c string) for output file "n"
(PID.TID 0000.0001) >#--------------------
(PID.TID 0000.0001) ># This example dumps EXF diagnostics as snapshot after 10 time-steps
(PID.TID 0000.0001) ># Note: EXF air-sea fluxes over Sea-Ice are wrong
(PID.TID 0000.0001) > &DIAGNOSTICS_LIST
(PID.TID 0000.0001) >   dumpAtLast  = .TRUE.,
(PID.TID 0000.0001) >#--
(PID.TID 0000.0001) >    fields(1:10,1)  = 'oceQnet ','oceQsw  ','oceFWflx','oceSflux',
(PID.TID 0000.0001) >                      'oceTAUX ','oceTAUY ',
(PID.TID 0000.0001) >                      'THETA   ','SALT    ','UVEL    ', 'VVEL    ',
(PID.TID 0000.0001) >   fileName(1) = 'surfDiag',
(PID.TID 0000.0001) >  frequency(1) = 3600.,
(PID.TID 0000.0001) >
(PID.TID 0000.0001) >  fields(1:8,2)  = 'SIarea  ','SIheff  ','SIhsnow ','sIceLoad',
(PID.TID 0000.0001) >                   'SIuice  ','SIvice  ','SItaux  ','SItauy  ',
(PID.TID 0000.0001) >   fileName(2) = 'iceDiag',
(PID.TID 0000.0001) >  frequency(2) =  3600.,
(PID.TID 0000.0001) >  missing_value(2) = -999.,
(PID.TID 0000.0001) >
(PID.TID 0000.0001) >  fields(1:8,3)  = 'SIarea  ','SIheff  ','SIhsnow ','sIceLoad',
(PID.TID 0000.0001) >                   'SIuice  ','SIvice  ','SItaux  ','SItauy  ',
(PID.TID 0000.0001) >#   fileName(3) = 'iceInst',
(PID.TID 0000.0001) >  frequency(3) = -900.,
(PID.TID 0000.0001) ># timePhase(3) =  3600.,
(PID.TID 0000.0001) >  missing_value(3) = -999.,
(PID.TID 0000.0001) >
(PID.TID 0000.0001) >  fields(1:3,4)  = 'SIareaN  ','SIheffN  ','SIhsnowN ',
(PID.TID 0000.0001) >  fileName(4) = 'iceNcat',
(PID.TID 0000.0001) >  frequency(4) =  3600.,
(PID.TID 0000.0001) >  missing_value(4) = -999.,
(PID.TID 0000.0001) >
(PID.TID 0000.0001) >&
(PID.TID 0000.0001) >#--------------------
(PID.TID 0000.0001) ># Parameter for Diagnostics of per level statistics:
(PID.TID 0000.0001) >#--------------------
(PID.TID 0000.0001) >#  diagSt_mnc (logical): write stat-diags to NetCDF files (default=diag_mnc)
(PID.TID 0000.0001) >#  diagSt_regMaskFile : file containing the region-mask to read-in
(PID.TID 0000.0001) >#  nSetRegMskFile   : number of region-mask sets within the region-mask file
(PID.TID 0000.0001) >#  set_regMask(i)   : region-mask set-index that identifies the region "i"
(PID.TID 0000.0001) >#  val_regMask(i)   : region "i" identifier value in the region mask
(PID.TID 0000.0001) >#--for each output-stream:
(PID.TID 0000.0001) >#  stat_fName(n) : prefix of the output file name (max 80c long) for outp.stream n
(PID.TID 0000.0001) >#  stat_freq(n):< 0 : write snap-shot output every |stat_freq| seconds
(PID.TID 0000.0001) >#               > 0 : write time-average output every stat_freq seconds
(PID.TID 0000.0001) >#  stat_phase(n)    : write at time = stat_phase + multiple of |stat_freq|
(PID.TID 0000.0001) >#  stat_region(:,n) : list of "regions" (default: 1 region only=global)
(PID.TID 0000.0001) >#  stat_fields(:,n) : list of selected diagnostics fields (8.c) in outp.stream n
(PID.TID 0000.0001) >#                (see "available_diagnostics.log" file for the full list of diags)
(PID.TID 0000.0001) >#--------------------
(PID.TID 0000.0001) > &DIAG_STATIS_PARMS
(PID.TID 0000.0001) > stat_fields(1:8,1)  = 'SIarea  ','SIheff  ','SIhsnow ','sIceLoad',
(PID.TID 0000.0001) >                       'SIuice  ','SIvice  ','SItaux  ','SItauy  ',
(PID.TID 0000.0001) >  stat_fName(1) = 'iceStDiag',
(PID.TID 0000.0001) >   stat_freq(1) =  900.,
(PID.TID 0000.0001) ># stat_phase(1) = 1800.,
(PID.TID 0000.0001) > &
(PID.TID 0000.0001) 
(PID.TID 0000.0001) S/R DIAGNOSTICS_READPARMS, read namelist "diagnostics_list": start
(PID.TID 0000.0001) S/R DIAGNOSTICS_READPARMS, read namelist "diagnostics_list": OK
(PID.TID 0000.0001) S/R DIAGNOSTICS_READPARMS, read namelist "DIAG_STATIS_PARMS": start
(PID.TID 0000.0001) S/R DIAGNOSTICS_READPARMS, read namelist "DIAG_STATIS_PARMS": OK
(PID.TID 0000.0001)  DIAGNOSTICS_READPARMS: global parameter summary:
(PID.TID 0000.0001)  dumpAtLast = /* always write time-ave diags at the end */
(PID.TID 0000.0001)                   T
(PID.TID 0000.0001)     ;
(PID.TID 0000.0001)  diag_mnc =   /* write NetCDF output files */
(PID.TID 0000.0001)                   F
(PID.TID 0000.0001)     ;
(PID.TID 0000.0001)  useMissingValue = /* put MissingValue where mask = 0 */
(PID.TID 0000.0001)                   F
(PID.TID 0000.0001)     ;
(PID.TID 0000.0001)  diagCG_maxIters = /* max number of iters in diag_cg2d */
(PID.TID 0000.0001)                     300
(PID.TID 0000.0001)     ;
(PID.TID 0000.0001)  diagCG_resTarget = /* residual target for diag_cg2d */
(PID.TID 0000.0001)                 1.000000000000000E-07
(PID.TID 0000.0001)     ;
(PID.TID 0000.0001)  diagCG_pcOffDFac = /* preconditioner off-diagonal factor */
(PID.TID 0000.0001)                 9.611687812379854E-01
(PID.TID 0000.0001)     ;
(PID.TID 0000.0001) -----------------------------------------------------
(PID.TID 0000.0001)  DIAGNOSTICS_READPARMS: active diagnostics summary:
(PID.TID 0000.0001) -----------------------------------------------------
(PID.TID 0000.0001) Creating Output Stream: surfDiag
(PID.TID 0000.0001) Output Frequency:       3600.000000 ; Phase:           0.000000
(PID.TID 0000.0001)  Averaging Freq.:       3600.000000 , Phase:           0.000000 , Cycle:   1
(PID.TID 0000.0001)  missing value: -9.990000000000E+02
(PID.TID 0000.0001)  Levels:    will be set later
(PID.TID 0000.0001)  Fields:    oceQnet  oceQsw   oceFWflx oceSflux oceTAUX  oceTAUY  THETA    SALT     UVEL     VVEL
(PID.TID 0000.0001) Creating Output Stream: iceDiag
(PID.TID 0000.0001) Output Frequency:       3600.000000 ; Phase:           0.000000
(PID.TID 0000.0001)  Averaging Freq.:       3600.000000 , Phase:           0.000000 , Cycle:   1
(PID.TID 0000.0001)  missing value: -9.990000000000E+02
(PID.TID 0000.0001)  Levels:    will be set later
(PID.TID 0000.0001)  Fields:    SIarea   SIheff   SIhsnow  sIceLoad SIuice   SIvice   SItaux   SItauy
(PID.TID 0000.0001) Creating Output Stream: iceNcat
(PID.TID 0000.0001) Output Frequency:       3600.000000 ; Phase:           0.000000
(PID.TID 0000.0001)  Averaging Freq.:       3600.000000 , Phase:           0.000000 , Cycle:   1
(PID.TID 0000.0001)  missing value: -9.990000000000E+02
(PID.TID 0000.0001)  Levels:    will be set later
(PID.TID 0000.0001)  Fields:    SIareaN  SIheffN  SIhsnowN
(PID.TID 0000.0001) -----------------------------------------------------
(PID.TID 0000.0001)  DIAGNOSTICS_READPARMS: statistics diags. summary:
(PID.TID 0000.0001) Creating Stats. Output Stream: iceStDiag
(PID.TID 0000.0001) Output Frequency:        900.000000 ; Phase:           0.000000
(PID.TID 0000.0001)  Regions:   0
(PID.TID 0000.0001)  Fields:    SIarea   SIheff   SIhsnow  sIceLoad SIuice   SIvice   SItaux   SItauy
(PID.TID 0000.0001) -----------------------------------------------------
(PID.TID 0000.0001) 
(PID.TID 0000.0001) SET_PARMS: done
(PID.TID 0000.0001) Enter INI_VERTICAL_GRID: setInterFDr=    T ; setCenterDr=    F
(PID.TID 0000.0001) tile:   4 ; Read from file tile001.mitgrid
(PID.TID 0000.0001)   => xC yC dxF dyF rA xG yG dxV dyU rAz dxC dyC rAw rAs dxG dyG
(PID.TID 0000.0001) %MON XC_max                       =   1.7997758946678E+02
(PID.TID 0000.0001) %MON XC_min                       =  -1.7998895680928E+02
(PID.TID 0000.0001) %MON XC_mean                      =  -6.8997670631350E+00
(PID.TID 0000.0001) %MON XC_sd                        =   1.0548127462941E+02
(PID.TID 0000.0001) %MON XG_max                       =   1.8000000000000E+02
(PID.TID 0000.0001) %MON XG_min                       =  -1.7999919444240E+02
(PID.TID 0000.0001) %MON XG_mean                      =  -6.3521159278861E+00
(PID.TID 0000.0001) %MON XG_sd                        =   1.0549598176576E+02
(PID.TID 0000.0001) %MON DXC_max                      =   1.1117680031365E+05
(PID.TID 0000.0001) %MON DXC_min                      =   1.3362789164732E+04
(PID.TID 0000.0001) %MON DXC_mean                     =   7.1345115143606E+04
(PID.TID 0000.0001) %MON DXC_sd                       =   2.6107013089865E+04
(PID.TID 0000.0001) %MON DXF_max                      =   1.1117680031365E+05
(PID.TID 0000.0001) %MON DXF_min                      =   1.3491575949394E+04
(PID.TID 0000.0001) %MON DXF_mean                     =   7.1334806791260E+04
(PID.TID 0000.0001) %MON DXF_sd                       =   2.6121349328995E+04
(PID.TID 0000.0001) %MON DXG_max                      =   1.1117747335204E+05
(PID.TID 0000.0001) %MON DXG_min                      =   1.0930409249570E+04
(PID.TID 0000.0001) %MON DXG_mean                     =   7.1313583950284E+04
(PID.TID 0000.0001) %MON DXG_sd                       =   2.6131714747840E+04
(PID.TID 0000.0001) %MON DXV_max                      =   1.1117747335204E+05
(PID.TID 0000.0001) %MON DXV_min                      =   9.4742518926426E+03
(PID.TID 0000.0001) %MON DXV_mean                     =   7.1323777998314E+04
(PID.TID 0000.0001) %MON DXV_sd                       =   2.6117603792432E+04
(PID.TID 0000.0001) %MON YC_max                       =   8.9739397429324E+01
(PID.TID 0000.0001) %MON YC_min                       =  -8.1637173529390E+01
(PID.TID 0000.0001) %MON YC_mean                      =  -5.9338515025079E-01
(PID.TID 0000.0001) %MON YC_sd                        =   5.1058908630085E+01
(PID.TID 0000.0001) %MON YG_max                       =   9.0000000000000E+01
(PID.TID 0000.0001) %MON YG_min                       =  -8.1805478609906E+01
(PID.TID 0000.0001) %MON YG_mean                      =  -5.7357831765458E-01
(PID.TID 0000.0001) %MON YG_sd                        =   5.1060174609345E+01
(PID.TID 0000.0001) %MON DYC_max                      =   1.1117680031365E+05
(PID.TID 0000.0001) %MON DYC_min                      =   1.3362789164732E+04
(PID.TID 0000.0001) %MON DYC_mean                     =   7.0982792089666E+04
(PID.TID 0000.0001) %MON DYC_sd                       =   2.6607387075348E+04
(PID.TID 0000.0001) %MON DYF_max                      =   1.1117680031365E+05
(PID.TID 0000.0001) %MON DYF_min                      =   1.3491575949394E+04
(PID.TID 0000.0001) %MON DYF_mean                     =   7.1000127494934E+04
(PID.TID 0000.0001) %MON DYF_sd                       =   2.6603606017547E+04
(PID.TID 0000.0001) %MON DYG_max                      =   1.1117747335204E+05
(PID.TID 0000.0001) %MON DYG_min                      =   1.0930409249570E+04
(PID.TID 0000.0001) %MON DYG_mean                     =   7.1022116512585E+04
(PID.TID 0000.0001) %MON DYG_sd                       =   2.6571715830406E+04
(PID.TID 0000.0001) %MON DYU_max                      =   1.1117747335204E+05
(PID.TID 0000.0001) %MON DYU_min                      =   9.4742518926426E+03
(PID.TID 0000.0001) %MON DYU_mean                     =   7.1004694583927E+04
(PID.TID 0000.0001) %MON DYU_sd                       =   2.6575655787476E+04
(PID.TID 0000.0001) %MON RA_max                       =   1.1896090857160E+10
(PID.TID 0000.0001) %MON RA_min                       =   2.1263387742345E+08
(PID.TID 0000.0001) %MON RA_mean                      =   5.6344293572480E+09
(PID.TID 0000.0001) %MON RA_sd                        =   3.5929461176606E+09
(PID.TID 0000.0001) %MON RAW_max                      =   1.1896090856781E+10
(PID.TID 0000.0001) %MON RAW_min                      =   1.7369571508711E+08
(PID.TID 0000.0001) %MON RAW_mean                     =   5.6355850434318E+09
(PID.TID 0000.0001) %MON RAW_sd                       =   3.5915487677190E+09
(PID.TID 0000.0001) %MON RAS_max                      =   1.1896090856781E+10
(PID.TID 0000.0001) %MON RAS_min                      =   1.7369571508711E+08
(PID.TID 0000.0001) %MON RAS_mean                     =   5.6320332286162E+09
(PID.TID 0000.0001) %MON RAS_sd                       =   3.5937184228135E+09
(PID.TID 0000.0001) %MON RAZ_max                      =   1.1891903479271E+10
(PID.TID 0000.0001) %MON RAZ_min                      =   1.0413402423292E+08
(PID.TID 0000.0001) %MON RAZ_mean                     =   5.6331824674695E+09
(PID.TID 0000.0001) %MON RAZ_sd                       =   3.5923307220197E+09
(PID.TID 0000.0001) %MON AngleCS_max                  =   1.0000000000000E+00
(PID.TID 0000.0001) %MON AngleCS_min                  =  -9.9996641938864E-01
(PID.TID 0000.0001) %MON AngleCS_mean                 =   4.0572930529500E-01
(PID.TID 0000.0001) %MON AngleCS_sd                   =   5.3874397836718E-01
(PID.TID 0000.0001) %MON AngleSN_max                  =   9.9996641938864E-01
(PID.TID 0000.0001) %MON AngleSN_min                  =  -1.0000000000000E+00
(PID.TID 0000.0001) %MON AngleSN_mean                 =  -4.9986154624599E-01
(PID.TID 0000.0001) %MON AngleSN_sd                   =   5.4339404779819E-01
(PID.TID 0000.0001)  MDS_READ_FIELD: opening global file: bathy.bin
(PID.TID 0000.0001) // =======================================================
(PID.TID 0000.0001) // Field Model R_low (ini_masks_etc)
(PID.TID 0000.0001) // CMIN =         -4.798482910156250E+03
(PID.TID 0000.0001) // CMAX =         -1.998999977111816E+01
(PID.TID 0000.0001) // CINT =          1.769812189031530E+02
(PID.TID 0000.0001) // SYMBOLS (CMIN->CMAX): -abcdefghijklmnopqrstuvwxyz+
(PID.TID 0000.0001) //                  0.0: .
(PID.TID 0000.0001) // RANGE I (Lo:Hi:Step):(    -3:    34:     1)
(PID.TID 0000.0001) // RANGE J (Lo:Hi:Step):(    34:    -3:    -1)
(PID.TID 0000.0001) // RANGE K (Lo:Hi:Step):(   1:   1:   1)
(PID.TID 0000.0001) // =======================================================
(PID.TID 0000.0001) K =   1
(PID.TID 0000.0001) //                I=6       I=16      I=26
(PID.TID 0000.0001) // |--J--|321012345|789012345|789012345|78901234
(PID.TID 0000.0001) //     34 ddccccbbbbbaaaaa--------------abdehjjh
(PID.TID 0000.0001) //     33 eddccccbbbbaaaaaaaaa---------abdefikmk
(PID.TID 0000.0001) //     32 eeddccccbbbbaaaaaaaaaaaaaa--abcfiijlnm
(PID.TID 0000.0001) //     31 eedddcccbbbbbaaaaabbaaaaaaa-bdgknm....
(PID.TID 0000.0001) //     30 feedddcccccbbbbbbbbbbbaaaaabfknpr.....
(PID.TID 0000.0001) //     29 feeddddddcccbbbcccbbbbbbbceilor.......
(PID.TID 0000.0001) //     28 gfeeeeeeddcccccdcccccbbceilnqu........
(PID.TID 0000.0001) //     27 hggfffffeeeeeddddddcccdfimpyy.........
(PID.TID 0000.0001) //     26 jihgggggffffeeeeeeddddfimsyy..........
(PID.TID 0000.0001) //     25 lkihhhgggggfeeeffeeefginuz............
(PID.TID 0000.0001) //     24 nmkjiihhghhgfffgggghjl+...............
(PID.TID 0000.0001) //     23 qonmkkjiiiiihhhihikmqz................
(PID.TID 0000.0001) //     22 tsqpnmlllmllkkkjknsxz.................
(PID.TID 0000.0001) //     21 wwvusppprrrponmlny+z..................
(PID.TID 0000.0001) //     20 yyyxxwvwwwwvusrwx.....................
(PID.TID 0000.0001) //     19 yyyyyyxxxxxxxxyyx.....................
(PID.TID 0000.0001) //     18 yyyyyyxxxwxxyyyyy.....................
(PID.TID 0000.0001) //     17 yyyyyxxxwwxxyyy.......................
(PID.TID 0000.0001) //     16 yyyxxxwwwwxyyyy.......................
(PID.TID 0000.0001) //     15 yyxxwwvvwxyyz.........................
(PID.TID 0000.0001) //     14 yxxwwvvvwyz...........................
(PID.TID 0000.0001) //     13 xxwwvuvwy.............................
(PID.TID 0000.0001) //     12 xwwvuuvx..............................
(PID.TID 0000.0001) //     11 yxvuuuw...............................
(PID.TID 0000.0001) //     10 ......................................
(PID.TID 0000.0001) //      9 ......................................
(PID.TID 0000.0001) //      8 ......................................
(PID.TID 0000.0001) //      7 ......................................
(PID.TID 0000.0001) //      6 ......................................
(PID.TID 0000.0001) //      5 ......................................
(PID.TID 0000.0001) //      4 ......................................
(PID.TID 0000.0001) //      3 ......................................
(PID.TID 0000.0001) //      2 ......................................
(PID.TID 0000.0001) //      1 ......................................
(PID.TID 0000.0001) //      0 ......................................
(PID.TID 0000.0001) //     -1 ......................................
(PID.TID 0000.0001) //     -2 ......................................
(PID.TID 0000.0001) //     -3 ......................................
(PID.TID 0000.0001) // =======================================================
(PID.TID 0000.0001) // END OF FIELD                                          =
(PID.TID 0000.0001) // =======================================================
(PID.TID 0000.0001) 
(PID.TID 0000.0001) // =======================================================
(PID.TID 0000.0001) // Field Model Ro_surf (ini_masks_etc)
(PID.TID 0000.0001) // CMIN =          1.000000000000000E+32
(PID.TID 0000.0001) // CMAX =         -1.000000000000000E+32
(PID.TID 0000.0001) // CINT =          0.000000000000000E+00
(PID.TID 0000.0001) // SYMBOLS (CMIN->CMAX): -abcdefghijklmnopqrstuvwxyz+
(PID.TID 0000.0001) //                  0.0: .
(PID.TID 0000.0001) // RANGE I (Lo:Hi:Step):(    -3:    34:     1)
(PID.TID 0000.0001) // RANGE J (Lo:Hi:Step):(    34:    -3:    -1)
(PID.TID 0000.0001) // RANGE K (Lo:Hi:Step):(   1:   1:   1)
(PID.TID 0000.0001) // =======================================================
(PID.TID 0000.0001) // =======================================================
(PID.TID 0000.0001) // END OF FIELD                                          =
(PID.TID 0000.0001) // =======================================================
(PID.TID 0000.0001) 
(PID.TID 0000.0001) // =======================================================
(PID.TID 0000.0001) // Field hFacC at iteration          0
(PID.TID 0000.0001) // CMIN =          1.000000000000000E+00
(PID.TID 0000.0001) // CMAX =          1.000000000000000E+00
(PID.TID 0000.0001) // CINT =          0.000000000000000E+00
(PID.TID 0000.0001) // SYMBOLS (CMIN->CMAX): -abcdefghijklmnopqrstuvwxyz+
(PID.TID 0000.0001) //                  0.0: .
(PID.TID 0000.0001) // RANGE I (Lo:Hi:Step):(    -3:    34:     1)
(PID.TID 0000.0001) // RANGE J (Lo:Hi:Step):(    34:    -3:    -1)
(PID.TID 0000.0001) // RANGE K (Lo:Hi:Step):(   1:   1:   1)
(PID.TID 0000.0001) // =======================================================
(PID.TID 0000.0001) // =======================================================
(PID.TID 0000.0001) // END OF FIELD                                          =
(PID.TID 0000.0001) // =======================================================
(PID.TID 0000.0001) 
(PID.TID 0000.0001) // =======================================================
(PID.TID 0000.0001) // Field hFacW at iteration          0
(PID.TID 0000.0001) // CMIN =          1.000000000000000E+00
(PID.TID 0000.0001) // CMAX =          1.000000000000000E+00
(PID.TID 0000.0001) // CINT =          0.000000000000000E+00
(PID.TID 0000.0001) // SYMBOLS (CMIN->CMAX): -abcdefghijklmnopqrstuvwxyz+
(PID.TID 0000.0001) //                  0.0: .
(PID.TID 0000.0001) // RANGE I (Lo:Hi:Step):(    -3:    34:     1)
(PID.TID 0000.0001) // RANGE J (Lo:Hi:Step):(    34:    -3:    -1)
(PID.TID 0000.0001) // RANGE K (Lo:Hi:Step):(   1:   1:   1)
(PID.TID 0000.0001) // =======================================================
(PID.TID 0000.0001) // =======================================================
(PID.TID 0000.0001) // END OF FIELD                                          =
(PID.TID 0000.0001) // =======================================================
(PID.TID 0000.0001) 
(PID.TID 0000.0001) // =======================================================
(PID.TID 0000.0001) // Field hFacS at iteration          0
(PID.TID 0000.0001) // CMIN =          1.000000000000000E+00
(PID.TID 0000.0001) // CMAX =          1.000000000000000E+00
(PID.TID 0000.0001) // CINT =          0.000000000000000E+00
(PID.TID 0000.0001) // SYMBOLS (CMIN->CMAX): -abcdefghijklmnopqrstuvwxyz+
(PID.TID 0000.0001) //                  0.0: .
(PID.TID 0000.0001) // RANGE I (Lo:Hi:Step):(    -3:    34:     1)
(PID.TID 0000.0001) // RANGE J (Lo:Hi:Step):(    34:    -3:    -1)
(PID.TID 0000.0001) // RANGE K (Lo:Hi:Step):(   1:   1:   1)
(PID.TID 0000.0001) // =======================================================
(PID.TID 0000.0001) // =======================================================
(PID.TID 0000.0001) // END OF FIELD                                          =
(PID.TID 0000.0001) // =======================================================
(PID.TID 0000.0001) 
(PID.TID 0000.0001) GAD_INIT_FIXED: GAD_OlMinSize=  2  0  2
(PID.TID 0000.0001) 
(PID.TID 0000.0001) // ===================================
(PID.TID 0000.0001) // GAD parameters :
(PID.TID 0000.0001) // ===================================
(PID.TID 0000.0001) tempAdvScheme =   /* Temp. Horiz.Advection scheme selector */
(PID.TID 0000.0001)                      77
(PID.TID 0000.0001)     ;
(PID.TID 0000.0001) tempVertAdvScheme =   /* Temp. Vert. Advection scheme selector */
(PID.TID 0000.0001)                      77
(PID.TID 0000.0001)     ;
(PID.TID 0000.0001) tempMultiDimAdvec =   /* use Muti-Dim Advec method for Temp */
(PID.TID 0000.0001)                   T
(PID.TID 0000.0001)     ;
(PID.TID 0000.0001) tempSOM_Advection = /* use 2nd Order Moment Advection for Temp */
(PID.TID 0000.0001)                   F
(PID.TID 0000.0001)     ;
(PID.TID 0000.0001) AdamsBashforthGt = /* apply Adams-Bashforth extrapolation on Gt */
(PID.TID 0000.0001)                   F
(PID.TID 0000.0001)     ;
(PID.TID 0000.0001) AdamsBashforth_T = /* apply Adams-Bashforth extrapolation on Temp */
(PID.TID 0000.0001)                   F
(PID.TID 0000.0001)     ;
(PID.TID 0000.0001) saltAdvScheme =   /* Salt. Horiz.advection scheme selector */
(PID.TID 0000.0001)                      77
(PID.TID 0000.0001)     ;
(PID.TID 0000.0001) saltVertAdvScheme =   /* Salt. Vert. Advection scheme selector */
(PID.TID 0000.0001)                      77
(PID.TID 0000.0001)     ;
(PID.TID 0000.0001) saltMultiDimAdvec =   /* use Muti-Dim Advec method for Salt */
(PID.TID 0000.0001)                   T
(PID.TID 0000.0001)     ;
(PID.TID 0000.0001) saltSOM_Advection = /* use 2nd Order Moment Advection for Salt */
(PID.TID 0000.0001)                   F
(PID.TID 0000.0001)     ;
(PID.TID 0000.0001) AdamsBashforthGs = /* apply Adams-Bashforth extrapolation on Gs */
(PID.TID 0000.0001)                   F
(PID.TID 0000.0001)     ;
(PID.TID 0000.0001) AdamsBashforth_S = /* apply Adams-Bashforth extrapolation on Salt */
(PID.TID 0000.0001)                   F
(PID.TID 0000.0001)     ;
(PID.TID 0000.0001) // ===================================
(PID.TID 0000.0001)  MDS_READ_FIELD: opening global file: viscA4Dfld.bin
(PID.TID 0000.0001)  MDS_READ_FIELD: opening global file: viscA4Zfld.bin
(PID.TID 0000.0001)  SEAICE_INIT_FIXED:  5 sea ice thickness categories
(PID.TID 0000.0001)  SEAICE_INIT_FIXED: Hlimit =   0.00  0.64  1.39  2.47  4.57 999.9
(PID.TID 0000.0001) // =======================================================
(PID.TID 0000.0001) // Seaice configuration (SEAICE_PARM01) >>> START <<<
(PID.TID 0000.0001) // =======================================================
(PID.TID 0000.0001) 
(PID.TID 0000.0001)    Seaice time stepping configuration   > START <
(PID.TID 0000.0001)    ----------------------------------------------
(PID.TID 0000.0001) SEAICE_deltaTtherm= /* thermodynamic timestep */
(PID.TID 0000.0001)                 9.000000000000000E+02
(PID.TID 0000.0001)     ;
(PID.TID 0000.0001) SEAICE_deltaTdyn  = /* dynamic timestep */
(PID.TID 0000.0001)                 9.000000000000000E+02
(PID.TID 0000.0001)     ;
(PID.TID 0000.0001) SEAICE_deltaTevp  = /* EVP timestep */
(PID.TID 0000.0001)                 1.234567000000000E+05
(PID.TID 0000.0001)     ;
(PID.TID 0000.0001) SEAICEuseBDF2  = /* use backw. differencing for mom. eq. */
(PID.TID 0000.0001)                   F
(PID.TID 0000.0001)     ;
(PID.TID 0000.0001) SEAICEupdateOceanStress= /* update Ocean surf. stress */
(PID.TID 0000.0001)                   T
(PID.TID 0000.0001)     ;
(PID.TID 0000.0001) SEAICErestoreUnderIce  = /* restore T and S under ice */
(PID.TID 0000.0001)                   F
(PID.TID 0000.0001)     ;
(PID.TID 0000.0001) 
(PID.TID 0000.0001)    Seaice dynamics configuration   > START <
(PID.TID 0000.0001)    ------------------------------------------
(PID.TID 0000.0001) SEAICEuseDYNAMICS = /* use dynamics */
(PID.TID 0000.0001)                   T
(PID.TID 0000.0001)     ;
(PID.TID 0000.0001) model grid type   = /* type of sea ice model grid */
(PID.TID 0000.0001)               'C-GRID'
(PID.TID 0000.0001)     ;
(PID.TID 0000.0001) SEAICEuseStrImpCpl = /* use strongly implicit coupling */
(PID.TID 0000.0001)                   F
(PID.TID 0000.0001)     ;
(PID.TID 0000.0001) SEAICEusePicardAsPrecon = /* Picard as preconditioner */
(PID.TID 0000.0001)                   F
(PID.TID 0000.0001)     ;
(PID.TID 0000.0001) SEAICEuseLSR      = /* use default Picard-LSR solver */
(PID.TID 0000.0001)                   T
(PID.TID 0000.0001)     ;
(PID.TID 0000.0001) SEAICEuseKrylov   = /* use Picard-Krylov solver */
(PID.TID 0000.0001)                   F
(PID.TID 0000.0001)     ;
(PID.TID 0000.0001) SEAICEuseEVP      = /* use EVP solver rather than LSR */
(PID.TID 0000.0001)                   F
(PID.TID 0000.0001)     ;
(PID.TID 0000.0001) SEAICEuseJFNK     = /* use JFNK solver */
(PID.TID 0000.0001)                   F
(PID.TID 0000.0001)     ;
(PID.TID 0000.0001) OCEAN_drag        = /* air-ocean drag coefficient */
(PID.TID 0000.0001)                 8.154100000000000E-04
(PID.TID 0000.0001)     ;
(PID.TID 0000.0001) SEAICE_drag       = /* air-ice drag coefficient */
(PID.TID 0000.0001)                 2.000000000000000E-03
(PID.TID 0000.0001)     ;
(PID.TID 0000.0001) SEAICE_drag_south      = /* Southern Ocean SEAICE_drag */
(PID.TID 0000.0001)                 2.000000000000000E-03
(PID.TID 0000.0001)     ;
(PID.TID 0000.0001) SEAICE_waterDrag  = /* water-ice drag * density */
(PID.TID 0000.0001)                 5.350800000000000E+00
(PID.TID 0000.0001)     ;
(PID.TID 0000.0001) SEAICE_waterDrag_south = /* Southern Ocean waterDrag */
(PID.TID 0000.0001)                 5.350800000000000E+00
(PID.TID 0000.0001)     ;
(PID.TID 0000.0001) SEAICEuseTilt     = /* include surface tilt in dyna. */
(PID.TID 0000.0001)                   T
(PID.TID 0000.0001)     ;
(PID.TID 0000.0001) SEAICEuseTEM      = /* use truncated ellipse rheology */
(PID.TID 0000.0001)                   F
(PID.TID 0000.0001)     ;
(PID.TID 0000.0001) SEAICE_strength   = /* sea-ice strength Pstar */
(PID.TID 0000.0001)                 2.678000000000000E+04
(PID.TID 0000.0001)     ;
(PID.TID 0000.0001) SEAICE_cStar      = /* sea-ice strength parameter cStar */
(PID.TID 0000.0001)                 2.000000000000000E+01
(PID.TID 0000.0001)     ;
(PID.TID 0000.0001) SEAICEpressReplFac= /* press. replacement method factor */
(PID.TID 0000.0001)                 1.000000000000000E+00
(PID.TID 0000.0001)     ;
(PID.TID 0000.0001) SEAICE_tensilFac  = /* sea-ice tensile strength factor */
(PID.TID 0000.0001)                 0.000000000000000E+00
(PID.TID 0000.0001)     ;
(PID.TID 0000.0001) SEAICE_tensilDepth= /* crit. depth for tensile strength */
(PID.TID 0000.0001)                 0.000000000000000E+00
(PID.TID 0000.0001)     ;
(PID.TID 0000.0001) SEAICEpresH0   = /* sea-ice strength Heff threshold */
(PID.TID 0000.0001)                 1.000000000000000E+00
(PID.TID 0000.0001)     ;
(PID.TID 0000.0001) SEAICEpresPow0 = /* exponent for Heff<SEAICEpresH0 */
(PID.TID 0000.0001)                       1
(PID.TID 0000.0001)     ;
(PID.TID 0000.0001) SEAICEpresPow1 = /* exponent for Heff>SEAICEpresH0 */
(PID.TID 0000.0001)                       1
(PID.TID 0000.0001)     ;
(PID.TID 0000.0001) SEAICEetaZmethod = /* method computing eta at Z-point */
(PID.TID 0000.0001)                       0
(PID.TID 0000.0001)     ;
(PID.TID 0000.0001) SEAICE_zetaMin    = /* lower bound for viscosity */
(PID.TID 0000.0001)                 0.000000000000000E+00
(PID.TID 0000.0001)     ;
(PID.TID 0000.0001) SEAICE_eccen    = /* elliptical yield curve eccent */
(PID.TID 0000.0001)                 2.000000000000000E+00
(PID.TID 0000.0001)     ;
(PID.TID 0000.0001) SEAICEstressFactor    = /* wind stress scaling factor */
(PID.TID 0000.0001)                 1.000000000000000E+00
(PID.TID 0000.0001)     ;
(PID.TID 0000.0001) SEAICE_airTurnAngle    = /* air-ice turning angle */
(PID.TID 0000.0001)                 0.000000000000000E+00
(PID.TID 0000.0001)     ;
(PID.TID 0000.0001) SEAICE_waterTurnAngle  = /* ice-water turning angle */
(PID.TID 0000.0001)                 0.000000000000000E+00
(PID.TID 0000.0001)     ;
(PID.TID 0000.0001) SEAICEuseMetricTerms = /* use metric terms */
(PID.TID 0000.0001)                   T
(PID.TID 0000.0001)     ;
(PID.TID 0000.0001) SEAICE_no_slip    = /* no slip boundary conditions */
(PID.TID 0000.0001)                   F
(PID.TID 0000.0001)     ;
(PID.TID 0000.0001) SEAICE_2ndOrderBC = /* 2nd order no slip boundary conditions */
(PID.TID 0000.0001)                   F
(PID.TID 0000.0001)     ;
(PID.TID 0000.0001) SEAICE_clipVeloctities = /* impose max. vels. */
(PID.TID 0000.0001)                   F
(PID.TID 0000.0001)     ;
(PID.TID 0000.0001) useHB87stressCoupling  = /* altern. ice-ocean stress */
(PID.TID 0000.0001)                   F
(PID.TID 0000.0001)     ;
(PID.TID 0000.0001) SEAICEscaleSurfStress  = /* scale atm. and ocean-surface stress with AREA */
(PID.TID 0000.0001)                   F
(PID.TID 0000.0001)     ;
(PID.TID 0000.0001) SEAICE_maskRHS    = /* mask RHS of solver */
(PID.TID 0000.0001)                   F
(PID.TID 0000.0001)     ;
(PID.TID 0000.0001) SEAICEaddSnowMass = /* add snow mass to seaiceMassC/U/V */
(PID.TID 0000.0001)                   F
(PID.TID 0000.0001)     ;
(PID.TID 0000.0001) LSR_mixIniGuess = /* mix free-drift sol. into LSR initial Guess */
(PID.TID 0000.0001)                      -1
(PID.TID 0000.0001)     ;
(PID.TID 0000.0001) SEAICE_LSRrelaxU  = /* LSR solver: relaxation parameter */
(PID.TID 0000.0001)                 9.500000000000000E-01
(PID.TID 0000.0001)     ;
(PID.TID 0000.0001) SEAICE_LSRrelaxV  = /* LSR solver: relaxation parameter */
(PID.TID 0000.0001)                 9.500000000000000E-01
(PID.TID 0000.0001)     ;
(PID.TID 0000.0001) LSR_ERROR         = /* sets accuracy of LSR solver */
(PID.TID 0000.0001)                 1.000000000000000E-12
(PID.TID 0000.0001)     ;
(PID.TID 0000.0001) SOLV_NCHECK       = /* test interval for LSR solver */
(PID.TID 0000.0001)                       2
(PID.TID 0000.0001)     ;
(PID.TID 0000.0001) SEAICEuseMultiTileSolver = /* use full domain tri-diag solver */
(PID.TID 0000.0001)                   F
(PID.TID 0000.0001)     ;
(PID.TID 0000.0001) SEAICE_OLx = /* overlap for LSR/preconditioner */
(PID.TID 0000.0001)                       0
(PID.TID 0000.0001)     ;
(PID.TID 0000.0001) SEAICE_OLy = /* overlap for LSR/preconditioner */
(PID.TID 0000.0001)                       0
(PID.TID 0000.0001)     ;
(PID.TID 0000.0001) SEAICEnonLinIterMax = /* max. number of nonlinear solver steps */
(PID.TID 0000.0001)                       2
(PID.TID 0000.0001)     ;
(PID.TID 0000.0001) SEAICElinearIterMax = /* max. number of linear solver steps */
(PID.TID 0000.0001)                    1500
(PID.TID 0000.0001)     ;
(PID.TID 0000.0001) SEAICEnonLinTol     = /* non-linear solver tolerance */
(PID.TID 0000.0001)                 0.000000000000000E+00
(PID.TID 0000.0001)     ;
(PID.TID 0000.0001) 
(PID.TID 0000.0001)    Seaice advection diffusion config,   > START <
(PID.TID 0000.0001)    -----------------------------------------------
(PID.TID 0000.0001) SEAICEmomAdvection = /* advect sea ice momentum */
(PID.TID 0000.0001)                   F
(PID.TID 0000.0001)     ;
(PID.TID 0000.0001) SEAICEadvHeff = /* advect effective ice thickness */
(PID.TID 0000.0001)                   T
(PID.TID 0000.0001)     ;
(PID.TID 0000.0001) SEAICEadvArea = /* advect fractional ice area */
(PID.TID 0000.0001)                   T
(PID.TID 0000.0001)     ;
(PID.TID 0000.0001) SEAICEadvSnow = /* advect snow layer together with ice */
(PID.TID 0000.0001)                   T
(PID.TID 0000.0001)     ;
(PID.TID 0000.0001) SEAICEadvScheme   = /* advection scheme for ice */
(PID.TID 0000.0001)                      77
(PID.TID 0000.0001)     ;
(PID.TID 0000.0001) SEAICEadvSchArea   = /* advection scheme for area */
(PID.TID 0000.0001)                      77
(PID.TID 0000.0001)     ;
(PID.TID 0000.0001) SEAICEadvSchHeff   = /* advection scheme for thickness */
(PID.TID 0000.0001)                      77
(PID.TID 0000.0001)     ;
(PID.TID 0000.0001) SEAICEadvSchSnow   = /* advection scheme for snow */
(PID.TID 0000.0001)                      77
(PID.TID 0000.0001)     ;
(PID.TID 0000.0001) SEAICEdiffKhArea   = /* diffusivity (m^2/s) for area */
(PID.TID 0000.0001)                 0.000000000000000E+00
(PID.TID 0000.0001)     ;
(PID.TID 0000.0001) SEAICEdiffKhHeff   = /* diffusivity (m^2/s) for heff */
(PID.TID 0000.0001)                 0.000000000000000E+00
(PID.TID 0000.0001)     ;
(PID.TID 0000.0001) SEAICEdiffKhSnow   = /* diffusivity (m^2/s) for snow */
(PID.TID 0000.0001)                 0.000000000000000E+00
(PID.TID 0000.0001)     ;
(PID.TID 0000.0001) DIFF1             = /* parameter used in advect.F [m/s] */
(PID.TID 0000.0001)                 0.000000000000000E+00
(PID.TID 0000.0001)     ;
(PID.TID 0000.0001) 
(PID.TID 0000.0001)    Seaice thermodynamics configuration   > START <
(PID.TID 0000.0001)    -----------------------------------------------
(PID.TID 0000.0001) SEAICE_rhoIce     = /* density of sea ice (kg/m3) */
(PID.TID 0000.0001)                 9.100000000000000E+02
(PID.TID 0000.0001)     ;
(PID.TID 0000.0001) SEAICE_rhoSnow    = /* density of snow (kg/m3) */
(PID.TID 0000.0001)                 3.300000000000000E+02
(PID.TID 0000.0001)     ;
(PID.TID 0000.0001) SEAICE_rhoAir     = /* density of air (kg/m3) */
(PID.TID 0000.0001)                 1.300000000000000E+00
(PID.TID 0000.0001)     ;
(PID.TID 0000.0001) usePW79thermodynamics  = /* default 0-layer TD */
(PID.TID 0000.0001)                   F
(PID.TID 0000.0001)     ;
(PID.TID 0000.0001)    pkg/seaice thermodynamics is OFF
(PID.TID 0000.0001) 
(PID.TID 0000.0001)    Seaice initialization and IO config.,   > START <
(PID.TID 0000.0001)    -------------------------------------------------
(PID.TID 0000.0001) SEAICE_initialHEFF= /* initial sea-ice thickness */
(PID.TID 0000.0001)                 0.000000000000000E+00
(PID.TID 0000.0001)     ;
(PID.TID 0000.0001) AreaFile = /* Initial ice concentration File */
(PID.TID 0000.0001)               'const100.bin'
(PID.TID 0000.0001)     ;
(PID.TID 0000.0001) HeffFile = /* Initial effective ice thickness File */
(PID.TID 0000.0001)               'const+20.bin'
(PID.TID 0000.0001)     ;
(PID.TID 0000.0001) HsnowFile = /* Initial snow thickness File */
(PID.TID 0000.0001)               'const_00.bin'
(PID.TID 0000.0001)     ;
(PID.TID 0000.0001) uIceFile = /* Initial U-ice velocity File */
(PID.TID 0000.0001)               ''
(PID.TID 0000.0001)     ;
(PID.TID 0000.0001) vIceFile = /* Initial V-ice velocity File */
(PID.TID 0000.0001)               ''
(PID.TID 0000.0001)     ;
(PID.TID 0000.0001) SEAICEwriteState  = /* write sea ice state to file */
(PID.TID 0000.0001)                   T
(PID.TID 0000.0001)     ;
(PID.TID 0000.0001) SEAICE_monFreq  = /* monitor frequency */
(PID.TID 0000.0001)                 7.200000000000000E+03
(PID.TID 0000.0001)     ;
(PID.TID 0000.0001) SEAICE_dumpFreq   = /* dump frequency */
(PID.TID 0000.0001)                 0.000000000000000E+00
(PID.TID 0000.0001)     ;
(PID.TID 0000.0001) SEAICE_taveFreq   = /* time-averaging frequency */
(PID.TID 0000.0001)                 0.000000000000000E+00
(PID.TID 0000.0001)     ;
(PID.TID 0000.0001) SEAICE_mon_stdio  = /* write monitor to std-outp */
(PID.TID 0000.0001)                   T
(PID.TID 0000.0001)     ;
(PID.TID 0000.0001) SEAICE_dump_mdsio = /* write snap-shot   using MDSIO */
(PID.TID 0000.0001)                   T
(PID.TID 0000.0001)     ;
(PID.TID 0000.0001) SEAICE_tave_mdsio = /* write TimeAverage using MDSIO */
(PID.TID 0000.0001)                   T
(PID.TID 0000.0001)     ;
(PID.TID 0000.0001) 
(PID.TID 0000.0001)    Seaice regularization numbers,   > START <
(PID.TID 0000.0001)    -----------------------------------------------
(PID.TID 0000.0001) SEAICE_deltaMin   = /* reduce singularities in Delta */
(PID.TID 0000.0001)                 1.000000000000000E-10
(PID.TID 0000.0001)     ;
(PID.TID 0000.0001) SEAICE_EPS        = /* small number */
(PID.TID 0000.0001)                 1.000000000000000E-10
(PID.TID 0000.0001)     ;
(PID.TID 0000.0001) SEAICE_EPS_SQ     = /* small number squared */
(PID.TID 0000.0001)                 1.000000000000000E-20
(PID.TID 0000.0001)     ;
(PID.TID 0000.0001) SEAICE_area_reg   = /* reduce derivative singularities */
(PID.TID 0000.0001)                 1.000000000000000E-05
(PID.TID 0000.0001)     ;
(PID.TID 0000.0001) SEAICE_hice_reg   = /* reduce derivative singularities */
(PID.TID 0000.0001)                 5.000000000000000E-02
(PID.TID 0000.0001)     ;
(PID.TID 0000.0001) SEAICE_area_floor = /* reduce derivative singularities */
(PID.TID 0000.0001)                 1.000000000000000E-05
(PID.TID 0000.0001)     ;
(PID.TID 0000.0001) 
(PID.TID 0000.0001) // =======================================================
(PID.TID 0000.0001) // Seaice configuration (SEAICE_PARM01) >>> END <<<
(PID.TID 0000.0001) // =======================================================
(PID.TID 0000.0001) 
(PID.TID 0000.0001) CTRL_INIT_REC: Getting record indices for
(PID.TID 0000.0001) CTRL_INIT_REC: Record indices for :
(PID.TID 0000.0001) CTRL_INIT_REC: startrec =          1, endrec =          1
(PID.TID 0000.0001) CTRL_INIT_REC: Getting record indices for
(PID.TID 0000.0001) CTRL_INIT_REC: Record indices for :
(PID.TID 0000.0001) CTRL_INIT_REC: startrec =          1, endrec =          1
(PID.TID 0000.0001) CTRL_INIT_REC: Getting record indices for
(PID.TID 0000.0001) CTRL_INIT_REC: Record indices for :
(PID.TID 0000.0001) CTRL_INIT_REC: startrec =          1, endrec =          1
(PID.TID 0000.0001) CTRL_INIT_REC: Getting record indices for
(PID.TID 0000.0001) CTRL_INIT_REC: Record indices for :
(PID.TID 0000.0001) CTRL_INIT_REC: startrec =          1, endrec =          1
(PID.TID 0000.0001) CTRL_INIT_REC: Getting record indices for
(PID.TID 0000.0001) CTRL_INIT_REC: Record indices for :
(PID.TID 0000.0001) CTRL_INIT_REC: startrec =          1, endrec =          1
(PID.TID 0000.0001) CTRL_INIT_REC: Getting record indices for
(PID.TID 0000.0001) CTRL_INIT_REC: Record indices for :
(PID.TID 0000.0001) CTRL_INIT_REC: startrec =          1, endrec =          1
(PID.TID 0000.0001) CTRL_INIT_REC: Getting record indices for
(PID.TID 0000.0001) CTRL_INIT_REC: Record indices for :
(PID.TID 0000.0001) CTRL_INIT_REC: startrec =          1, endrec =          1
(PID.TID 0000.0001) CTRL_INIT_REC: Getting record indices for
(PID.TID 0000.0001) CTRL_INIT_REC: Record indices for :
(PID.TID 0000.0001) CTRL_INIT_REC: startrec =          1, endrec =          1
(PID.TID 0000.0001) ctrl-wet 1:    nvarlength =        34632
(PID.TID 0000.0001) ctrl-wet 2: surface wet C =          312
(PID.TID 0000.0001) ctrl-wet 3: surface wet W =          312
(PID.TID 0000.0001) ctrl-wet 4: surface wet S =          283
(PID.TID 0000.0001) ctrl-wet 4a:surface wet V =            0
(PID.TID 0000.0001) ctrl-wet 5: 3D wet points =        11544
(PID.TID 0000.0001) ctrl-wet 6: no recs for i =     1           0
(PID.TID 0000.0001) ctrl-wet 6: no recs for i =     2           0
(PID.TID 0000.0001) ctrl-wet 6: no recs for i =     3           0
(PID.TID 0000.0001) ctrl-wet 6: no recs for i =     4           0
(PID.TID 0000.0001) ctrl-wet 6: no recs for i =     5           0
(PID.TID 0000.0001) ctrl-wet 6: no recs for i =     6           0
(PID.TID 0000.0001) ctrl-wet 6: no recs for i =     7           0
(PID.TID 0000.0001) ctrl-wet 6: no recs for i =     8           0
(PID.TID 0000.0001) ctrl-wet 6: no recs for i =     9           0
(PID.TID 0000.0001) ctrl-wet 6: no recs for i =    10           0
(PID.TID 0000.0001) ctrl-wet 6: no recs for i =    11           0
(PID.TID 0000.0001) ctrl-wet 6: no recs for i =    12           0
(PID.TID 0000.0001) ctrl-wet 6: no recs for i =    13           0
(PID.TID 0000.0001) ctrl-wet 6: no recs for i =    14           0
(PID.TID 0000.0001) ctrl-wet 6: no recs for i =    15           0
(PID.TID 0000.0001) ctrl-wet 6: no recs for i =    16           0
(PID.TID 0000.0001) ctrl-wet 6: no recs for i =    17           0
(PID.TID 0000.0001) ctrl-wet 6: no recs for i =    18           0
(PID.TID 0000.0001) ctrl-wet 6: no recs for i =    19           0
(PID.TID 0000.0001) ctrl-wet 6: no recs for i =    20           0
(PID.TID 0000.0001) ctrl-wet 6: no recs for i =    21           0
(PID.TID 0000.0001) ctrl-wet 6: no recs for i =    22           0
(PID.TID 0000.0001) ctrl-wet 6: no recs for i =    23           0
(PID.TID 0000.0001) ctrl-wet 6: no recs for i =    24           0
(PID.TID 0000.0001) ctrl-wet 6: no recs for i =    25           0
(PID.TID 0000.0001) ctrl-wet 6: no recs for i =    26           0
(PID.TID 0000.0001) ctrl-wet 6: no recs for i =    27           0
(PID.TID 0000.0001) ctrl-wet 6: no recs for i =    28           0
(PID.TID 0000.0001) ctrl-wet 6: no recs for i =    29           0
(PID.TID 0000.0001) ctrl-wet 6: no recs for i =    30           0
(PID.TID 0000.0001) ctrl-wet 6: no recs for i =    31           0
(PID.TID 0000.0001) ctrl-wet 6: no recs for i =    32           0
(PID.TID 0000.0001) ctrl-wet 6: no recs for i =    33           0
(PID.TID 0000.0001) ctrl-wet 6: no recs for i =    34           0
(PID.TID 0000.0001) ctrl-wet 6: no recs for i =    35           0
(PID.TID 0000.0001) ctrl-wet 6: no recs for i =    36           0
(PID.TID 0000.0001) ctrl-wet 6: no recs for i =    37           0
(PID.TID 0000.0001) ctrl-wet 6: no recs for i =    38           0
(PID.TID 0000.0001) ctrl-wet 6: no recs for i =    39           0
(PID.TID 0000.0001) ctrl-wet 6: no recs for i =    40           0
(PID.TID 0000.0001) ctrl-wet 6: no recs for i =    41           0
(PID.TID 0000.0001) ctrl-wet 6: no recs for i =    42           0
(PID.TID 0000.0001) ctrl-wet 6: no recs for i =    43           0
(PID.TID 0000.0001) ctrl-wet 6: no recs for i =    44           0
(PID.TID 0000.0001) ctrl-wet 6: no recs for i =    45           0
(PID.TID 0000.0001) ctrl-wet 6: no recs for i =    46           0
(PID.TID 0000.0001) ctrl-wet 6: no recs for i =    47           0
(PID.TID 0000.0001) ctrl-wet 6: no recs for i =    48           0
(PID.TID 0000.0001) ctrl-wet 6: no recs for i =    49           0
(PID.TID 0000.0001) ctrl-wet 6: no recs for i =    50           0
(PID.TID 0000.0001) ctrl-wet 6: no recs for i =    51           0
(PID.TID 0000.0001) ctrl-wet 6: no recs for i =    52           0
(PID.TID 0000.0001) ctrl-wet 6: no recs for i =    53           0
(PID.TID 0000.0001) ctrl-wet 6: no recs for i =    54           0
(PID.TID 0000.0001) ctrl-wet 6: no recs for i =    55           0
(PID.TID 0000.0001) ctrl-wet 6: no recs for i =    56           0
(PID.TID 0000.0001) ctrl-wet 6: no recs for i =    57           0
(PID.TID 0000.0001) ctrl-wet 6: no recs for i =    58           0
(PID.TID 0000.0001) ctrl-wet 6: no recs for i =    59           0
(PID.TID 0000.0001) ctrl-wet 6: no recs for i =    60           0
(PID.TID 0000.0001) ctrl-wet 6: no recs for i =    61           0
(PID.TID 0000.0001) ctrl-wet 6: no recs for i =    62           0
(PID.TID 0000.0001) ctrl-wet 6: no recs for i =    63           0
(PID.TID 0000.0001) ctrl-wet 6: no recs for i =    64           0
(PID.TID 0000.0001) ctrl-wet 6: no recs for i =    65           0
(PID.TID 0000.0001) ctrl-wet 6: no recs for i =    66           0
(PID.TID 0000.0001) ctrl-wet 6: no recs for i =    67           0
(PID.TID 0000.0001) ctrl-wet 6: no recs for i =    68           0
(PID.TID 0000.0001) ctrl-wet 6: no recs for i =    69           0
(PID.TID 0000.0001) ctrl-wet 6: no recs for i =    70           0
(PID.TID 0000.0001) ctrl-wet 6: no recs for i =    71           0
(PID.TID 0000.0001) ctrl-wet 6: no recs for i =    72           0
(PID.TID 0000.0001) ctrl-wet 6: no recs for i =    73           0
(PID.TID 0000.0001) ctrl-wet 6: no recs for i =    74           0
(PID.TID 0000.0001) ctrl-wet 6: no recs for i =    75           0
(PID.TID 0000.0001) ctrl-wet 6: no recs for i =    76           0
(PID.TID 0000.0001) ctrl-wet 6: no recs for i =    77           0
(PID.TID 0000.0001) ctrl-wet 6: no recs for i =    78           0
(PID.TID 0000.0001) ctrl-wet 6: no recs for i =    79           0
(PID.TID 0000.0001) ctrl-wet 6: no recs for i =    80           0
(PID.TID 0000.0001) ctrl-wet 6: no recs for i =    81           0
(PID.TID 0000.0001) ctrl-wet 6: no recs for i =    82           0
(PID.TID 0000.0001) ctrl-wet 6: no recs for i =    83           0
(PID.TID 0000.0001) ctrl-wet 6: no recs for i =    84           0
(PID.TID 0000.0001) ctrl-wet 6: no recs for i =    85           0
(PID.TID 0000.0001) ctrl-wet 6: no recs for i =    86           0
(PID.TID 0000.0001) ctrl-wet 6: no recs for i =    87           0
(PID.TID 0000.0001) ctrl-wet 6: no recs for i =    88           0
(PID.TID 0000.0001) ctrl-wet 6: no recs for i =    89           0
(PID.TID 0000.0001) ctrl-wet 6: no recs for i =    90           0
(PID.TID 0000.0001) ctrl-wet 6: no recs for i =    91           0
(PID.TID 0000.0001) ctrl-wet 6: no recs for i =    92           0
(PID.TID 0000.0001) ctrl-wet 6: no recs for i =    93           0
(PID.TID 0000.0001) ctrl-wet 6: no recs for i =    94           0
(PID.TID 0000.0001) ctrl-wet 6: no recs for i =    95           0
(PID.TID 0000.0001) ctrl-wet 6: no recs for i =    96           0
(PID.TID 0000.0001) ctrl-wet 6: no recs for i =    97           0
(PID.TID 0000.0001) ctrl-wet 6: no recs for i =    98           0
(PID.TID 0000.0001) ctrl-wet 6: no recs for i =    99           0
(PID.TID 0000.0001) ctrl-wet 6: no recs for i =   100           0
(PID.TID 0000.0001) ctrl-wet 6: no recs for i =   101           0
(PID.TID 0000.0001) ctrl-wet 6: no recs for i =   102           0
(PID.TID 0000.0001) ctrl-wet 6: no recs for i =   103           0
(PID.TID 0000.0001) ctrl-wet 6: no recs for i =   104           0
(PID.TID 0000.0001) ctrl-wet 6: no recs for i =   105           0
(PID.TID 0000.0001) ctrl-wet 6: no recs for i =   106           0
(PID.TID 0000.0001) ctrl-wet 6: no recs for i =   107           0
(PID.TID 0000.0001) ctrl-wet 6: no recs for i =   108           0
(PID.TID 0000.0001) ctrl-wet 6: no recs for i =   109           0
(PID.TID 0000.0001) ctrl-wet 6: no recs for i =   110           0
(PID.TID 0000.0001) ctrl-wet 6: no recs for i =   111           0
(PID.TID 0000.0001) ctrl-wet 6: no recs for i =   112           0
(PID.TID 0000.0001) ctrl-wet 6: no recs for i =   113           0
(PID.TID 0000.0001) ctrl-wet 6: no recs for i =   114           0
(PID.TID 0000.0001) ctrl-wet 6: no recs for i =   115           0
(PID.TID 0000.0001) ctrl-wet 6: no recs for i =   116           0
(PID.TID 0000.0001) ctrl-wet 6: no recs for i =   117           0
(PID.TID 0000.0001) ctrl-wet 6: no recs for i =   118           0
(PID.TID 0000.0001) ctrl-wet 6: no recs for i =   119           0
(PID.TID 0000.0001) ctrl-wet 6: no recs for i =   120           0
(PID.TID 0000.0001) ctrl-wet 6: no recs for i =   121           0
(PID.TID 0000.0001) ctrl-wet 6: no recs for i =   122           0
(PID.TID 0000.0001) ctrl-wet 6: no recs for i =   123           0
(PID.TID 0000.0001) ctrl-wet 6: no recs for i =   124           0
(PID.TID 0000.0001) ctrl-wet 6: no recs for i =   125           0
(PID.TID 0000.0001) ctrl-wet 6: no recs for i =   126           0
(PID.TID 0000.0001) ctrl-wet 6: no recs for i =   127           0
(PID.TID 0000.0001) ctrl-wet 6: no recs for i =   128           0
(PID.TID 0000.0001) ctrl-wet 6: no recs for i =   129           0
(PID.TID 0000.0001) ctrl-wet 6: no recs for i =   130           0
(PID.TID 0000.0001) ctrl-wet 6: no recs for i =   131           0
(PID.TID 0000.0001) ctrl-wet 6: no recs for i =   132           0
(PID.TID 0000.0001) ctrl-wet 6: no recs for i =   133           0
(PID.TID 0000.0001) ctrl-wet 6: no recs for i =   134           0
(PID.TID 0000.0001) ctrl-wet 6: no recs for i =   135           0
(PID.TID 0000.0001) ctrl-wet 6: no recs for i =   136           0
(PID.TID 0000.0001) ctrl-wet 6: no recs for i =   137           0
(PID.TID 0000.0001) ctrl-wet 6: no recs for i =   138           0
(PID.TID 0000.0001) ctrl-wet 6: no recs for i =   139           0
(PID.TID 0000.0001) ctrl-wet 6: no recs for i =   140           0
(PID.TID 0000.0001) ctrl-wet 6: no recs for i =   141           0
(PID.TID 0000.0001) ctrl-wet 6: no recs for i =   142           0
(PID.TID 0000.0001) ctrl-wet 6: no recs for i =   143           0
(PID.TID 0000.0001) ctrl-wet 6: no recs for i =   144           0
(PID.TID 0000.0001) ctrl-wet 6: no recs for i =   145           0
(PID.TID 0000.0001) ctrl-wet 6: no recs for i =   146           0
(PID.TID 0000.0001) ctrl-wet 6: no recs for i =   147           0
(PID.TID 0000.0001) ctrl-wet 6: no recs for i =   148           0
(PID.TID 0000.0001) ctrl-wet 6: no recs for i =   149           0
(PID.TID 0000.0001) ctrl-wet 6: no recs for i =   150           0
(PID.TID 0000.0001) ctrl-wet 6: no recs for i =   151           0
(PID.TID 0000.0001) ctrl-wet 6: no recs for i =   152           0
(PID.TID 0000.0001) ctrl-wet 6: no recs for i =   153           0
(PID.TID 0000.0001) ctrl-wet 6: no recs for i =   154           0
(PID.TID 0000.0001) ctrl-wet 6: no recs for i =   155           0
(PID.TID 0000.0001) ctrl-wet 6: no recs for i =   156           0
(PID.TID 0000.0001) ctrl-wet 6: no recs for i =   157           0
(PID.TID 0000.0001) ctrl-wet 6: no recs for i =   158           0
(PID.TID 0000.0001) ctrl-wet 6: no recs for i =   159           0
(PID.TID 0000.0001) ctrl-wet 6: no recs for i =   160           0
(PID.TID 0000.0001) ctrl-wet 6: no recs for i =   161           0
(PID.TID 0000.0001) ctrl-wet 6: no recs for i =   162           0
(PID.TID 0000.0001) ctrl-wet 6: no recs for i =   163           0
(PID.TID 0000.0001) ctrl-wet 6: no recs for i =   164           0
(PID.TID 0000.0001) ctrl-wet 6: no recs for i =   165           0
(PID.TID 0000.0001) ctrl-wet 6: no recs for i =   166           0
(PID.TID 0000.0001) ctrl-wet 6: no recs for i =   167           0
(PID.TID 0000.0001) ctrl-wet 6: no recs for i =   168           0
(PID.TID 0000.0001) ctrl-wet 6: no recs for i =   169           0
(PID.TID 0000.0001) ctrl-wet 6: no recs for i =   170           0
(PID.TID 0000.0001) ctrl-wet 6: no recs for i =   171           0
(PID.TID 0000.0001) ctrl-wet 6: no recs for i =   172           0
(PID.TID 0000.0001) ctrl-wet 6: no recs for i =   173           0
(PID.TID 0000.0001) ctrl-wet 6: no recs for i =   174           0
(PID.TID 0000.0001) ctrl-wet 6: no recs for i =   175           0
(PID.TID 0000.0001) ctrl-wet 6: no recs for i =   176           0
(PID.TID 0000.0001) ctrl-wet 6: no recs for i =   177           0
(PID.TID 0000.0001) ctrl-wet 6: no recs for i =   178           0
(PID.TID 0000.0001) ctrl-wet 6: no recs for i =   179           0
(PID.TID 0000.0001) ctrl-wet 6: no recs for i =   180           0
(PID.TID 0000.0001) ctrl-wet 6: no recs for i =   181           0
(PID.TID 0000.0001) ctrl-wet 6: no recs for i =   182           0
(PID.TID 0000.0001) ctrl-wet 6: no recs for i =   183           0
(PID.TID 0000.0001) ctrl-wet 6: no recs for i =   184           0
(PID.TID 0000.0001) ctrl-wet 6: no recs for i =   185           0
(PID.TID 0000.0001) ctrl-wet 6: no recs for i =   186           0
(PID.TID 0000.0001) ctrl-wet 6: no recs for i =   187           0
(PID.TID 0000.0001) ctrl-wet 6: no recs for i =   188           0
(PID.TID 0000.0001) ctrl-wet 6: no recs for i =   189           0
(PID.TID 0000.0001) ctrl-wet 6: no recs for i =   190           0
(PID.TID 0000.0001) ctrl-wet 6: no recs for i =   191           0
(PID.TID 0000.0001) ctrl-wet 6: no recs for i =   192           0
(PID.TID 0000.0001) ctrl-wet 6: no recs for i =   193           0
(PID.TID 0000.0001) ctrl-wet 6: no recs for i =   194           0
(PID.TID 0000.0001) ctrl-wet 6: no recs for i =   195           0
(PID.TID 0000.0001) ctrl-wet 6: no recs for i =   196           0
(PID.TID 0000.0001) ctrl-wet 6: no recs for i =   197           0
(PID.TID 0000.0001) ctrl-wet 6: no recs for i =   198           0
(PID.TID 0000.0001) ctrl-wet 6: no recs for i =   199           0
(PID.TID 0000.0001) ctrl-wet 6: no recs for i =   200           0
(PID.TID 0000.0001) ctrl-wet 6: no recs for i =   201           1
(PID.TID 0000.0001) ctrl-wet 6: no recs for i =   202           1
(PID.TID 0000.0001) ctrl-wet 6: no recs for i =   203           1
(PID.TID 0000.0001) ctrl-wet 6: no recs for i =   204           0
(PID.TID 0000.0001) ctrl-wet 6: no recs for i =   205           0
(PID.TID 0000.0001) ctrl-wet 6: no recs for i =   206           0
(PID.TID 0000.0001) ctrl-wet 6: no recs for i =   207           0
(PID.TID 0000.0001) ctrl-wet 6: no recs for i =   208           0
(PID.TID 0000.0001) ctrl-wet 6: no recs for i =   209           0
(PID.TID 0000.0001) ctrl-wet 6: no recs for i =   210           0
(PID.TID 0000.0001) ctrl-wet 6: no recs for i =   211           0
(PID.TID 0000.0001) ctrl-wet 6: no recs for i =   212           0
(PID.TID 0000.0001) ctrl-wet 6: no recs for i =   213           0
(PID.TID 0000.0001) ctrl-wet 6: no recs for i =   214           0
(PID.TID 0000.0001) ctrl-wet 6: no recs for i =   215           0
(PID.TID 0000.0001) ctrl-wet 6: no recs for i =   216           0
(PID.TID 0000.0001) ctrl-wet 6: no recs for i =   217           0
(PID.TID 0000.0001) ctrl-wet 6: no recs for i =   218           0
(PID.TID 0000.0001) ctrl-wet 6: no recs for i =   219           0
(PID.TID 0000.0001) ctrl-wet 6: no recs for i =   220           0
(PID.TID 0000.0001) ctrl-wet 6: no recs for i =   221           0
(PID.TID 0000.0001) ctrl-wet 6: no recs for i =   222           0
(PID.TID 0000.0001) ctrl-wet 6: no recs for i =   223           0
(PID.TID 0000.0001) ctrl-wet 6: no recs for i =   224           0
(PID.TID 0000.0001) ctrl-wet 6: no recs for i =   225           0
(PID.TID 0000.0001) ctrl-wet 6: no recs for i =   226           0
(PID.TID 0000.0001) ctrl-wet 6: no recs for i =   227           0
(PID.TID 0000.0001) ctrl-wet 6: no recs for i =   228           0
(PID.TID 0000.0001) ctrl-wet 6: no recs for i =   229           0
(PID.TID 0000.0001) ctrl-wet 6: no recs for i =   230           0
(PID.TID 0000.0001) ctrl-wet 6: no recs for i =   231           0
(PID.TID 0000.0001) ctrl-wet 6: no recs for i =   232           0
(PID.TID 0000.0001) ctrl-wet 6: no recs for i =   233           0
(PID.TID 0000.0001) ctrl-wet 6: no recs for i =   234           0
(PID.TID 0000.0001) ctrl-wet 6: no recs for i =   235           0
(PID.TID 0000.0001) ctrl-wet 6: no recs for i =   236           0
(PID.TID 0000.0001) ctrl-wet 6: no recs for i =   237           0
(PID.TID 0000.0001) ctrl-wet 6: no recs for i =   238           0
(PID.TID 0000.0001) ctrl-wet 6: no recs for i =   239           0
(PID.TID 0000.0001) ctrl-wet 6: no recs for i =   240           0
(PID.TID 0000.0001) ctrl-wet 6: no recs for i =   241           0
(PID.TID 0000.0001) ctrl-wet 6: no recs for i =   242           0
(PID.TID 0000.0001) ctrl-wet 6: no recs for i =   243           0
(PID.TID 0000.0001) ctrl-wet 6: no recs for i =   244           0
(PID.TID 0000.0001) ctrl-wet 6: no recs for i =   245           0
(PID.TID 0000.0001) ctrl-wet 6: no recs for i =   246           0
(PID.TID 0000.0001) ctrl-wet 6: no recs for i =   247           0
(PID.TID 0000.0001) ctrl-wet 6: no recs for i =   248           0
(PID.TID 0000.0001) ctrl-wet 6: no recs for i =   249           0
(PID.TID 0000.0001) ctrl-wet 6: no recs for i =   250           0
(PID.TID 0000.0001) ctrl-wet 6: no recs for i =   251           0
(PID.TID 0000.0001) ctrl-wet 6: no recs for i =   252           0
(PID.TID 0000.0001) ctrl-wet 6: no recs for i =   253           0
(PID.TID 0000.0001) ctrl-wet 6: no recs for i =   254           0
(PID.TID 0000.0001) ctrl-wet 6: no recs for i =   255           0
(PID.TID 0000.0001) ctrl-wet 6: no recs for i =   256           0
(PID.TID 0000.0001) ctrl-wet 6: no recs for i =   257           0
(PID.TID 0000.0001) ctrl-wet 6: no recs for i =   258           0
(PID.TID 0000.0001) ctrl-wet 6: no recs for i =   259           0
(PID.TID 0000.0001) ctrl-wet 6: no recs for i =   260           0
(PID.TID 0000.0001) ctrl-wet 6: no recs for i =   261           0
(PID.TID 0000.0001) ctrl-wet 6: no recs for i =   262           0
(PID.TID 0000.0001) ctrl-wet 6: no recs for i =   263           0
(PID.TID 0000.0001) ctrl-wet 6: no recs for i =   264           0
(PID.TID 0000.0001) ctrl-wet 6: no recs for i =   265           0
(PID.TID 0000.0001) ctrl-wet 6: no recs for i =   266           0
(PID.TID 0000.0001) ctrl-wet 6: no recs for i =   267           0
(PID.TID 0000.0001) ctrl-wet 6: no recs for i =   268           0
(PID.TID 0000.0001) ctrl-wet 6: no recs for i =   269           0
(PID.TID 0000.0001) ctrl-wet 6: no recs for i =   270           0
(PID.TID 0000.0001) ctrl-wet 6: no recs for i =   271           0
(PID.TID 0000.0001) ctrl-wet 6: no recs for i =   272           0
(PID.TID 0000.0001) ctrl-wet 6: no recs for i =   273           0
(PID.TID 0000.0001) ctrl-wet 6: no recs for i =   274           0
(PID.TID 0000.0001) ctrl-wet 6: no recs for i =   275           0
(PID.TID 0000.0001) ctrl-wet 6: no recs for i =   276           0
(PID.TID 0000.0001) ctrl-wet 6: no recs for i =   277           0
(PID.TID 0000.0001) ctrl-wet 6: no recs for i =   278           0
(PID.TID 0000.0001) ctrl-wet 6: no recs for i =   279           0
(PID.TID 0000.0001) ctrl-wet 6: no recs for i =   280           0
(PID.TID 0000.0001) ctrl-wet 6: no recs for i =   281           0
(PID.TID 0000.0001) ctrl-wet 6: no recs for i =   282           0
(PID.TID 0000.0001) ctrl-wet 6: no recs for i =   283           0
(PID.TID 0000.0001) ctrl-wet 6: no recs for i =   284           0
(PID.TID 0000.0001) ctrl-wet 6: no recs for i =   285           0
(PID.TID 0000.0001) ctrl-wet 6: no recs for i =   286           0
(PID.TID 0000.0001) ctrl-wet 6: no recs for i =   287           0
(PID.TID 0000.0001) ctrl-wet 6: no recs for i =   288           0
(PID.TID 0000.0001) ctrl-wet 6: no recs for i =   289           0
(PID.TID 0000.0001) ctrl-wet 6: no recs for i =   290           0
(PID.TID 0000.0001) ctrl-wet 6: no recs for i =   291           0
(PID.TID 0000.0001) ctrl-wet 6: no recs for i =   292           0
(PID.TID 0000.0001) ctrl-wet 6: no recs for i =   293           0
(PID.TID 0000.0001) ctrl-wet 6: no recs for i =   294           0
(PID.TID 0000.0001) ctrl-wet 6: no recs for i =   295           0
(PID.TID 0000.0001) ctrl-wet 6: no recs for i =   296           0
(PID.TID 0000.0001) ctrl-wet 6: no recs for i =   297           0
(PID.TID 0000.0001) ctrl-wet 6: no recs for i =   298           0
(PID.TID 0000.0001) ctrl-wet 6: no recs for i =   299           0
(PID.TID 0000.0001) ctrl-wet 6: no recs for i =   300           0
(PID.TID 0000.0001) ctrl-wet 6: no recs for i =   301           0
(PID.TID 0000.0001) ctrl-wet 6: no recs for i =   302           0
(PID.TID 0000.0001) ctrl-wet 6: no recs for i =   303           0
(PID.TID 0000.0001) ctrl-wet 6: no recs for i =   304           0
(PID.TID 0000.0001) ctrl-wet 6: no recs for i =   305           0
(PID.TID 0000.0001) ctrl-wet 6: no recs for i =   306           0
(PID.TID 0000.0001) ctrl-wet 6: no recs for i =   307           0
(PID.TID 0000.0001) ctrl-wet 6: no recs for i =   308           0
(PID.TID 0000.0001) ctrl-wet 6: no recs for i =   309           0
(PID.TID 0000.0001) ctrl-wet 6: no recs for i =   310           0
(PID.TID 0000.0001) ctrl-wet 6: no recs for i =   311           0
(PID.TID 0000.0001) ctrl-wet 6: no recs for i =   312           0
(PID.TID 0000.0001) ctrl-wet 6: no recs for i =   313           0
(PID.TID 0000.0001) ctrl-wet 6: no recs for i =   314           0
(PID.TID 0000.0001) ctrl-wet 6: no recs for i =   315           0
(PID.TID 0000.0001) ctrl-wet 6: no recs for i =   316           0
(PID.TID 0000.0001) ctrl-wet 6: no recs for i =   317           0
(PID.TID 0000.0001) ctrl-wet 6: no recs for i =   318           0
(PID.TID 0000.0001) ctrl-wet 6: no recs for i =   319           0
(PID.TID 0000.0001) ctrl-wet 6: no recs for i =   320           0
(PID.TID 0000.0001) ctrl-wet 6: no recs for i =   321           0
(PID.TID 0000.0001) ctrl-wet 6: no recs for i =   322           0
(PID.TID 0000.0001) ctrl-wet 6: no recs for i =   323           0
(PID.TID 0000.0001) ctrl-wet 6: no recs for i =   324           0
(PID.TID 0000.0001) ctrl-wet 6: no recs for i =   325           0
(PID.TID 0000.0001) ctrl-wet 6: no recs for i =   326           0
(PID.TID 0000.0001) ctrl-wet 6: no recs for i =   327           0
(PID.TID 0000.0001) ctrl-wet 6: no recs for i =   328           0
(PID.TID 0000.0001) ctrl-wet 6: no recs for i =   329           0
(PID.TID 0000.0001) ctrl-wet 6: no recs for i =   330           0
(PID.TID 0000.0001) ctrl-wet 6: no recs for i =   331           0
(PID.TID 0000.0001) ctrl-wet 6: no recs for i =   332           0
(PID.TID 0000.0001) ctrl-wet 6: no recs for i =   333           0
(PID.TID 0000.0001) ctrl-wet 6: no recs for i =   334           0
(PID.TID 0000.0001) ctrl-wet 6: no recs for i =   335           0
(PID.TID 0000.0001) ctrl-wet 6: no recs for i =   336           0
(PID.TID 0000.0001) ctrl-wet 6: no recs for i =   337           0
(PID.TID 0000.0001) ctrl-wet 6: no recs for i =   338           0
(PID.TID 0000.0001) ctrl-wet 6: no recs for i =   339           0
(PID.TID 0000.0001) ctrl-wet 6: no recs for i =   340           0
(PID.TID 0000.0001) ctrl-wet 6: no recs for i =   341           0
(PID.TID 0000.0001) ctrl-wet 6: no recs for i =   342           0
(PID.TID 0000.0001) ctrl-wet 6: no recs for i =   343           0
(PID.TID 0000.0001) ctrl-wet 6: no recs for i =   344           0
(PID.TID 0000.0001) ctrl-wet 6: no recs for i =   345           0
(PID.TID 0000.0001) ctrl-wet 6: no recs for i =   346           0
(PID.TID 0000.0001) ctrl-wet 6: no recs for i =   347           0
(PID.TID 0000.0001) ctrl-wet 6: no recs for i =   348           0
(PID.TID 0000.0001) ctrl-wet 6: no recs for i =   349           0
(PID.TID 0000.0001) ctrl-wet 6: no recs for i =   350           0
(PID.TID 0000.0001) ctrl-wet 6: no recs for i =   351           0
(PID.TID 0000.0001) ctrl-wet 6: no recs for i =   352           0
(PID.TID 0000.0001) ctrl-wet 6: no recs for i =   353           0
(PID.TID 0000.0001) ctrl-wet 6: no recs for i =   354           0
(PID.TID 0000.0001) ctrl-wet 6: no recs for i =   355           0
(PID.TID 0000.0001) ctrl-wet 6: no recs for i =   356           0
(PID.TID 0000.0001) ctrl-wet 6: no recs for i =   357           0
(PID.TID 0000.0001) ctrl-wet 6: no recs for i =   358           0
(PID.TID 0000.0001) ctrl-wet 6: no recs for i =   359           0
(PID.TID 0000.0001) ctrl-wet 6: no recs for i =   360           0
(PID.TID 0000.0001) ctrl-wet 6: no recs for i =   361           0
(PID.TID 0000.0001) ctrl-wet 6: no recs for i =   362           0
(PID.TID 0000.0001) ctrl-wet 6: no recs for i =   363           0
(PID.TID 0000.0001) ctrl-wet 6: no recs for i =   364           0
(PID.TID 0000.0001) ctrl-wet 6: no recs for i =   365           0
(PID.TID 0000.0001) ctrl-wet 6: no recs for i =   366           0
(PID.TID 0000.0001) ctrl-wet 6: no recs for i =   367           0
(PID.TID 0000.0001) ctrl-wet 6: no recs for i =   368           0
(PID.TID 0000.0001) ctrl-wet 6: no recs for i =   369           0
(PID.TID 0000.0001) ctrl-wet 6: no recs for i =   370           0
(PID.TID 0000.0001) ctrl-wet 6: no recs for i =   371           0
(PID.TID 0000.0001) ctrl-wet 6: no recs for i =   372           0
(PID.TID 0000.0001) ctrl-wet 6: no recs for i =   373           0
(PID.TID 0000.0001) ctrl-wet 6: no recs for i =   374           0
(PID.TID 0000.0001) ctrl-wet 6: no recs for i =   375           0
(PID.TID 0000.0001) ctrl-wet 6: no recs for i =   376           0
(PID.TID 0000.0001) ctrl-wet 6: no recs for i =   377           0
(PID.TID 0000.0001) ctrl-wet 6: no recs for i =   378           0
(PID.TID 0000.0001) ctrl-wet 6: no recs for i =   379           0
(PID.TID 0000.0001) ctrl-wet 6: no recs for i =   380           0
(PID.TID 0000.0001) ctrl-wet 6: no recs for i =   381           0
(PID.TID 0000.0001) ctrl-wet 6: no recs for i =   382           0
(PID.TID 0000.0001) ctrl-wet 6: no recs for i =   383           0
(PID.TID 0000.0001) ctrl-wet 6: no recs for i =   384           0
(PID.TID 0000.0001) ctrl-wet 6: no recs for i =   385           0
(PID.TID 0000.0001) ctrl-wet 6: no recs for i =   386           0
(PID.TID 0000.0001) ctrl-wet 6: no recs for i =   387           0
(PID.TID 0000.0001) ctrl-wet 6: no recs for i =   388           0
(PID.TID 0000.0001) ctrl-wet 6: no recs for i =   389           0
(PID.TID 0000.0001) ctrl-wet 6: no recs for i =   390           0
(PID.TID 0000.0001) ctrl-wet 6: no recs for i =   391           0
(PID.TID 0000.0001) ctrl-wet 6: no recs for i =   392           0
(PID.TID 0000.0001) ctrl-wet 6: no recs for i =   393           0
(PID.TID 0000.0001) ctrl-wet 6: no recs for i =   394           0
(PID.TID 0000.0001) ctrl-wet 6: no recs for i =   395           0
(PID.TID 0000.0001) ctrl-wet 6: no recs for i =   396           0
(PID.TID 0000.0001) ctrl-wet 6: no recs for i =   397           0
(PID.TID 0000.0001) ctrl-wet 6: no recs for i =   398           0
(PID.TID 0000.0001) ctrl-wet 6: no recs for i =   399           0
(PID.TID 0000.0001) ctrl-wet 6: no recs for i =   400           0
(PID.TID 0000.0001) ctrl-wet 7: flux         23088
(PID.TID 0000.0001) ctrl-wet 8: atmos        23088
(PID.TID 0000.0001) ctrl-wet -------------------------------------------------
(PID.TID 0000.0001) ctrl-wet 13: global nvarlength for Nr =   50     7220976
(PID.TID 0000.0001) ctrl-wet -------------------------------------------------
(PID.TID 0000.0001) ctrl-wet 14: global nWet C/S/W/V k=    1       60646       59295       59493           0
(PID.TID 0000.0001) ctrl-wet 14: global nWet C/S/W/V k=    2       60646       59295       59493           0
(PID.TID 0000.0001) ctrl-wet 14: global nWet C/S/W/V k=    3       59874       58517       58725           0
(PID.TID 0000.0001) ctrl-wet 14: global nWet C/S/W/V k=    4       59387       58040       58258           0
(PID.TID 0000.0001) ctrl-wet 14: global nWet C/S/W/V k=    5       58882       57536       57754           0
(PID.TID 0000.0001) ctrl-wet 14: global nWet C/S/W/V k=    6       58399       57057       57276           0
(PID.TID 0000.0001) ctrl-wet 14: global nWet C/S/W/V k=    7       58052       56735       56936           0
(PID.TID 0000.0001) ctrl-wet 14: global nWet C/S/W/V k=    8       57781       56461       56669           0
(PID.TID 0000.0001) ctrl-wet 14: global nWet C/S/W/V k=    9       57530       56212       56416           0
(PID.TID 0000.0001) ctrl-wet 14: global nWet C/S/W/V k=   10       57283       55964       56154           0
(PID.TID 0000.0001) ctrl-wet 14: global nWet C/S/W/V k=   11       57022       55702       55883           0
(PID.TID 0000.0001) ctrl-wet 14: global nWet C/S/W/V k=   12       56818       55497       55681           0
(PID.TID 0000.0001) ctrl-wet 14: global nWet C/S/W/V k=   13       56634       55322       55509           0
(PID.TID 0000.0001) ctrl-wet 14: global nWet C/S/W/V k=   14       56430       55125       55312           0
(PID.TID 0000.0001) ctrl-wet 14: global nWet C/S/W/V k=   15       56238       54935       55117           0
(PID.TID 0000.0001) ctrl-wet 14: global nWet C/S/W/V k=   16       55975       54689       54858           0
(PID.TID 0000.0001) ctrl-wet 14: global nWet C/S/W/V k=   17       55703       54421       54600           0
(PID.TID 0000.0001) ctrl-wet 14: global nWet C/S/W/V k=   18       55358       54075       54251           0
(PID.TID 0000.0001) ctrl-wet 14: global nWet C/S/W/V k=   19       54964       53666       53853           0
(PID.TID 0000.0001) ctrl-wet 14: global nWet C/S/W/V k=   20       54471       53205       53372           0
(PID.TID 0000.0001) ctrl-wet 14: global nWet C/S/W/V k=   21       53952       52716       52877           0
(PID.TID 0000.0001) ctrl-wet 14: global nWet C/S/W/V k=   22       53489       52249       52409           0
(PID.TID 0000.0001) ctrl-wet 14: global nWet C/S/W/V k=   23       52892       51633       51797           0
(PID.TID 0000.0001) ctrl-wet 14: global nWet C/S/W/V k=   24       52223       50961       51129           0
(PID.TID 0000.0001) ctrl-wet 14: global nWet C/S/W/V k=   25       51696       50480       50635           0
(PID.TID 0000.0001) ctrl-wet 14: global nWet C/S/W/V k=   26       51259       50075       50241           0
(PID.TID 0000.0001) ctrl-wet 14: global nWet C/S/W/V k=   27       50929       49774       49935           0
(PID.TID 0000.0001) ctrl-wet 14: global nWet C/S/W/V k=   28       50664       49532       49678           0
(PID.TID 0000.0001) ctrl-wet 14: global nWet C/S/W/V k=   29       50438       49306       49450           0
(PID.TID 0000.0001) ctrl-wet 14: global nWet C/S/W/V k=   30       50187       49035       49179           0
(PID.TID 0000.0001) ctrl-wet 14: global nWet C/S/W/V k=   31       49964       48805       48937           0
(PID.TID 0000.0001) ctrl-wet 14: global nWet C/S/W/V k=   32       49700       48530       48662           0
(PID.TID 0000.0001) ctrl-wet 14: global nWet C/S/W/V k=   33       49431       48260       48383           0
(PID.TID 0000.0001) ctrl-wet 14: global nWet C/S/W/V k=   34       49176       47993       48108           0
(PID.TID 0000.0001) ctrl-wet 14: global nWet C/S/W/V k=   35       48854       47652       47764           0
(PID.TID 0000.0001) ctrl-wet 14: global nWet C/S/W/V k=   36       48501       47264       47375           0
(PID.TID 0000.0001) ctrl-wet 14: global nWet C/S/W/V k=   37       48098       46846       46951           0
(PID.TID 0000.0001) ctrl-wet 14: global nWet C/S/W/V k=   38       47523       46253       46362           0
(PID.TID 0000.0001) ctrl-wet 14: global nWet C/S/W/V k=   39       46849       45558       45657           0
(PID.TID 0000.0001) ctrl-wet 14: global nWet C/S/W/V k=   40       45984       44670       44751           0
(PID.TID 0000.0001) ctrl-wet 14: global nWet C/S/W/V k=   41       44793       43419       43459           0
(PID.TID 0000.0001) ctrl-wet 14: global nWet C/S/W/V k=   42       42984       41497       41533           0
(PID.TID 0000.0001) ctrl-wet 14: global nWet C/S/W/V k=   43       40302       38691       38718           0
(PID.TID 0000.0001) ctrl-wet 14: global nWet C/S/W/V k=   44       36689       35007       35032           0
(PID.TID 0000.0001) ctrl-wet 14: global nWet C/S/W/V k=   45       31681       30069       29999           0
(PID.TID 0000.0001) ctrl-wet 14: global nWet C/S/W/V k=   46       25595       24028       24031           0
(PID.TID 0000.0001) ctrl-wet 14: global nWet C/S/W/V k=   47       18224       16890       16872           0
(PID.TID 0000.0001) ctrl-wet 14: global nWet C/S/W/V k=   48       11407       10397       10351           0
(PID.TID 0000.0001) ctrl-wet 14: global nWet C/S/W/V k=   49        4597        3913        3912           0
(PID.TID 0000.0001) ctrl-wet 14: global nWet C/S/W/V k=   50         818         624         622           0
(PID.TID 0000.0001) ctrl-wet -------------------------------------------------
(PID.TID 0000.0001) ctrl-wet -------------------------------------------------
(PID.TID 0000.0001) ctrl-wet -------------------------------------------------
(PID.TID 0000.0001) ctrl_init: no. of control variables:            3
(PID.TID 0000.0001) ctrl_init: control vector length:         7220976
(PID.TID 0000.0001) 
(PID.TID 0000.0001) // =======================================================
(PID.TID 0000.0001) // control vector configuration  >>> START <<<
(PID.TID 0000.0001) // =======================================================
(PID.TID 0000.0001) 
(PID.TID 0000.0001)  Total number of ocean points per tile:
(PID.TID 0000.0001)  --------------------------------------
(PID.TID 0000.0001)  snx*sny*nr =    45000
(PID.TID 0000.0001) 
(PID.TID 0000.0001)  Number of ocean points per tile:
(PID.TID 0000.0001)  --------------------------------
(PID.TID 0000.0001)  bi,bj,#(c/s/w): 0001 0001 011544 010207 011460
(PID.TID 0000.0001) 
(PID.TID 0000.0001)  Settings of generic controls:
(PID.TID 0000.0001)  -----------------------------
(PID.TID 0000.0001) 
(PID.TID 0000.0001)  ctrlUseGen  =     T /* use generic controls */
(PID.TID 0000.0001)  -> 3d control, genarr3d no.  1 is in use
(PID.TID 0000.0001)       file       = xx_kapgm
(PID.TID 0000.0001)       weight     = wt_ones.data
(PID.TID 0000.0001)  -> 3d control, genarr3d no.  2 is in use
(PID.TID 0000.0001)       file       = xx_kapredi
(PID.TID 0000.0001)       weight     = wt_ones.data
(PID.TID 0000.0001)  -> 3d control, genarr3d no.  3 is in use
(PID.TID 0000.0001)       file       = xx_diffkr
(PID.TID 0000.0001)       weight     = wt_ones.data
(PID.TID 0000.0001) 
(PID.TID 0000.0001) // =======================================================
(PID.TID 0000.0001) // control vector configuration  >>> END <<<
(PID.TID 0000.0001) // =======================================================
(PID.TID 0000.0001) 
(PID.TID 0000.0001) ------------------------------------------------------------
(PID.TID 0000.0001) DIAGNOSTICS_SET_LEVELS: done
(PID.TID 0000.0001)  Total Nb of available Diagnostics: ndiagt=   300
(PID.TID 0000.0001)  write list of available Diagnostics to file: available_diagnostics.log
(PID.TID 0000.0001) SETDIAG: Allocate  1 x  1 Levels for Diagnostic #    86 oceQnet
(PID.TID 0000.0001) SETDIAG: Allocate  1 x  1 Levels for Diagnostic #    87 oceQsw
(PID.TID 0000.0001) SETDIAG: Allocate  1 x  1 Levels for Diagnostic #    84 oceFWflx
(PID.TID 0000.0001) SETDIAG: Allocate  1 x  1 Levels for Diagnostic #    85 oceSflux
(PID.TID 0000.0001) SETDIAG: Allocate  1 x  1 Levels for Diagnostic #    80 oceTAUX
(PID.TID 0000.0001) SETDIAG: Allocate  1 x  1 Levels for Diagnostic #    81 oceTAUY
(PID.TID 0000.0001) SETDIAG: Allocate 50 x  1 Levels for Diagnostic #    26 THETA
(PID.TID 0000.0001) SETDIAG: Allocate 50 x  1 Levels for Diagnostic #    27 SALT
(PID.TID 0000.0001) SETDIAG: Allocate 50 x  1 Levels for Diagnostic #    30 UVEL
(PID.TID 0000.0001) SETDIAG: Allocate 50 x  1 Levels for Diagnostic #    31 VVEL
(PID.TID 0000.0001) SETDIAG: Allocate  1 x  1 Levels for Diagnostic #   214 SIarea
(PID.TID 0000.0001) SETDIAG: Allocate  1 x  1 Levels for Diagnostic #   217 SIheff
(PID.TID 0000.0001) SETDIAG: Allocate  1 x  1 Levels for Diagnostic #   219 SIhsnow
(PID.TID 0000.0001) SETDIAG: Allocate  1 x  1 Levels for Diagnostic #    83 sIceLoad
(PID.TID 0000.0001) SETDIAG: Allocate  1 x  1 Levels for Diagnostic #   223 SIuice
(PID.TID 0000.0001) SETDIAG: Allocate  1 x  1 Levels for Diagnostic #   224 SIvice
(PID.TID 0000.0001) SETDIAG: Allocate  1 x  1 Levels for Diagnostic #   225 SItaux
(PID.TID 0000.0001) SETDIAG: Allocate  1 x  1 Levels for Diagnostic #   226 SItauy
(PID.TID 0000.0001) SETDIAG: Allocate  5 x  1 Levels for Diagnostic #   285 SIareaN
(PID.TID 0000.0001) SETDIAG: Allocate  5 x  1 Levels for Diagnostic #   284 SIheffN
(PID.TID 0000.0001) SETDIAG: Allocate  5 x  1 Levels for Diagnostic #   286 SIhsnowN
(PID.TID 0000.0001)   space allocated for all diagnostics:     229 levels
(PID.TID 0000.0001)   set mate pointer for diag #    80  oceTAUX  , Parms: UU      U1 , mate:    81
(PID.TID 0000.0001)   set mate pointer for diag #    81  oceTAUY  , Parms: VV      U1 , mate:    80
(PID.TID 0000.0001)   set mate pointer for diag #    30  UVEL     , Parms: UUR     MR , mate:    31
(PID.TID 0000.0001)   set mate pointer for diag #    31  VVEL     , Parms: VVR     MR , mate:    30
(PID.TID 0000.0001)   set mate pointer for diag #   223  SIuice   , Parms: UU      M1 , mate:   224
(PID.TID 0000.0001)   set mate pointer for diag #   224  SIvice   , Parms: VV      M1 , mate:   223
(PID.TID 0000.0001)   set mate pointer for diag #   225  SItaux   , Parms: UU      U1 , mate:   226
(PID.TID 0000.0001)   set mate pointer for diag #   226  SItauy   , Parms: VV      U1 , mate:   225
(PID.TID 0000.0001) DIAGNOSTICS_SET_POINTERS: Set levels for Outp.Stream: surfDiag
(PID.TID 0000.0001)  Levels:       1.
(PID.TID 0000.0001) DIAGNOSTICS_SET_POINTERS: Set levels for Outp.Stream: iceDiag
(PID.TID 0000.0001)  Levels:       1.
(PID.TID 0000.0001) DIAGNOSTICS_SET_POINTERS: Set levels for Outp.Stream: iceNcat
(PID.TID 0000.0001)  Levels:       1.   2.   3.   4.   5.
(PID.TID 0000.0001) DIAGNOSTICS_SET_POINTERS: done
(PID.TID 0000.0001) ------------------------------------------------------------
(PID.TID 0000.0001) DIAGSTATS_SET_REGIONS: define   0 regions:
(PID.TID 0000.0001) ------------------------------------------------------------
(PID.TID 0000.0001) SETDIAG: Allocate  1 Levels for Stats-Diag #   214 SIarea
(PID.TID 0000.0001) SETDIAG: Allocate  1 Levels for Stats-Diag #   217 SIheff
(PID.TID 0000.0001) SETDIAG: Allocate  1 Levels for Stats-Diag #   219 SIhsnow
(PID.TID 0000.0001) SETDIAG: Allocate  1 Levels for Stats-Diag #    83 sIceLoad
(PID.TID 0000.0001) SETDIAG: Allocate  1 Levels for Stats-Diag #   223 SIuice
(PID.TID 0000.0001) SETDIAG: Allocate  1 Levels for Stats-Diag #   224 SIvice
(PID.TID 0000.0001) SETDIAG: Allocate  1 Levels for Stats-Diag #   225 SItaux
(PID.TID 0000.0001) SETDIAG: Allocate  1 Levels for Stats-Diag #   226 SItauy
(PID.TID 0000.0001)   space allocated for all stats-diags:       8 levels
(PID.TID 0000.0001) DIAGSTATS_SET_POINTERS: done
(PID.TID 0000.0001) ------------------------------------------------------------
(PID.TID 0000.0001) DIAGSTATS_INI_IO: open file: iceStDiag.0000000001.txt , unit=    37
(PID.TID 0000.0001) INI_GLOBAL_DOMAIN: Found   0 CS-corner Pts in the domain
(PID.TID 0000.0001) %MON fCori_max                    =   1.4584096177006E-04
(PID.TID 0000.0001) %MON fCori_min                    =  -1.4429171327635E-04
(PID.TID 0000.0001) %MON fCori_mean                   =  -1.9531894197173E-06
(PID.TID 0000.0001) %MON fCori_sd                     =   1.0434730642309E-04
(PID.TID 0000.0001) %MON fCoriG_max                   =   1.4584247033981E-04
(PID.TID 0000.0001) %MON fCoriG_min                   =  -1.4435339896041E-04
(PID.TID 0000.0001) %MON fCoriG_mean                  =  -1.9303770726087E-06
(PID.TID 0000.0001) %MON fCoriG_sd                    =   1.0435958182593E-04
(PID.TID 0000.0001) %MON fCoriCos_max                 =   1.4584158744890E-04
(PID.TID 0000.0001) %MON fCoriCos_min                 =   6.6334365221135E-07
(PID.TID 0000.0001) %MON fCoriCos_mean                =   9.3876998486639E-05
(PID.TID 0000.0001) %MON fCoriCos_sd                  =   3.9559575367967E-05
(PID.TID 0000.0001) INI_CG2D: CG2D normalisation factor =  7.1522409280111305E-05
(PID.TID 0000.0001) INI_CG2D: cg2dTolerance = 2.845112656120382E-05 (Area=3.5801386115E+14)
(PID.TID 0000.0001) 
(PID.TID 0000.0001) // =======================================================
(PID.TID 0000.0001) // Model configuration
(PID.TID 0000.0001) // =======================================================
(PID.TID 0000.0001) //
(PID.TID 0000.0001) // "Physical" paramters ( PARM01 in namelist )
(PID.TID 0000.0001) //
(PID.TID 0000.0001) buoyancyRelation = /* Type of relation to get Buoyancy */
(PID.TID 0000.0001)               'OCEANIC'
(PID.TID 0000.0001)     ;
(PID.TID 0000.0001) fluidIsAir   =  /* fluid major constituent is Air */
(PID.TID 0000.0001)                   F
(PID.TID 0000.0001)     ;
(PID.TID 0000.0001) fluidIsWater =  /* fluid major constituent is Water */
(PID.TID 0000.0001)                   T
(PID.TID 0000.0001)     ;
(PID.TID 0000.0001) usingPCoords =  /* use p (or p*) vertical coordinate */
(PID.TID 0000.0001)                   F
(PID.TID 0000.0001)     ;
(PID.TID 0000.0001) usingZCoords =  /* use z (or z*) vertical coordinate */
(PID.TID 0000.0001)                   T
(PID.TID 0000.0001)     ;
(PID.TID 0000.0001) tRef =   /* Reference temperature profile ( oC or K ) */
(PID.TID 0000.0001)     3 @  2.300000000000000E+01,             /* K =  1:  3 */
(PID.TID 0000.0001)     3 @  2.200000000000000E+01,             /* K =  4:  6 */
(PID.TID 0000.0001)                 2.100000000000000E+01,      /* K =  7 */
(PID.TID 0000.0001)     2 @  2.000000000000000E+01,             /* K =  8:  9 */
(PID.TID 0000.0001)                 1.900000000000000E+01,      /* K = 10 */
(PID.TID 0000.0001)     2 @  1.800000000000000E+01,             /* K = 11: 12 */
(PID.TID 0000.0001)                 1.700000000000000E+01,      /* K = 13 */
(PID.TID 0000.0001)     2 @  1.600000000000000E+01,             /* K = 14: 15 */
(PID.TID 0000.0001)                 1.500000000000000E+01,      /* K = 16 */
(PID.TID 0000.0001)                 1.400000000000000E+01,      /* K = 17 */
(PID.TID 0000.0001)                 1.300000000000000E+01,      /* K = 18 */
(PID.TID 0000.0001)                 1.200000000000000E+01,      /* K = 19 */
(PID.TID 0000.0001)                 1.100000000000000E+01,      /* K = 20 */
(PID.TID 0000.0001)     2 @  9.000000000000000E+00,             /* K = 21: 22 */
(PID.TID 0000.0001)                 8.000000000000000E+00,      /* K = 23 */
(PID.TID 0000.0001)                 7.000000000000000E+00,      /* K = 24 */
(PID.TID 0000.0001)     2 @  6.000000000000000E+00,             /* K = 25: 26 */
(PID.TID 0000.0001)     2 @  5.000000000000000E+00,             /* K = 27: 28 */
(PID.TID 0000.0001)     3 @  4.000000000000000E+00,             /* K = 29: 31 */
(PID.TID 0000.0001)     3 @  3.000000000000000E+00,             /* K = 32: 34 */
(PID.TID 0000.0001)     4 @  2.000000000000000E+00,             /* K = 35: 38 */
(PID.TID 0000.0001)    12 @  1.000000000000000E+00              /* K = 39: 50 */
(PID.TID 0000.0001)     ;
(PID.TID 0000.0001) sRef =   /* Reference salinity profile ( psu ) */
(PID.TID 0000.0001)    50 @  3.450000000000000E+01              /* K =  1: 50 */
(PID.TID 0000.0001)     ;
(PID.TID 0000.0001) useStrainTensionVisc= /* Use StrainTension Form of Viscous Operator */
(PID.TID 0000.0001)                   F
(PID.TID 0000.0001)     ;
(PID.TID 0000.0001) useVariableVisc = /* Use variable horizontal viscosity */
(PID.TID 0000.0001)                   T
(PID.TID 0000.0001)     ;
(PID.TID 0000.0001) useHarmonicVisc = /* Use harmonic horizontal viscosity */
(PID.TID 0000.0001)                   T
(PID.TID 0000.0001)     ;
(PID.TID 0000.0001) useBiharmonicVisc= /* Use biharmonic horiz.  viscosity */
(PID.TID 0000.0001)                   T
(PID.TID 0000.0001)     ;
(PID.TID 0000.0001) useSmag3D = /* Use isotropic 3-D Smagorinsky viscosity */
(PID.TID 0000.0001)                   F
(PID.TID 0000.0001)     ;
(PID.TID 0000.0001) viscAh  =   /* Lateral harmonic viscosity ( m^2/s ) */
(PID.TID 0000.0001)                 1.000000000000000E+00
(PID.TID 0000.0001)     ;
(PID.TID 0000.0001) viscAhMax = /* Maximum lateral harmonic viscosity ( m^2/s ) */
(PID.TID 0000.0001)                 1.000000000000000E+21
(PID.TID 0000.0001)     ;
(PID.TID 0000.0001) viscAhGrid = /* Grid dependent lateral harmonic viscosity ( non-dim. ) */
(PID.TID 0000.0001)                 2.000000000000000E-02
(PID.TID 0000.0001)     ;
(PID.TID 0000.0001) useFullLeith = /* Use Full Form of Leith Viscosity on/off flag*/
(PID.TID 0000.0001)                   F
(PID.TID 0000.0001)     ;
(PID.TID 0000.0001) useAreaViscLength = /* Use area for visc length instead of geom. mean*/
(PID.TID 0000.0001)                   F
(PID.TID 0000.0001)     ;
(PID.TID 0000.0001) viscC2leith = /* Leith harmonic visc. factor (on grad(vort),non-dim.) */
(PID.TID 0000.0001)                 0.000000000000000E+00
(PID.TID 0000.0001)     ;
(PID.TID 0000.0001) viscC2leithD = /* Leith harmonic viscosity factor (on grad(div),non-dim.)*/
(PID.TID 0000.0001)                 0.000000000000000E+00
(PID.TID 0000.0001)     ;
(PID.TID 0000.0001) viscC2smag = /* Smagorinsky harmonic viscosity factor (non-dim.) */
(PID.TID 0000.0001)                 0.000000000000000E+00
(PID.TID 0000.0001)     ;
(PID.TID 0000.0001) viscA4  =   /* Lateral biharmonic viscosity ( m^4/s ) */
(PID.TID 0000.0001)                 0.000000000000000E+00
(PID.TID 0000.0001)     ;
(PID.TID 0000.0001) viscA4Max = /* Maximum biharmonic viscosity ( m^2/s ) */
(PID.TID 0000.0001)                 1.000000000000000E+21
(PID.TID 0000.0001)     ;
(PID.TID 0000.0001) viscA4Grid = /* Grid dependent biharmonic viscosity ( non-dim. ) */
(PID.TID 0000.0001)                 0.000000000000000E+00
(PID.TID 0000.0001)     ;
(PID.TID 0000.0001) viscC4leith = /* Leith biharm viscosity factor (on grad(vort), non-dim.)*/
(PID.TID 0000.0001)                 0.000000000000000E+00
(PID.TID 0000.0001)     ;
(PID.TID 0000.0001) viscC4leithD = /* Leith biharm viscosity factor (on grad(div), non-dim.) */
(PID.TID 0000.0001)                 0.000000000000000E+00
(PID.TID 0000.0001)     ;
(PID.TID 0000.0001) viscC4Smag = /* Smagorinsky biharm viscosity factor (non-dim) */
(PID.TID 0000.0001)                 0.000000000000000E+00
(PID.TID 0000.0001)     ;
(PID.TID 0000.0001) no_slip_sides =  /* Viscous BCs: No-slip sides */
(PID.TID 0000.0001)                   T
(PID.TID 0000.0001)     ;
(PID.TID 0000.0001) sideDragFactor = /* side-drag scaling factor (non-dim) */
(PID.TID 0000.0001)                 2.000000000000000E+00
(PID.TID 0000.0001)     ;
(PID.TID 0000.0001) viscArNr = /* vertical profile of vertical viscosity ( m^2/s )*/
(PID.TID 0000.0001)    50 @  5.000000000000000E-05              /* K =  1: 50 */
(PID.TID 0000.0001)     ;
(PID.TID 0000.0001) no_slip_bottom =  /* Viscous BCs: No-slip bottom */
(PID.TID 0000.0001)                   T
(PID.TID 0000.0001)     ;
(PID.TID 0000.0001) bottomVisc_pCell = /* Partial-cell in bottom Visc. BC */
(PID.TID 0000.0001)                   F
(PID.TID 0000.0001)     ;
(PID.TID 0000.0001) bottomDragLinear = /* linear bottom-drag coefficient ( m/s ) */
(PID.TID 0000.0001)                 0.000000000000000E+00
(PID.TID 0000.0001)     ;
(PID.TID 0000.0001) bottomDragQuadratic = /* quadratic bottom-drag coefficient (-) */
(PID.TID 0000.0001)                 1.000000000000000E-03
(PID.TID 0000.0001)     ;
(PID.TID 0000.0001) selectBotDragQuadr = /* select quadratic bottom drag options */
(PID.TID 0000.0001)                       0
(PID.TID 0000.0001)     ;
(PID.TID 0000.0001) diffKhT =   /* Laplacian diffusion of heat laterally ( m^2/s ) */
(PID.TID 0000.0001)                 1.000000000000000E+01
(PID.TID 0000.0001)     ;
(PID.TID 0000.0001) diffK4T =   /* Biharmonic diffusion of heat laterally ( m^4/s ) */
(PID.TID 0000.0001)                 0.000000000000000E+00
(PID.TID 0000.0001)     ;
(PID.TID 0000.0001) diffKhS =   /* Laplacian diffusion of salt laterally ( m^2/s ) */
(PID.TID 0000.0001)                 1.000000000000000E+01
(PID.TID 0000.0001)     ;
(PID.TID 0000.0001) diffK4S =   /* Biharmonic diffusion of salt laterally ( m^4/s ) */
(PID.TID 0000.0001)                 0.000000000000000E+00
(PID.TID 0000.0001)     ;
(PID.TID 0000.0001) diffKrNrT = /* vertical profile of vertical diffusion of Temp ( m^2/s )*/
(PID.TID 0000.0001)    50 @  1.000000000000000E-05              /* K =  1: 50 */
(PID.TID 0000.0001)     ;
(PID.TID 0000.0001) diffKrNrS = /* vertical profile of vertical diffusion of Salt ( m^2/s )*/
(PID.TID 0000.0001)    50 @  1.000000000000000E-05              /* K =  1: 50 */
(PID.TID 0000.0001)     ;
(PID.TID 0000.0001) diffKrBL79surf = /* Surface diffusion for Bryan and Lewis 79 ( m^2/s ) */
(PID.TID 0000.0001)                 0.000000000000000E+00
(PID.TID 0000.0001)     ;
(PID.TID 0000.0001) diffKrBL79deep = /* Deep diffusion for Bryan and Lewis 1979 ( m^2/s ) */
(PID.TID 0000.0001)                 0.000000000000000E+00
(PID.TID 0000.0001)     ;
(PID.TID 0000.0001) diffKrBL79scl = /* Depth scale for Bryan and Lewis 1979 ( m ) */
(PID.TID 0000.0001)                 2.000000000000000E+02
(PID.TID 0000.0001)     ;
(PID.TID 0000.0001) diffKrBL79Ho = /* Turning depth for Bryan and Lewis 1979 ( m ) */
(PID.TID 0000.0001)                -2.000000000000000E+03
(PID.TID 0000.0001)     ;
(PID.TID 0000.0001) ivdc_kappa = /* Implicit Vertical Diffusivity for Convection ( m^2/s) */
(PID.TID 0000.0001)                 1.000000000000000E+01
(PID.TID 0000.0001)     ;
(PID.TID 0000.0001) hMixCriteria=  /* Criteria for mixed-layer diagnostic */
(PID.TID 0000.0001)                -8.000000000000000E-01
(PID.TID 0000.0001)     ;
(PID.TID 0000.0001) dRhoSmall =  /* Parameter for mixed-layer diagnostic */
(PID.TID 0000.0001)                 1.000000000000000E-06
(PID.TID 0000.0001)     ;
(PID.TID 0000.0001) hMixSmooth=  /* Smoothing parameter for mixed-layer diagnostic */
(PID.TID 0000.0001)                 0.000000000000000E+00
(PID.TID 0000.0001)     ;
(PID.TID 0000.0001) eosType =  /* Type of Equation of State */
(PID.TID 0000.0001)               'JMD95Z'
(PID.TID 0000.0001)     ;
(PID.TID 0000.0001) selectP_inEOS_Zc = /* select pressure to use in EOS (0,1,2,3) */
(PID.TID 0000.0001)                       0
(PID.TID 0000.0001)     0= -g*rhoConst*z ; 1= pRef (from tRef,sRef); 2= Hyd P ; 3= Hyd+NH P
(PID.TID 0000.0001)     ;
(PID.TID 0000.0001) HeatCapacity_Cp =  /* Specific heat capacity ( J/kg/K ) */
(PID.TID 0000.0001)                 3.994000000000000E+03
(PID.TID 0000.0001)     ;
(PID.TID 0000.0001) celsius2K = /* 0 degree Celsius converted to Kelvin ( K ) */
(PID.TID 0000.0001)                 2.731500000000000E+02
(PID.TID 0000.0001)     ;
(PID.TID 0000.0001) rhoConst  = /* Reference density (Boussinesq)  ( kg/m^3 ) */
(PID.TID 0000.0001)                 1.029000000000000E+03
(PID.TID 0000.0001)     ;
(PID.TID 0000.0001) rhoFacC = /* normalized Reference density @ cell-Center (-) */
(PID.TID 0000.0001)    50 @  1.000000000000000E+00              /* K =  1: 50 */
(PID.TID 0000.0001)     ;
(PID.TID 0000.0001) rhoFacF = /* normalized Reference density @ W-Interface (-) */
(PID.TID 0000.0001)    51 @  1.000000000000000E+00              /* K =  1: 51 */
(PID.TID 0000.0001)     ;
(PID.TID 0000.0001) rhoConstFresh = /* Fresh-water reference density ( kg/m^3 ) */
(PID.TID 0000.0001)                 1.000000000000000E+03
(PID.TID 0000.0001)     ;
(PID.TID 0000.0001) gravity =   /* Gravitational acceleration ( m/s^2 ) */
(PID.TID 0000.0001)                 9.810000000000000E+00
(PID.TID 0000.0001)     ;
(PID.TID 0000.0001) gBaro =   /* Barotropic gravity ( m/s^2 ) */
(PID.TID 0000.0001)                 9.810000000000000E+00
(PID.TID 0000.0001)     ;
(PID.TID 0000.0001) gravFacC = /* gravity factor (vs surf.) @ cell-Center (-) */
(PID.TID 0000.0001)    50 @  1.000000000000000E+00              /* K =  1: 50 */
(PID.TID 0000.0001)     ;
(PID.TID 0000.0001) gravFacF = /* gravity factor (vs surf.) @ W-Interface (-) */
(PID.TID 0000.0001)    51 @  1.000000000000000E+00              /* K =  1: 51 */
(PID.TID 0000.0001)     ;
(PID.TID 0000.0001) rotationPeriod =   /* Rotation Period ( s ) */
(PID.TID 0000.0001)                 8.616400000000000E+04
(PID.TID 0000.0001)     ;
(PID.TID 0000.0001) omega =   /* Angular velocity ( rad/s ) */
(PID.TID 0000.0001)                 7.292123516990375E-05
(PID.TID 0000.0001)     ;
(PID.TID 0000.0001) f0 =   /* Reference coriolis parameter ( 1/s ) */
(PID.TID 0000.0001)                 1.000000000000000E-04
(PID.TID 0000.0001)     ;
(PID.TID 0000.0001) beta =   /* Beta ( 1/(m.s) ) */
(PID.TID 0000.0001)                 9.999999999999999E-12
(PID.TID 0000.0001)     ;
(PID.TID 0000.0001) fPrime =   /* Second coriolis parameter ( 1/s ) */
(PID.TID 0000.0001)                 0.000000000000000E+00
(PID.TID 0000.0001)     ;
(PID.TID 0000.0001) rigidLid =   /* Rigid lid on/off flag */
(PID.TID 0000.0001)                   F
(PID.TID 0000.0001)     ;
(PID.TID 0000.0001) implicitFreeSurface =   /* Implicit free surface on/off flag */
(PID.TID 0000.0001)                   T
(PID.TID 0000.0001)     ;
(PID.TID 0000.0001) freeSurfFac =   /* Implicit free surface factor */
(PID.TID 0000.0001)                 1.000000000000000E+00
(PID.TID 0000.0001)     ;
(PID.TID 0000.0001) implicSurfPress =  /* Surface Pressure implicit factor (0-1)*/
(PID.TID 0000.0001)                 1.000000000000000E+00
(PID.TID 0000.0001)     ;
(PID.TID 0000.0001) implicDiv2DFlow =  /* Barot. Flow Div. implicit factor (0-1)*/
(PID.TID 0000.0001)                 1.000000000000000E+00
(PID.TID 0000.0001)     ;
(PID.TID 0000.0001) uniformLin_PhiSurf = /* use uniform Bo_surf on/off flag*/
(PID.TID 0000.0001)                   T
(PID.TID 0000.0001)     ;
(PID.TID 0000.0001) uniformFreeSurfLev = /* free-surface level-index is uniform */
(PID.TID 0000.0001)                   T
(PID.TID 0000.0001)     ;
(PID.TID 0000.0001) hFacMin =   /* minimum partial cell factor (hFac) */
(PID.TID 0000.0001)                 2.000000000000000E-01
(PID.TID 0000.0001)     ;
(PID.TID 0000.0001) hFacMinDr = /* minimum partial cell thickness ( m) */
(PID.TID 0000.0001)                 5.000000000000000E+00
(PID.TID 0000.0001)     ;
(PID.TID 0000.0001) exactConserv =  /* Exact Volume Conservation on/off flag*/
(PID.TID 0000.0001)                   T
(PID.TID 0000.0001)     ;
(PID.TID 0000.0001) linFSConserveTr = /* Tracer correction for Lin Free Surface on/off flag*/
(PID.TID 0000.0001)                   F
(PID.TID 0000.0001)     ;
(PID.TID 0000.0001) nonlinFreeSurf = /* Non-linear Free Surf. options (-1,0,1,2,3)*/
(PID.TID 0000.0001)                       4
(PID.TID 0000.0001)      -1,0= Off ; 1,2,3= On, 2=+rescale gU,gV, 3=+update cg2d solv.
(PID.TID 0000.0001)     ;
(PID.TID 0000.0001) hFacInf =   /* lower threshold for hFac (nonlinFreeSurf only)*/
(PID.TID 0000.0001)                 2.000000000000000E-01
(PID.TID 0000.0001)     ;
(PID.TID 0000.0001) hFacSup =   /* upper threshold for hFac (nonlinFreeSurf only)*/
(PID.TID 0000.0001)                 2.000000000000000E+00
(PID.TID 0000.0001)     ;
(PID.TID 0000.0001) select_rStar = /* r* Vertical coord. options (=0 r coord.; >0 uses r*)*/
(PID.TID 0000.0001)                       2
(PID.TID 0000.0001)     ;
(PID.TID 0000.0001) useRealFreshWaterFlux = /* Real Fresh Water Flux on/off flag*/
(PID.TID 0000.0001)                   T
(PID.TID 0000.0001)     ;
(PID.TID 0000.0001) temp_EvPrRn = /* Temp. of Evap/Prec/R (UNSET=use local T)(oC)*/
(PID.TID 0000.0001)                 1.234567000000000E+05
(PID.TID 0000.0001)     ;
(PID.TID 0000.0001) salt_EvPrRn = /* Salin. of Evap/Prec/R (UNSET=use local S)(psu)*/
(PID.TID 0000.0001)                 0.000000000000000E+00
(PID.TID 0000.0001)     ;
(PID.TID 0000.0001) selectAddFluid = /* option for mass source/sink of fluid (=0: off) */
(PID.TID 0000.0001)                       0
(PID.TID 0000.0001)     ;
(PID.TID 0000.0001) temp_addMass = /* Temp. of addMass array (UNSET=use local T)(oC)*/
(PID.TID 0000.0001)                 1.234567000000000E+05
(PID.TID 0000.0001)     ;
(PID.TID 0000.0001) salt_addMass = /* Salin. of addMass array (UNSET=use local S)(psu)*/
(PID.TID 0000.0001)                 0.000000000000000E+00
(PID.TID 0000.0001)     ;
(PID.TID 0000.0001) use3Dsolver = /* use 3-D pressure solver on/off flag */
(PID.TID 0000.0001)                   F
(PID.TID 0000.0001)     ;
(PID.TID 0000.0001) nonHydrostatic =  /* Non-Hydrostatic on/off flag */
(PID.TID 0000.0001)                   F
(PID.TID 0000.0001)     ;
(PID.TID 0000.0001) nh_Am2 = /* Non-Hydrostatic terms scaling factor */
(PID.TID 0000.0001)                 1.000000000000000E+00
(PID.TID 0000.0001)     ;
(PID.TID 0000.0001) implicitNHPress = /* Non-Hyd Pressure implicit factor (0-1)*/
(PID.TID 0000.0001)                 1.000000000000000E+00
(PID.TID 0000.0001)     ;
(PID.TID 0000.0001) selectNHfreeSurf = /* Non-Hyd (free-)Surface option */
(PID.TID 0000.0001)                       0
(PID.TID 0000.0001)     ;
(PID.TID 0000.0001) quasiHydrostatic = /* Quasi-Hydrostatic on/off flag */
(PID.TID 0000.0001)                   F
(PID.TID 0000.0001)     ;
(PID.TID 0000.0001) calc_wVelocity = /* vertical velocity calculation on/off flag */
(PID.TID 0000.0001)                   T
(PID.TID 0000.0001)     ;
(PID.TID 0000.0001) momStepping =  /* Momentum equation on/off flag */
(PID.TID 0000.0001)                   T
(PID.TID 0000.0001)     ;
(PID.TID 0000.0001) vectorInvariantMomentum= /* Vector-Invariant Momentum on/off */
(PID.TID 0000.0001)                   T
(PID.TID 0000.0001)     ;
(PID.TID 0000.0001) momAdvection =  /* Momentum advection on/off flag */
(PID.TID 0000.0001)                   T
(PID.TID 0000.0001)     ;
(PID.TID 0000.0001) momViscosity =  /* Momentum viscosity on/off flag */
(PID.TID 0000.0001)                   T
(PID.TID 0000.0001)     ;
(PID.TID 0000.0001) momImplVertAdv= /* Momentum implicit vert. advection on/off*/
(PID.TID 0000.0001)                   F
(PID.TID 0000.0001)     ;
(PID.TID 0000.0001) implicitViscosity = /* Implicit viscosity on/off flag */
(PID.TID 0000.0001)                   T
(PID.TID 0000.0001)     ;
(PID.TID 0000.0001) selectImplicitDrag= /* Implicit bot Drag options (0,1,2)*/
(PID.TID 0000.0001)                       0
(PID.TID 0000.0001)     0= Expl. ; 1= Impl. on provis. Vel ; 2= Fully Impl (with surf.P)
(PID.TID 0000.0001)     ;
(PID.TID 0000.0001) metricTerms =  /* metric-Terms on/off flag */
(PID.TID 0000.0001)                   F
(PID.TID 0000.0001)     ;
(PID.TID 0000.0001) useNHMTerms = /* Non-Hydrostatic Metric-Terms on/off */
(PID.TID 0000.0001)                   F
(PID.TID 0000.0001)     ;
(PID.TID 0000.0001) selectCoriMap = /* Coriolis Map options (0,1,2,3)*/
(PID.TID 0000.0001)                       2
(PID.TID 0000.0001)     0= f-Plane ; 1= Beta-Plane ; 2= Spherical ; 3= read from file
(PID.TID 0000.0001)     ;
(PID.TID 0000.0001) use3dCoriolis = /* 3-D Coriolis on/off flag */
(PID.TID 0000.0001)                   F
(PID.TID 0000.0001)     ;
(PID.TID 0000.0001) useCoriolis =  /* Coriolis on/off flag */
(PID.TID 0000.0001)                   T
(PID.TID 0000.0001)     ;
(PID.TID 0000.0001) useCDscheme =  /* CD scheme on/off flag */
(PID.TID 0000.0001)                   F
(PID.TID 0000.0001)     ;
(PID.TID 0000.0001) useEnergyConservingCoriolis= /* Flx-Form Coriolis scheme flag */
(PID.TID 0000.0001)                   F
(PID.TID 0000.0001)     ;
(PID.TID 0000.0001) useJamartWetPoints= /* Coriolis WetPoints method flag */
(PID.TID 0000.0001)                   T
(PID.TID 0000.0001)     ;
(PID.TID 0000.0001) useJamartMomAdv= /* V.I Non-linear terms Jamart flag */
(PID.TID 0000.0001)                   F
(PID.TID 0000.0001)     ;
(PID.TID 0000.0001) useAbsVorticity= /* V.I Works with f+zeta in Coriolis */
(PID.TID 0000.0001)                   F
(PID.TID 0000.0001)     ;
(PID.TID 0000.0001) selectVortScheme= /* V.I Scheme selector for Vorticity-Term */
(PID.TID 0000.0001)                       1
(PID.TID 0000.0001)    = 0 : enstrophy (Shallow-Water Eq.) conserving scheme by Sadourny, JAS 75
(PID.TID 0000.0001)    = 1 : same as 0 with modified hFac
(PID.TID 0000.0001)    = 2 : energy conserving scheme (used by Sadourny in JAS 75 paper)
(PID.TID 0000.0001)    = 3 : energy (general) and enstrophy (2D, nonDiv.) conserving scheme
(PID.TID 0000.0001)          from Sadourny (Burridge & Haseler, ECMWF Rep.4, 1977)
(PID.TID 0000.0001)     ;
(PID.TID 0000.0001) upwindVorticity= /* V.I Upwind bias vorticity flag */
(PID.TID 0000.0001)                   F
(PID.TID 0000.0001)     ;
(PID.TID 0000.0001) highOrderVorticity= /* V.I High order vort. advect. flag */
(PID.TID 0000.0001)                   F
(PID.TID 0000.0001)     ;
(PID.TID 0000.0001) upwindShear= /* V.I Upwind vertical Shear advection flag */
(PID.TID 0000.0001)                   F
(PID.TID 0000.0001)     ;
(PID.TID 0000.0001) selectKEscheme= /* V.I Kinetic Energy scheme selector */
(PID.TID 0000.0001)                       0
(PID.TID 0000.0001)     ;
(PID.TID 0000.0001) momForcing =  /* Momentum forcing on/off flag */
(PID.TID 0000.0001)                   T
(PID.TID 0000.0001)     ;
(PID.TID 0000.0001) momTidalForcing = /* Momentum Tidal forcing on/off flag */
(PID.TID 0000.0001)                   T
(PID.TID 0000.0001)     ;
(PID.TID 0000.0001) momPressureForcing =  /* Momentum pressure term on/off flag */
(PID.TID 0000.0001)                   T
(PID.TID 0000.0001)     ;
(PID.TID 0000.0001) implicitIntGravWave= /* Implicit Internal Gravity Wave flag */
(PID.TID 0000.0001)                   F
(PID.TID 0000.0001)     ;
(PID.TID 0000.0001) staggerTimeStep =    /* Stagger time stepping on/off flag */
(PID.TID 0000.0001)                   T
(PID.TID 0000.0001)     ;
(PID.TID 0000.0001) doResetHFactors = /* reset thickness factors @ each time-step */
(PID.TID 0000.0001)                   F
(PID.TID 0000.0001)     ;
(PID.TID 0000.0001) multiDimAdvection =  /* enable/disable Multi-Dim Advection */
(PID.TID 0000.0001)                   T
(PID.TID 0000.0001)     ;
(PID.TID 0000.0001) useMultiDimAdvec =   /* Multi-Dim Advection is/is-not used */
(PID.TID 0000.0001)                   T
(PID.TID 0000.0001)     ;
(PID.TID 0000.0001) implicitDiffusion = /* Implicit Diffusion on/off flag */
(PID.TID 0000.0001)                   T
(PID.TID 0000.0001)     ;
(PID.TID 0000.0001) tempStepping =  /* Temperature equation on/off flag */
(PID.TID 0000.0001)                   T
(PID.TID 0000.0001)     ;
(PID.TID 0000.0001) tempAdvection = /* Temperature advection on/off flag */
(PID.TID 0000.0001)                   T
(PID.TID 0000.0001)     ;
(PID.TID 0000.0001) tempImplVertAdv = /* Temp. implicit vert. advection on/off */
(PID.TID 0000.0001)                   F
(PID.TID 0000.0001)     ;
(PID.TID 0000.0001) tempForcing  =  /* Temperature forcing on/off flag */
(PID.TID 0000.0001)                   T
(PID.TID 0000.0001)     ;
(PID.TID 0000.0001) balanceQnet  =  /* balance net heat-flux on/off flag */
(PID.TID 0000.0001)                   F
(PID.TID 0000.0001)     ;
(PID.TID 0000.0001) doThetaClimRelax = /* apply SST relaxation on/off flag */
(PID.TID 0000.0001)                   F
(PID.TID 0000.0001)     ;
(PID.TID 0000.0001) balanceThetaClimRelax= /* balance SST relaxation on/off flag */
(PID.TID 0000.0001)                   F
(PID.TID 0000.0001)     ;
(PID.TID 0000.0001) tempIsActiveTr = /* Temp. is a dynamically Active Tracer */
(PID.TID 0000.0001)                   T
(PID.TID 0000.0001)     ;
(PID.TID 0000.0001) saltStepping =  /* Salinity equation on/off flag */
(PID.TID 0000.0001)                   T
(PID.TID 0000.0001)     ;
(PID.TID 0000.0001) saltAdvection = /* Salinity advection on/off flag */
(PID.TID 0000.0001)                   T
(PID.TID 0000.0001)     ;
(PID.TID 0000.0001) saltImplVertAdv = /* Sali. implicit vert. advection on/off */
(PID.TID 0000.0001)                   F
(PID.TID 0000.0001)     ;
(PID.TID 0000.0001) saltForcing  =  /* Salinity forcing on/off flag */
(PID.TID 0000.0001)                   T
(PID.TID 0000.0001)     ;
(PID.TID 0000.0001) balanceEmPmR =  /* balance net fresh-water flux on/off flag */
(PID.TID 0000.0001)                   F
(PID.TID 0000.0001)     ;
(PID.TID 0000.0001) doSaltClimRelax = /* apply SSS relaxation on/off flag */
(PID.TID 0000.0001)                   F
(PID.TID 0000.0001)     ;
(PID.TID 0000.0001) balanceSaltClimRelax= /* balance SSS relaxation on/off flag */
(PID.TID 0000.0001)                   T
(PID.TID 0000.0001)     ;
(PID.TID 0000.0001) saltIsActiveTr = /* Salt  is a dynamically Active Tracer */
(PID.TID 0000.0001)                   T
(PID.TID 0000.0001)     ;
(PID.TID 0000.0001)  readBinaryPrec = /* Precision used for reading binary files */
(PID.TID 0000.0001)                      32
(PID.TID 0000.0001)     ;
(PID.TID 0000.0001) writeBinaryPrec = /* Precision used for writing binary files */
(PID.TID 0000.0001)                      32
(PID.TID 0000.0001)     ;
(PID.TID 0000.0001)  rwSuffixType =   /* select format of mds file suffix */
(PID.TID 0000.0001)                       0
(PID.TID 0000.0001)    = 0 : myIter (I10.10) ;   = 1 : 100*myTime (100th sec) ;
(PID.TID 0000.0001)    = 2 : myTime (seconds);   = 3 : myTime/360 (10th of hr);
(PID.TID 0000.0001)    = 4 : myTime/3600 (hours)
(PID.TID 0000.0001)     ;
(PID.TID 0000.0001)  globalFiles = /* write "global" (=not per tile) files */
(PID.TID 0000.0001)                   F
(PID.TID 0000.0001)     ;
(PID.TID 0000.0001)  useSingleCpuIO = /* only master MPI process does I/O */
(PID.TID 0000.0001)                   T
(PID.TID 0000.0001)     ;
(PID.TID 0000.0001)  useSingleCpuInput = /* only master process reads input */
(PID.TID 0000.0001)                   T
(PID.TID 0000.0001)     ;
(PID.TID 0000.0001) /* debLev[*]  : level of debug & auxiliary message printing */
(PID.TID 0000.0001) debLevZero =  0 ; /* level of disabled aux. msg printing */
(PID.TID 0000.0001)    debLevA =  1 ; /* level of minimum  aux. msg printing */
(PID.TID 0000.0001)    debLevB =  2 ; /* level of low aux. print (report read-file opening)*/
(PID.TID 0000.0001)    debLevC =  3 ; /* level of moderate debug prt (most pkgs debug msg) */
(PID.TID 0000.0001)    debLevD =  4 ; /* level of enhanced debug prt (add DEBUG_STATS prt) */
(PID.TID 0000.0001)    debLevE =  5 ; /* level of extensive debug printing */
(PID.TID 0000.0001) debugLevel =  /* select debug printing level */
(PID.TID 0000.0001)                       2
(PID.TID 0000.0001)     ;
(PID.TID 0000.0001)  plotLevel =  /* select PLOT_FIELD printing level */
(PID.TID 0000.0001)                       2
(PID.TID 0000.0001)     ;
(PID.TID 0000.0001) //
(PID.TID 0000.0001) // Elliptic solver(s) paramters ( PARM02 in namelist )
(PID.TID 0000.0001) //
(PID.TID 0000.0001) cg2dMaxIters =   /* Upper limit on 2d con. grad iterations  */
(PID.TID 0000.0001)                     300
(PID.TID 0000.0001)     ;
(PID.TID 0000.0001) cg2dChkResFreq =   /* 2d con. grad convergence test frequency */
(PID.TID 0000.0001)                       1
(PID.TID 0000.0001)     ;
(PID.TID 0000.0001) cg2dUseMinResSol= /* use cg2d last-iter(=0) / min-resid.(=1) solution */
(PID.TID 0000.0001)                       0
(PID.TID 0000.0001)     ;
(PID.TID 0000.0001) cg2dTargetResidual =   /* 2d con. grad target residual  */
(PID.TID 0000.0001)                 1.000000000000000E-07
(PID.TID 0000.0001)     ;
(PID.TID 0000.0001) cg2dTargetResWunit =   /* CG2d target residual [W units] */
(PID.TID 0000.0001)                 1.000000000000000E-12
(PID.TID 0000.0001)     ;
(PID.TID 0000.0001) cg2dPreCondFreq =   /* Freq. for updating cg2d preconditioner */
(PID.TID 0000.0001)                       1
(PID.TID 0000.0001)     ;
(PID.TID 0000.0001) useSRCGSolver =  /* use single reduction CG solver(s) */
(PID.TID 0000.0001)                   F
(PID.TID 0000.0001)     ;
(PID.TID 0000.0001) printResidualFreq = /* Freq. for printing CG residual */
(PID.TID 0000.0001)                       0
(PID.TID 0000.0001)     ;
(PID.TID 0000.0001) //
(PID.TID 0000.0001) // Time stepping paramters ( PARM03 in namelist )
(PID.TID 0000.0001) //
(PID.TID 0000.0001) deltaTMom =   /* Momentum equation timestep ( s ) */
(PID.TID 0000.0001)                 9.000000000000000E+02
(PID.TID 0000.0001)     ;
(PID.TID 0000.0001) deltaTFreeSurf = /* FreeSurface equation timestep ( s ) */
(PID.TID 0000.0001)                 9.000000000000000E+02
(PID.TID 0000.0001)     ;
(PID.TID 0000.0001) dTtracerLev =  /* Tracer equation timestep ( s ) */
(PID.TID 0000.0001)    50 @  9.000000000000000E+02              /* K =  1: 50 */
(PID.TID 0000.0001)     ;
(PID.TID 0000.0001) deltaTClock  =   /* Model clock timestep ( s ) */
(PID.TID 0000.0001)                 9.000000000000000E+02
(PID.TID 0000.0001)     ;
(PID.TID 0000.0001) cAdjFreq =   /* Convective adjustment interval ( s ) */
(PID.TID 0000.0001)                 0.000000000000000E+00
(PID.TID 0000.0001)     ;
(PID.TID 0000.0001) momForcingOutAB = /* =1: take Momentum Forcing out of Adams-Bash. stepping */
(PID.TID 0000.0001)                       1
(PID.TID 0000.0001)     ;
(PID.TID 0000.0001) tracForcingOutAB = /* =1: take T,S,pTr Forcing out of Adams-Bash. stepping */
(PID.TID 0000.0001)                       1
(PID.TID 0000.0001)     ;
(PID.TID 0000.0001) momDissip_In_AB = /* put Dissipation Tendency in Adams-Bash. stepping */
(PID.TID 0000.0001)                   F
(PID.TID 0000.0001)     ;
(PID.TID 0000.0001) doAB_onGtGs = /* apply AB on Tendencies (rather than on T,S)*/
(PID.TID 0000.0001)                   T
(PID.TID 0000.0001)     ;
(PID.TID 0000.0001) abEps =   /* Adams-Bashforth-2 stabilizing weight */
(PID.TID 0000.0001)                 1.000000000000000E-01
(PID.TID 0000.0001)     ;
(PID.TID 0000.0001) applyExchUV_early = /* Apply EXCH to U,V earlier in time-step */
(PID.TID 0000.0001)                   F
(PID.TID 0000.0001)     ;
(PID.TID 0000.0001) pickupStrictlyMatch= /* stop if pickup do not strictly match */
(PID.TID 0000.0001)                   F
(PID.TID 0000.0001)     ;
(PID.TID 0000.0001) nIter0   =   /* Run starting timestep number */
(PID.TID 0000.0001)                       1
(PID.TID 0000.0001)     ;
(PID.TID 0000.0001) nTimeSteps = /* Number of timesteps */
(PID.TID 0000.0001)                      96
(PID.TID 0000.0001)     ;
(PID.TID 0000.0001) nEndIter =   /* Run ending timestep number */
(PID.TID 0000.0001)                      97
(PID.TID 0000.0001)     ;
(PID.TID 0000.0001) baseTime =   /* Model base time ( s ) */
(PID.TID 0000.0001)                 0.000000000000000E+00
(PID.TID 0000.0001)     ;
(PID.TID 0000.0001) startTime =  /* Run start time ( s ) */
(PID.TID 0000.0001)                 9.000000000000000E+02
(PID.TID 0000.0001)     ;
(PID.TID 0000.0001) endTime  =   /* Integration ending time ( s ) */
(PID.TID 0000.0001)                 8.730000000000000E+04
(PID.TID 0000.0001)     ;
(PID.TID 0000.0001) pChkPtFreq = /* Permanent restart/pickup file interval ( s ) */
(PID.TID 0000.0001)                 8.640000000000000E+04
(PID.TID 0000.0001)     ;
(PID.TID 0000.0001) chkPtFreq  = /* Rolling restart/pickup file interval ( s ) */
(PID.TID 0000.0001)                 8.640000000000000E+04
(PID.TID 0000.0001)     ;
(PID.TID 0000.0001) pickup_write_mdsio =   /* Model IO flag. */
(PID.TID 0000.0001)                   T
(PID.TID 0000.0001)     ;
(PID.TID 0000.0001) pickup_read_mdsio =   /* Model IO flag. */
(PID.TID 0000.0001)                   T
(PID.TID 0000.0001)     ;
(PID.TID 0000.0001) writePickupAtEnd =   /* Model IO flag. */
(PID.TID 0000.0001)                   T
(PID.TID 0000.0001)     ;
(PID.TID 0000.0001) dumpFreq =   /* Model state write out interval ( s ). */
(PID.TID 0000.0001)                 0.000000000000000E+00
(PID.TID 0000.0001)     ;
(PID.TID 0000.0001) dumpInitAndLast= /* write out Initial & Last iter. model state */
(PID.TID 0000.0001)                   T
(PID.TID 0000.0001)     ;
(PID.TID 0000.0001) snapshot_mdsio =   /* Model IO flag. */
(PID.TID 0000.0001)                   T
(PID.TID 0000.0001)     ;
(PID.TID 0000.0001) monitorFreq =   /* Monitor output interval ( s ). */
(PID.TID 0000.0001)                 7.200000000000000E+03
(PID.TID 0000.0001)     ;
(PID.TID 0000.0001) monitorSelect = /* select group of variables to monitor */
(PID.TID 0000.0001)                       3
(PID.TID 0000.0001)     ;
(PID.TID 0000.0001) monitor_stdio =   /* Model IO flag. */
(PID.TID 0000.0001)                   T
(PID.TID 0000.0001)     ;
(PID.TID 0000.0001) externForcingPeriod =   /* forcing period (s) */
(PID.TID 0000.0001)                 0.000000000000000E+00
(PID.TID 0000.0001)     ;
(PID.TID 0000.0001) externForcingCycle =   /* period of the cyle (s). */
(PID.TID 0000.0001)                 0.000000000000000E+00
(PID.TID 0000.0001)     ;
(PID.TID 0000.0001) tauThetaClimRelax =   /* relaxation time scale (s) */
(PID.TID 0000.0001)                 0.000000000000000E+00
(PID.TID 0000.0001)     ;
(PID.TID 0000.0001) tauSaltClimRelax =   /* relaxation time scale (s) */
(PID.TID 0000.0001)                 0.000000000000000E+00
(PID.TID 0000.0001)     ;
(PID.TID 0000.0001) latBandClimRelax =   /* max. Lat. where relaxation */
(PID.TID 0000.0001)                 1.800000000000000E+02
(PID.TID 0000.0001)     ;
(PID.TID 0000.0001) //
(PID.TID 0000.0001) // Gridding paramters ( PARM04 in namelist )
(PID.TID 0000.0001) //
(PID.TID 0000.0001) usingCartesianGrid = /* Cartesian coordinates flag ( True/False ) */
(PID.TID 0000.0001)                   F
(PID.TID 0000.0001)     ;
(PID.TID 0000.0001) usingCylindricalGrid = /* Cylindrical coordinates flag ( True/False ) */
(PID.TID 0000.0001)                   F
(PID.TID 0000.0001)     ;
(PID.TID 0000.0001) usingSphericalPolarGrid = /* Spherical coordinates flag ( True/False ) */
(PID.TID 0000.0001)                   F
(PID.TID 0000.0001)     ;
(PID.TID 0000.0001) usingCurvilinearGrid = /* Curvilinear coordinates flag ( True/False ) */
(PID.TID 0000.0001)                   T
(PID.TID 0000.0001)     ;
(PID.TID 0000.0001) useMin4hFacEdges = /* set hFacW,S as minimum of adjacent hFacC factor */
(PID.TID 0000.0001)                   F
(PID.TID 0000.0001)     ;
(PID.TID 0000.0001) interViscAr_pCell = /* account for partial-cell in interior vert. viscosity */
(PID.TID 0000.0001)                   F
(PID.TID 0000.0001)     ;
(PID.TID 0000.0001) interDiffKr_pCell = /* account for partial-cell in interior vert. diffusion */
(PID.TID 0000.0001)                   F
(PID.TID 0000.0001)     ;
(PID.TID 0000.0001) pCellMix_select = /* option to enhance mixing near surface & bottom */
(PID.TID 0000.0001)                       0
(PID.TID 0000.0001)     ;
(PID.TID 0000.0001) selectSigmaCoord = /* Hybrid-Sigma Vert. Coordinate option */
(PID.TID 0000.0001)                       0
(PID.TID 0000.0001)     ;
(PID.TID 0000.0001) rSigmaBnd = /* r/sigma transition ( units of r ==  m ) */
(PID.TID 0000.0001)                 1.234567000000000E+05
(PID.TID 0000.0001)     ;
(PID.TID 0000.0001) rkSign =   /* index orientation relative to vertical coordinate */
(PID.TID 0000.0001)                -1.000000000000000E+00
(PID.TID 0000.0001)     ;
(PID.TID 0000.0001) gravitySign = /* gravity orientation relative to vertical coordinate */
(PID.TID 0000.0001)                -1.000000000000000E+00
(PID.TID 0000.0001)     ;
(PID.TID 0000.0001) seaLev_Z =  /* reference height of sea-level [m] */
(PID.TID 0000.0001)                 0.000000000000000E+00
(PID.TID 0000.0001)     ;
(PID.TID 0000.0001) top_Pres =  /* reference pressure at the top [Pa] */
(PID.TID 0000.0001)                 0.000000000000000E+00
(PID.TID 0000.0001)     ;
(PID.TID 0000.0001) mass2rUnit = /* convert mass per unit area [kg/m2] to r-units [m] */
(PID.TID 0000.0001)                 9.718172983479105E-04
(PID.TID 0000.0001)     ;
(PID.TID 0000.0001) rUnit2mass = /* convert r-units [m] to mass per unit area [kg/m2] */
(PID.TID 0000.0001)                 1.029000000000000E+03
(PID.TID 0000.0001)     ;
(PID.TID 0000.0001) drC =   /* C spacing ( units of r ) */
(PID.TID 0000.0001)                 5.000000000000000E+00,      /* K =  1 */
(PID.TID 0000.0001)     6 @  1.000000000000000E+01,             /* K =  2:  7 */
(PID.TID 0000.0001)                 1.000500000000000E+01,      /* K =  8 */
(PID.TID 0000.0001)                 1.002000000000000E+01,      /* K =  9 */
(PID.TID 0000.0001)                 1.007000000000000E+01,      /* K = 10 */
(PID.TID 0000.0001)                 1.021500000000000E+01,      /* K = 11 */
(PID.TID 0000.0001)                 1.056000000000000E+01,      /* K = 12 */
(PID.TID 0000.0001)                 1.128000000000000E+01,      /* K = 13 */
(PID.TID 0000.0001)                 1.259000000000000E+01,      /* K = 14 */
(PID.TID 0000.0001)                 1.473000000000000E+01,      /* K = 15 */
(PID.TID 0000.0001)                 1.793000000000000E+01,      /* K = 16 */
(PID.TID 0000.0001)                 2.233500000000000E+01,      /* K = 17 */
(PID.TID 0000.0001)                 2.797500000000000E+01,      /* K = 18 */
(PID.TID 0000.0001)                 3.476000000000001E+01,      /* K = 19 */
(PID.TID 0000.0001)                 4.246000000000000E+01,      /* K = 20 */
(PID.TID 0000.0001)                 5.075000000000000E+01,      /* K = 21 */
(PID.TID 0000.0001)                 5.925000000000000E+01,      /* K = 22 */
(PID.TID 0000.0001)                 6.753999999999999E+01,      /* K = 23 */
(PID.TID 0000.0001)                 7.524000000000001E+01,      /* K = 24 */
(PID.TID 0000.0001)                 8.202500000000001E+01,      /* K = 25 */
(PID.TID 0000.0001)                 8.766500000000001E+01,      /* K = 26 */
(PID.TID 0000.0001)                 9.206999999999999E+01,      /* K = 27 */
(PID.TID 0000.0001)                 9.527000000000000E+01,      /* K = 28 */
(PID.TID 0000.0001)                 9.741499999999999E+01,      /* K = 29 */
(PID.TID 0000.0001)                 9.875000000000000E+01,      /* K = 30 */
(PID.TID 0000.0001)                 9.963000000000000E+01,      /* K = 31 */
(PID.TID 0000.0001)                 1.006700000000000E+02,      /* K = 32 */
(PID.TID 0000.0001)                 1.029450000000000E+02,      /* K = 33 */
(PID.TID 0000.0001)                 1.079450000000000E+02,      /* K = 34 */
(PID.TID 0000.0001)                 1.170800000000000E+02,      /* K = 35 */
(PID.TID 0000.0001)                 1.309600000000000E+02,      /* K = 36 */
(PID.TID 0000.0001)                 1.490150000000000E+02,      /* K = 37 */
(PID.TID 0000.0001)                 1.698850000000000E+02,      /* K = 38 */
(PID.TID 0000.0001)                 1.921900000000000E+02,      /* K = 39 */
(PID.TID 0000.0001)                 2.150250000000000E+02,      /* K = 40 */
(PID.TID 0000.0001)                 2.380000000000000E+02,      /* K = 41 */
(PID.TID 0000.0001)                 2.610000000000000E+02,      /* K = 42 */
(PID.TID 0000.0001)                 2.840000000000000E+02,      /* K = 43 */
(PID.TID 0000.0001)                 3.070000000000000E+02,      /* K = 44 */
(PID.TID 0000.0001)                 3.300000000000000E+02,      /* K = 45 */
(PID.TID 0000.0001)                 3.530000000000000E+02,      /* K = 46 */
(PID.TID 0000.0001)                 3.760000000000000E+02,      /* K = 47 */
(PID.TID 0000.0001)                 3.990000000000000E+02,      /* K = 48 */
(PID.TID 0000.0001)                 4.220000000000000E+02,      /* K = 49 */
(PID.TID 0000.0001)                 4.450000000000000E+02,      /* K = 50 */
(PID.TID 0000.0001)                 2.282500000000000E+02       /* K = 51 */
(PID.TID 0000.0001)     ;
(PID.TID 0000.0001) drF =   /* W spacing ( units of r ) */
(PID.TID 0000.0001)     7 @  1.000000000000000E+01,             /* K =  1:  7 */
(PID.TID 0000.0001)                 1.001000000000000E+01,      /* K =  8 */
(PID.TID 0000.0001)                 1.003000000000000E+01,      /* K =  9 */
(PID.TID 0000.0001)                 1.011000000000000E+01,      /* K = 10 */
(PID.TID 0000.0001)                 1.032000000000000E+01,      /* K = 11 */
(PID.TID 0000.0001)                 1.080000000000000E+01,      /* K = 12 */
(PID.TID 0000.0001)                 1.176000000000000E+01,      /* K = 13 */
(PID.TID 0000.0001)                 1.342000000000000E+01,      /* K = 14 */
(PID.TID 0000.0001)                 1.604000000000000E+01,      /* K = 15 */
(PID.TID 0000.0001)                 1.982000000000000E+01,      /* K = 16 */
(PID.TID 0000.0001)                 2.485000000000000E+01,      /* K = 17 */
(PID.TID 0000.0001)                 3.110000000000000E+01,      /* K = 18 */
(PID.TID 0000.0001)                 3.842000000000000E+01,      /* K = 19 */
(PID.TID 0000.0001)                 4.650000000000000E+01,      /* K = 20 */
(PID.TID 0000.0001)                 5.500000000000000E+01,      /* K = 21 */
(PID.TID 0000.0001)                 6.350000000000000E+01,      /* K = 22 */
(PID.TID 0000.0001)                 7.158000000000000E+01,      /* K = 23 */
(PID.TID 0000.0001)                 7.890000000000001E+01,      /* K = 24 */
(PID.TID 0000.0001)                 8.515000000000001E+01,      /* K = 25 */
(PID.TID 0000.0001)                 9.018000000000001E+01,      /* K = 26 */
(PID.TID 0000.0001)                 9.395999999999999E+01,      /* K = 27 */
(PID.TID 0000.0001)                 9.658000000000000E+01,      /* K = 28 */
(PID.TID 0000.0001)                 9.825000000000000E+01,      /* K = 29 */
(PID.TID 0000.0001)                 9.925000000000000E+01,      /* K = 30 */
(PID.TID 0000.0001)                 1.000100000000000E+02,      /* K = 31 */
(PID.TID 0000.0001)                 1.013300000000000E+02,      /* K = 32 */
(PID.TID 0000.0001)                 1.045600000000000E+02,      /* K = 33 */
(PID.TID 0000.0001)                 1.113300000000000E+02,      /* K = 34 */
(PID.TID 0000.0001)                 1.228300000000000E+02,      /* K = 35 */
(PID.TID 0000.0001)                 1.390900000000000E+02,      /* K = 36 */
(PID.TID 0000.0001)                 1.589400000000000E+02,      /* K = 37 */
(PID.TID 0000.0001)                 1.808300000000000E+02,      /* K = 38 */
(PID.TID 0000.0001)                 2.035500000000000E+02,      /* K = 39 */
(PID.TID 0000.0001)                 2.265000000000000E+02,      /* K = 40 */
(PID.TID 0000.0001)                 2.495000000000000E+02,      /* K = 41 */
(PID.TID 0000.0001)                 2.725000000000000E+02,      /* K = 42 */
(PID.TID 0000.0001)                 2.955000000000000E+02,      /* K = 43 */
(PID.TID 0000.0001)                 3.185000000000000E+02,      /* K = 44 */
(PID.TID 0000.0001)                 3.415000000000000E+02,      /* K = 45 */
(PID.TID 0000.0001)                 3.645000000000000E+02,      /* K = 46 */
(PID.TID 0000.0001)                 3.875000000000000E+02,      /* K = 47 */
(PID.TID 0000.0001)                 4.105000000000000E+02,      /* K = 48 */
(PID.TID 0000.0001)                 4.335000000000000E+02,      /* K = 49 */
(PID.TID 0000.0001)                 4.565000000000000E+02       /* K = 50 */
(PID.TID 0000.0001)     ;
(PID.TID 0000.0001) radius_fromHorizGrid = /* sphere Radius of input horiz. grid */
(PID.TID 0000.0001)                 6.370000000000000E+06
(PID.TID 0000.0001)     ;
(PID.TID 0000.0001) rSphere =  /* Radius ( ignored - cartesian, m - spherical ) */
(PID.TID 0000.0001)                 6.370000000000000E+06
(PID.TID 0000.0001)     ;
(PID.TID 0000.0001) deepAtmosphere = /* Deep/Shallow Atmosphere flag (True/False) */
(PID.TID 0000.0001)                   F
(PID.TID 0000.0001)     ;
(PID.TID 0000.0001) xC =  /* xC(:,1,:,1) : P-point X coord ( deg. or m if cartesian) */
(PID.TID 0000.0001)                -4.081468768806280E+01,      /* I =  1 */
(PID.TID 0000.0001)                -3.957104986057077E+01,      /* I =  2 */
(PID.TID 0000.0001)                -3.832217028656162E+01,      /* I =  3 */
(PID.TID 0000.0001)                -3.706844413107324E+01,      /* I =  4 */
(PID.TID 0000.0001)                -3.581028225779612E+01,      /* I =  5 */
(PID.TID 0000.0001)                -3.454811012006861E+01,      /* I =  6 */
(PID.TID 0000.0001)                -3.328236654497336E+01,      /* I =  7 */
(PID.TID 0000.0001)                -3.201350241727823E+01,      /* I =  8 */
(PID.TID 0000.0001)                -3.074197927113779E+01,      /* I =  9 */
(PID.TID 0000.0001)                -2.946826779826338E+01,      /* I = 10 */
(PID.TID 0000.0001)                -2.819284628214859E+01,      /* I = 11 */
(PID.TID 0000.0001)                -2.691619896217756E+01,      /* I = 12 */
(PID.TID 0000.0001)                -2.563881425705264E+01,      /* I = 13 */
(PID.TID 0000.0001)                -2.436118574294736E+01,      /* I = 14 */
(PID.TID 0000.0001)                -2.308380103782244E+01,      /* I = 15 */
(PID.TID 0000.0001)                -2.180715371785141E+01,      /* I = 16 */
(PID.TID 0000.0001)                -2.053173220173662E+01,      /* I = 17 */
(PID.TID 0000.0001)                -1.925802072886221E+01,      /* I = 18 */
(PID.TID 0000.0001)                -1.798649758272177E+01,      /* I = 19 */
(PID.TID 0000.0001)                -1.671763345502664E+01,      /* I = 20 */
(PID.TID 0000.0001)                -1.545188987993139E+01,      /* I = 21 */
(PID.TID 0000.0001)                -1.418971774220388E+01,      /* I = 22 */
(PID.TID 0000.0001)                -1.293155586892676E+01,      /* I = 23 */
(PID.TID 0000.0001)                -1.167782971343838E+01,      /* I = 24 */
(PID.TID 0000.0001)                -1.042895013942923E+01,      /* I = 25 */
(PID.TID 0000.0001)                -9.185312311937196E+00,      /* I = 26 */
(PID.TID 0000.0001)                -7.947294700425999E+00,      /* I = 27 */
(PID.TID 0000.0001)                -6.715258197621779E+00,      /* I = 28 */
(PID.TID 0000.0001)                -5.489545357070952E+00,      /* I = 29 */
(PID.TID 0000.0001)                -4.270479749729759E+00       /* I = 30 */
(PID.TID 0000.0001)     ;
(PID.TID 0000.0001) yC =  /* yC(1,:,1,:) : P-point Y coord ( deg. or m if cartesian) */
(PID.TID 0000.0001)                -8.146222940368236E+01,      /* J =  1 */
(PID.TID 0000.0001)                -8.113083815286421E+01,      /* J =  2 */
(PID.TID 0000.0001)                -8.079504828233755E+01,      /* J =  3 */
(PID.TID 0000.0001)                -8.045491317322768E+01,      /* J =  4 */
(PID.TID 0000.0001)                -8.011048280590389E+01,      /* J =  5 */
(PID.TID 0000.0001)                -7.976180430515704E+01,      /* J =  6 */
(PID.TID 0000.0001)                -7.940892240526760E+01,      /* J =  7 */
(PID.TID 0000.0001)                -7.905187984845006E+01,      /* J =  8 */
(PID.TID 0000.0001)                -7.869071772754813E+01,      /* J =  9 */
(PID.TID 0000.0001)                -7.832547578199167E+01,      /* J = 10 */
(PID.TID 0000.0001)                -7.795619265432416E+01,      /* J = 11 */
(PID.TID 0000.0001)                -7.758290611340497E+01,      /* J = 12 */
(PID.TID 0000.0001)                -7.720565324926896E+01,      /* J = 13 */
(PID.TID 0000.0001)                -7.682447064385434E+01,      /* J = 14 */
(PID.TID 0000.0001)                -7.643939452107085E+01,      /* J = 15 */
(PID.TID 0000.0001)                -7.605046087901695E+01,      /* J = 16 */
(PID.TID 0000.0001)                -7.565770560699295E+01,      /* J = 17 */
(PID.TID 0000.0001)                -7.526116458910658E+01,      /* J = 18 */
(PID.TID 0000.0001)                -7.486087379640449E+01,      /* J = 19 */
(PID.TID 0000.0001)                -7.445686936886233E+01,      /* J = 20 */
(PID.TID 0000.0001)                -7.404918768854837E+01,      /* J = 21 */
(PID.TID 0000.0001)                -7.363786544493549E+01,      /* J = 22 */
(PID.TID 0000.0001)                -7.322293969328220E+01,      /* J = 23 */
(PID.TID 0000.0001)                -7.280444790682334E+01,      /* J = 24 */
(PID.TID 0000.0001)                -7.238242802328044E+01,      /* J = 25 */
(PID.TID 0000.0001)                -7.195691848614972E+01,      /* J = 26 */
(PID.TID 0000.0001)                -7.152795828082729E+01,      /* J = 27 */
(PID.TID 0000.0001)                -7.109558696482472E+01,      /* J = 28 */
(PID.TID 0000.0001)                -7.065984468855757E+01,      /* J = 29 */
(PID.TID 0000.0001)                -7.022077218177122E+01       /* J = 30 */
(PID.TID 0000.0001)     ;
(PID.TID 0000.0001) rcoord = /* P-point R coordinate (  units of r ) */
(PID.TID 0000.0001)                -5.000000000000000E+00,      /* K =  1 */
(PID.TID 0000.0001)                -1.500000000000000E+01,      /* K =  2 */
(PID.TID 0000.0001)                -2.500000000000000E+01,      /* K =  3 */
(PID.TID 0000.0001)                -3.500000000000000E+01,      /* K =  4 */
(PID.TID 0000.0001)                -4.500000000000000E+01,      /* K =  5 */
(PID.TID 0000.0001)                -5.500000000000000E+01,      /* K =  6 */
(PID.TID 0000.0001)                -6.500000000000000E+01,      /* K =  7 */
(PID.TID 0000.0001)                -7.500500000000000E+01,      /* K =  8 */
(PID.TID 0000.0001)                -8.502499999999999E+01,      /* K =  9 */
(PID.TID 0000.0001)                -9.509500000000000E+01,      /* K = 10 */
(PID.TID 0000.0001)                -1.053100000000000E+02,      /* K = 11 */
(PID.TID 0000.0001)                -1.158700000000000E+02,      /* K = 12 */
(PID.TID 0000.0001)                -1.271500000000000E+02,      /* K = 13 */
(PID.TID 0000.0001)                -1.397400000000000E+02,      /* K = 14 */
(PID.TID 0000.0001)                -1.544700000000000E+02,      /* K = 15 */
(PID.TID 0000.0001)                -1.724000000000000E+02,      /* K = 16 */
(PID.TID 0000.0001)                -1.947350000000000E+02,      /* K = 17 */
(PID.TID 0000.0001)                -2.227100000000000E+02,      /* K = 18 */
(PID.TID 0000.0001)                -2.574700000000000E+02,      /* K = 19 */
(PID.TID 0000.0001)                -2.999300000000000E+02,      /* K = 20 */
(PID.TID 0000.0001)                -3.506800000000000E+02,      /* K = 21 */
(PID.TID 0000.0001)                -4.099300000000000E+02,      /* K = 22 */
(PID.TID 0000.0001)                -4.774700000000000E+02,      /* K = 23 */
(PID.TID 0000.0001)                -5.527100000000000E+02,      /* K = 24 */
(PID.TID 0000.0001)                -6.347350000000000E+02,      /* K = 25 */
(PID.TID 0000.0001)                -7.224000000000000E+02,      /* K = 26 */
(PID.TID 0000.0001)                -8.144700000000000E+02,      /* K = 27 */
(PID.TID 0000.0001)                -9.097400000000000E+02,      /* K = 28 */
(PID.TID 0000.0001)                -1.007155000000000E+03,      /* K = 29 */
(PID.TID 0000.0001)                -1.105905000000000E+03,      /* K = 30 */
(PID.TID 0000.0001)                -1.205535000000000E+03,      /* K = 31 */
(PID.TID 0000.0001)                -1.306205000000000E+03,      /* K = 32 */
(PID.TID 0000.0001)                -1.409150000000000E+03,      /* K = 33 */
(PID.TID 0000.0001)                -1.517095000000000E+03,      /* K = 34 */
(PID.TID 0000.0001)                -1.634175000000000E+03,      /* K = 35 */
(PID.TID 0000.0001)                -1.765135000000000E+03,      /* K = 36 */
(PID.TID 0000.0001)                -1.914150000000000E+03,      /* K = 37 */
(PID.TID 0000.0001)                -2.084035000000000E+03,      /* K = 38 */
(PID.TID 0000.0001)                -2.276225000000000E+03,      /* K = 39 */
(PID.TID 0000.0001)                -2.491250000000000E+03,      /* K = 40 */
(PID.TID 0000.0001)                -2.729250000000000E+03,      /* K = 41 */
(PID.TID 0000.0001)                -2.990250000000000E+03,      /* K = 42 */
(PID.TID 0000.0001)                -3.274250000000000E+03,      /* K = 43 */
(PID.TID 0000.0001)                -3.581250000000000E+03,      /* K = 44 */
(PID.TID 0000.0001)                -3.911250000000000E+03,      /* K = 45 */
(PID.TID 0000.0001)                -4.264250000000000E+03,      /* K = 46 */
(PID.TID 0000.0001)                -4.640250000000000E+03,      /* K = 47 */
(PID.TID 0000.0001)                -5.039250000000000E+03,      /* K = 48 */
(PID.TID 0000.0001)                -5.461250000000000E+03,      /* K = 49 */
(PID.TID 0000.0001)                -5.906250000000000E+03       /* K = 50 */
(PID.TID 0000.0001)     ;
(PID.TID 0000.0001) rF =   /* W-Interf. R coordinate (  units of r ) */
(PID.TID 0000.0001)                 0.000000000000000E+00,      /* K =  1 */
(PID.TID 0000.0001)                -1.000000000000000E+01,      /* K =  2 */
(PID.TID 0000.0001)                -2.000000000000000E+01,      /* K =  3 */
(PID.TID 0000.0001)                -3.000000000000000E+01,      /* K =  4 */
(PID.TID 0000.0001)                -4.000000000000000E+01,      /* K =  5 */
(PID.TID 0000.0001)                -5.000000000000000E+01,      /* K =  6 */
(PID.TID 0000.0001)                -6.000000000000000E+01,      /* K =  7 */
(PID.TID 0000.0001)                -7.000000000000000E+01,      /* K =  8 */
(PID.TID 0000.0001)                -8.001000000000001E+01,      /* K =  9 */
(PID.TID 0000.0001)                -9.004000000000001E+01,      /* K = 10 */
(PID.TID 0000.0001)                -1.001500000000000E+02,      /* K = 11 */
(PID.TID 0000.0001)                -1.104700000000000E+02,      /* K = 12 */
(PID.TID 0000.0001)                -1.212700000000000E+02,      /* K = 13 */
(PID.TID 0000.0001)                -1.330300000000000E+02,      /* K = 14 */
(PID.TID 0000.0001)                -1.464500000000000E+02,      /* K = 15 */
(PID.TID 0000.0001)                -1.624900000000000E+02,      /* K = 16 */
(PID.TID 0000.0001)                -1.823100000000000E+02,      /* K = 17 */
(PID.TID 0000.0001)                -2.071600000000000E+02,      /* K = 18 */
(PID.TID 0000.0001)                -2.382600000000000E+02,      /* K = 19 */
(PID.TID 0000.0001)                -2.766799999999999E+02,      /* K = 20 */
(PID.TID 0000.0001)                -3.231799999999999E+02,      /* K = 21 */
(PID.TID 0000.0001)                -3.781799999999999E+02,      /* K = 22 */
(PID.TID 0000.0001)                -4.416799999999999E+02,      /* K = 23 */
(PID.TID 0000.0001)                -5.132600000000000E+02,      /* K = 24 */
(PID.TID 0000.0001)                -5.921600000000000E+02,      /* K = 25 */
(PID.TID 0000.0001)                -6.773099999999999E+02,      /* K = 26 */
(PID.TID 0000.0001)                -7.674900000000000E+02,      /* K = 27 */
(PID.TID 0000.0001)                -8.614500000000000E+02,      /* K = 28 */
(PID.TID 0000.0001)                -9.580300000000001E+02,      /* K = 29 */
(PID.TID 0000.0001)                -1.056280000000000E+03,      /* K = 30 */
(PID.TID 0000.0001)                -1.155530000000000E+03,      /* K = 31 */
(PID.TID 0000.0001)                -1.255540000000000E+03,      /* K = 32 */
(PID.TID 0000.0001)                -1.356870000000000E+03,      /* K = 33 */
(PID.TID 0000.0001)                -1.461430000000000E+03,      /* K = 34 */
(PID.TID 0000.0001)                -1.572760000000000E+03,      /* K = 35 */
(PID.TID 0000.0001)                -1.695590000000000E+03,      /* K = 36 */
(PID.TID 0000.0001)                -1.834680000000000E+03,      /* K = 37 */
(PID.TID 0000.0001)                -1.993620000000000E+03,      /* K = 38 */
(PID.TID 0000.0001)                -2.174450000000000E+03,      /* K = 39 */
(PID.TID 0000.0001)                -2.378000000000000E+03,      /* K = 40 */
(PID.TID 0000.0001)                -2.604500000000000E+03,      /* K = 41 */
(PID.TID 0000.0001)                -2.854000000000000E+03,      /* K = 42 */
(PID.TID 0000.0001)                -3.126500000000000E+03,      /* K = 43 */
(PID.TID 0000.0001)                -3.422000000000000E+03,      /* K = 44 */
(PID.TID 0000.0001)                -3.740500000000000E+03,      /* K = 45 */
(PID.TID 0000.0001)                -4.082000000000000E+03,      /* K = 46 */
(PID.TID 0000.0001)                -4.446500000000000E+03,      /* K = 47 */
(PID.TID 0000.0001)                -4.834000000000000E+03,      /* K = 48 */
(PID.TID 0000.0001)                -5.244500000000000E+03,      /* K = 49 */
(PID.TID 0000.0001)                -5.678000000000000E+03,      /* K = 50 */
(PID.TID 0000.0001)                -6.134500000000000E+03       /* K = 51 */
(PID.TID 0000.0001)     ;
(PID.TID 0000.0001) deepFacC = /* deep-model grid factor @ cell-Center (-) */
(PID.TID 0000.0001)    50 @  1.000000000000000E+00              /* K =  1: 50 */
(PID.TID 0000.0001)     ;
(PID.TID 0000.0001) deepFacF = /* deep-model grid factor @ W-Interface (-) */
(PID.TID 0000.0001)    51 @  1.000000000000000E+00              /* K =  1: 51 */
(PID.TID 0000.0001)     ;
(PID.TID 0000.0001) rVel2wUnit = /* convert units: rVel -> wSpeed (=1 if z-coord)*/
(PID.TID 0000.0001)    51 @  1.000000000000000E+00              /* K =  1: 51 */
(PID.TID 0000.0001)     ;
(PID.TID 0000.0001) wUnit2rVel = /* convert units: wSpeed -> rVel (=1 if z-coord)*/
(PID.TID 0000.0001)    51 @  1.000000000000000E+00              /* K =  1: 51 */
(PID.TID 0000.0001)     ;
(PID.TID 0000.0001) dBdrRef = /* Vertical grad. of reference buoyancy [(m/s/r)^2] */
(PID.TID 0000.0001)     3 @  0.000000000000000E+00,             /* K =  1:  3 */
(PID.TID 0000.0001)                 2.706065538651213E-04,      /* K =  4 */
(PID.TID 0000.0001)     2 @  0.000000000000000E+00,             /* K =  5:  6 */
(PID.TID 0000.0001)                 2.632794562663490E-04,      /* K =  7 */
(PID.TID 0000.0001)                 2.554318021231947E-04,      /* K =  8 */
(PID.TID 0000.0001)                 0.000000000000000E+00,      /* K =  9 */
(PID.TID 0000.0001)                 2.461524232360561E-04,      /* K = 10 */
(PID.TID 0000.0001)                 2.348694431245364E-04,      /* K = 11 */
(PID.TID 0000.0001)                 0.000000000000000E+00,      /* K = 12 */
(PID.TID 0000.0001)                 2.056847859884566E-04,      /* K = 13 */
(PID.TID 0000.0001)                 1.777764506003336E-04,      /* K = 14 */
(PID.TID 0000.0001)                 0.000000000000000E+00,      /* K = 15 */
(PID.TID 0000.0001)                 1.203533867077665E-04,      /* K = 16 */
(PID.TID 0000.0001)                 9.288540355629585E-05,      /* K = 17 */
(PID.TID 0000.0001)                 7.115862770365155E-05,      /* K = 18 */
(PID.TID 0000.0001)                 5.484365820533800E-05,      /* K = 19 */
(PID.TID 0000.0001)                 4.290935507113214E-05,      /* K = 20 */
(PID.TID 0000.0001)                 6.658747741703880E-05,      /* K = 21 */
(PID.TID 0000.0001)                 0.000000000000000E+00,      /* K = 22 */
(PID.TID 0000.0001)                 2.323718420342036E-05,      /* K = 23 */
(PID.TID 0000.0001)                 1.974682037962757E-05,      /* K = 24 */
(PID.TID 0000.0001)                 1.709468932536602E-05,      /* K = 25 */
(PID.TID 0000.0001)                 0.000000000000000E+00,      /* K = 26 */
(PID.TID 0000.0001)                 1.455436545977052E-05,      /* K = 27 */
(PID.TID 0000.0001)                 0.000000000000000E+00,      /* K = 28 */
(PID.TID 0000.0001)                 1.315287111980149E-05,      /* K = 29 */
(PID.TID 0000.0001)     2 @  0.000000000000000E+00,             /* K = 30: 31 */
(PID.TID 0000.0001)                 1.240968507885233E-05,      /* K = 32 */
(PID.TID 0000.0001)     2 @  0.000000000000000E+00,             /* K = 33: 34 */
(PID.TID 0000.0001)                 1.045141607964570E-05,      /* K = 35 */
(PID.TID 0000.0001)     3 @  0.000000000000000E+00,             /* K = 36: 38 */
(PID.TID 0000.0001)                 6.628797113709505E-06,      /* K = 39 */
(PID.TID 0000.0001)    11 @  0.000000000000000E+00              /* K = 40: 50 */
(PID.TID 0000.0001)     ;
(PID.TID 0000.0001) rotateGrid = /* use rotated grid ( True/False ) */
(PID.TID 0000.0001)                   F
(PID.TID 0000.0001)     ;
(PID.TID 0000.0001) phiEuler = /* Euler angle, rotation about original z-coordinate [rad] */
(PID.TID 0000.0001)                 0.000000000000000E+00
(PID.TID 0000.0001)     ;
(PID.TID 0000.0001) thetaEuler = /* Euler angle, rotation about new x-coordinate [rad] */
(PID.TID 0000.0001)                 0.000000000000000E+00
(PID.TID 0000.0001)     ;
(PID.TID 0000.0001) psiEuler = /* Euler angle, rotation about new z-coordinate [rad] */
(PID.TID 0000.0001)                 0.000000000000000E+00
(PID.TID 0000.0001)     ;
(PID.TID 0000.0001) dxF =  /* dxF(:,1,:,1) ( units: m ) */
(PID.TID 0000.0001)                 2.071152825743187E+04,      /* I =  1 */
(PID.TID 0000.0001)                 2.070365142756831E+04,      /* I =  2 */
(PID.TID 0000.0001)                 2.069635296570141E+04,      /* I =  3 */
(PID.TID 0000.0001)                 2.068965358413176E+04,      /* I =  4 */
(PID.TID 0000.0001)                 2.068357195583360E+04,      /* I =  5 */
(PID.TID 0000.0001)                 2.067812475356784E+04,      /* I =  6 */
(PID.TID 0000.0001)                 2.067332670125947E+04,      /* I =  7 */
(PID.TID 0000.0001)                 2.066919060389092E+04,      /* I =  8 */
(PID.TID 0000.0001)                 2.066572738985245E+04,      /* I =  9 */
(PID.TID 0000.0001)                 2.066294615597989E+04,      /* I = 10 */
(PID.TID 0000.0001)                 2.066085425372315E+04,      /* I = 11 */
(PID.TID 0000.0001)                 2.065945771525925E+04,      /* I = 12 */
(PID.TID 0000.0001)                 2.065874381268158E+04,      /* I = 13 */
(PID.TID 0000.0001)                 2.065874381268158E+04,      /* I = 14 */
(PID.TID 0000.0001)                 2.065945771525925E+04,      /* I = 15 */
(PID.TID 0000.0001)                 2.066085425372316E+04,      /* I = 16 */
(PID.TID 0000.0001)                 2.066294615597989E+04,      /* I = 17 */
(PID.TID 0000.0001)                 2.066572738985245E+04,      /* I = 18 */
(PID.TID 0000.0001)                 2.066919060389088E+04,      /* I = 19 */
(PID.TID 0000.0001)                 2.067332670125956E+04,      /* I = 20 */
(PID.TID 0000.0001)                 2.067812475356780E+04,      /* I = 21 */
(PID.TID 0000.0001)                 2.068357195583360E+04,      /* I = 22 */
(PID.TID 0000.0001)                 2.068965358413182E+04,      /* I = 23 */
(PID.TID 0000.0001)                 2.069635296570133E+04,      /* I = 24 */
(PID.TID 0000.0001)                 2.070365142756836E+04,      /* I = 25 */
(PID.TID 0000.0001)                 2.071152825743182E+04,      /* I = 26 */
(PID.TID 0000.0001)                 2.071996065138743E+04,      /* I = 27 */
(PID.TID 0000.0001)                 2.072892365863983E+04,      /* I = 28 */
(PID.TID 0000.0001)                 2.073839012765668E+04,      /* I = 29 */
(PID.TID 0000.0001)                 2.074833063718403E+04       /* I = 30 */
(PID.TID 0000.0001)     ;
(PID.TID 0000.0001) dxF =  /* dxF(1,:,1,:) ( units: m ) */
(PID.TID 0000.0001)                 2.071152825743187E+04,      /* J =  1 */
(PID.TID 0000.0001)                 2.109117491456033E+04,      /* J =  2 */
(PID.TID 0000.0001)                 2.148525648961724E+04,      /* J =  3 */
(PID.TID 0000.0001)                 2.189377348588603E+04,      /* J =  4 */
(PID.TID 0000.0001)                 2.231672440915243E+04,      /* J =  5 */
(PID.TID 0000.0001)                 2.275410689480659E+04,      /* J =  6 */
(PID.TID 0000.0001)                 2.320591873318126E+04,      /* J =  7 */
(PID.TID 0000.0001)                 2.367215879054831E+04,      /* J =  8 */
(PID.TID 0000.0001)                 2.415282782538908E+04,      /* J =  9 */
(PID.TID 0000.0001)                 2.464792920101809E+04,      /* J = 10 */
(PID.TID 0000.0001)                 2.515746949702995E+04,      /* J = 11 */
(PID.TID 0000.0001)                 2.568145902315334E+04,      /* J = 12 */
(PID.TID 0000.0001)                 2.621991223981432E+04,      /* J = 13 */
(PID.TID 0000.0001)                 2.677284809033052E+04,      /* J = 14 */
(PID.TID 0000.0001)                 2.734029025013979E+04,      /* J = 15 */
(PID.TID 0000.0001)                 2.792226729855568E+04,      /* J = 16 */
(PID.TID 0000.0001)                 2.851881281852892E+04,      /* J = 17 */
(PID.TID 0000.0001)                 2.912996543046302E+04,      /* J = 18 */
(PID.TID 0000.0001)                 2.975576876502299E+04,      /* J = 19 */
(PID.TID 0000.0001)                 3.039627138062681E+04,      /* J = 20 */
(PID.TID 0000.0001)                 3.105152663065675E+04,      /* J = 21 */
(PID.TID 0000.0001)                 3.172159248542454E+04,      /* J = 22 */
(PID.TID 0000.0001)                 3.240653131349731E+04,      /* J = 23 */
(PID.TID 0000.0001)                 3.310640962675057E+04,      /* J = 24 */
(PID.TID 0000.0001)                 3.382129779388320E+04,      /* J = 25 */
(PID.TID 0000.0001)                 3.455126972555294E+04,      /* J = 26 */
(PID.TID 0000.0001)                 3.529640253603521E+04,      /* J = 27 */
(PID.TID 0000.0001)                 3.605677618612848E+04,      /* J = 28 */
(PID.TID 0000.0001)                 3.683247311866502E+04,      /* J = 29 */
(PID.TID 0000.0001)                 3.762357793548112E+04       /* J = 30 */
(PID.TID 0000.0001)     ;
(PID.TID 0000.0001) dyF =  /* dyF(:,1,:,1) ( units: m ) */
(PID.TID 0000.0001)                 3.700742300337598E+04,      /* I =  1 */
(PID.TID 0000.0001)                 3.707905556394973E+04,      /* I =  2 */
(PID.TID 0000.0001)                 3.714471828319018E+04,      /* I =  3 */
(PID.TID 0000.0001)                 3.720441078960103E+04,      /* I =  4 */
(PID.TID 0000.0001)                 3.725813297080282E+04,      /* I =  5 */
(PID.TID 0000.0001)                 3.730588490725751E+04,      /* I =  6 */
(PID.TID 0000.0001)                 3.734766681359038E+04,      /* I =  7 */
(PID.TID 0000.0001)                 3.738347898712025E+04,      /* I =  8 */
(PID.TID 0000.0001)                 3.741332176340629E+04,      /* I =  9 */
(PID.TID 0000.0001)                 3.743719547859261E+04,      /* I = 10 */
(PID.TID 0000.0001)                 3.745510043824806E+04,      /* I = 11 */
(PID.TID 0000.0001)                 3.746703689267323E+04,      /* I = 12 */
(PID.TID 0000.0001)     2 @  3.747300501832417E+04,             /* I = 13: 14 */
(PID.TID 0000.0001)                 3.746703689267323E+04,      /* I = 15 */
(PID.TID 0000.0001)                 3.745510043824806E+04,      /* I = 16 */
(PID.TID 0000.0001)                 3.743719547859261E+04,      /* I = 17 */
(PID.TID 0000.0001)                 3.741332176340628E+04,      /* I = 18 */
(PID.TID 0000.0001)                 3.738347898712024E+04,      /* I = 19 */
(PID.TID 0000.0001)                 3.734766681359040E+04,      /* I = 20 */
(PID.TID 0000.0001)                 3.730588490725750E+04,      /* I = 21 */
(PID.TID 0000.0001)                 3.725813297080281E+04,      /* I = 22 */
(PID.TID 0000.0001)                 3.720441078960103E+04,      /* I = 23 */
(PID.TID 0000.0001)                 3.714471828319017E+04,      /* I = 24 */
(PID.TID 0000.0001)                 3.707905556394973E+04,      /* I = 25 */
(PID.TID 0000.0001)                 3.700742300337599E+04,      /* I = 26 */
(PID.TID 0000.0001)                 3.692982130617692E+04,      /* I = 27 */
(PID.TID 0000.0001)                 3.684625159269555E+04,      /* I = 28 */
(PID.TID 0000.0001)                 3.675671548992459E+04,      /* I = 29 */
(PID.TID 0000.0001)                 3.666121523181524E+04       /* I = 30 */
(PID.TID 0000.0001)     ;
(PID.TID 0000.0001) dyF =  /* dyF(1,:,1,:) ( units: m ) */
(PID.TID 0000.0001)                 3.700742300337598E+04,      /* J =  1 */
(PID.TID 0000.0001)                 3.745555642044499E+04,      /* J =  2 */
(PID.TID 0000.0001)                 3.790206217653974E+04,      /* J =  3 */
(PID.TID 0000.0001)                 3.834684105117956E+04,      /* J =  4 */
(PID.TID 0000.0001)                 3.878979459357282E+04,      /* J =  5 */
(PID.TID 0000.0001)                 3.923082521328924E+04,      /* J =  6 */
(PID.TID 0000.0001)                 3.966983623246408E+04,      /* J =  7 */
(PID.TID 0000.0001)                 4.010673190475840E+04,      /* J =  8 */
(PID.TID 0000.0001)                 4.054141740950450E+04,      /* J =  9 */
(PID.TID 0000.0001)                 4.097379882434454E+04,      /* J = 10 */
(PID.TID 0000.0001)                 4.140378308084428E+04,      /* J = 11 */
(PID.TID 0000.0001)                 4.183127790875583E+04,      /* J = 12 */
(PID.TID 0000.0001)                 4.225619177206317E+04,      /* J = 13 */
(PID.TID 0000.0001)                 4.267843379867976E+04,      /* J = 14 */
(PID.TID 0000.0001)                 4.309791371221616E+04,      /* J = 15 */
(PID.TID 0000.0001)                 4.351454176087940E+04,      /* J = 16 */
(PID.TID 0000.0001)                 4.392822864881465E+04,      /* J = 17 */
(PID.TID 0000.0001)                 4.433888547805120E+04,      /* J = 18 */
(PID.TID 0000.0001)                 4.474642369096899E+04,      /* J = 19 */
(PID.TID 0000.0001)                 4.515075502217317E+04,      /* J = 20 */
(PID.TID 0000.0001)                 4.555179145554101E+04,      /* J = 21 */
(PID.TID 0000.0001)                 4.594944520275577E+04,      /* J = 22 */
(PID.TID 0000.0001)                 4.634362867401398E+04,      /* J = 23 */
(PID.TID 0000.0001)                 4.673425447947427E+04,      /* J = 24 */
(PID.TID 0000.0001)                 4.712123544873745E+04,      /* J = 25 */
(PID.TID 0000.0001)                 4.750448467975499E+04,      /* J = 26 */
(PID.TID 0000.0001)                 4.788391567392174E+04,      /* J = 27 */
(PID.TID 0000.0001)                 4.825944271092693E+04,      /* J = 28 */
(PID.TID 0000.0001)                 4.863098220111143E+04,      /* J = 29 */
(PID.TID 0000.0001)                 4.899845499569884E+04       /* J = 30 */
(PID.TID 0000.0001)     ;
(PID.TID 0000.0001) dxG =  /* dxG(:,1,:,1) ( units: m ) */
(PID.TID 0000.0001)                 2.052711702021451E+04,      /* I =  1 */
(PID.TID 0000.0001)                 2.051953983526162E+04,      /* I =  2 */
(PID.TID 0000.0001)                 2.051251425926268E+04,      /* I =  3 */
(PID.TID 0000.0001)                 2.050606148013825E+04,      /* I =  4 */
(PID.TID 0000.0001)                 2.050020059906299E+04,      /* I =  5 */
(PID.TID 0000.0001)                 2.049494867086169E+04,      /* I =  6 */
(PID.TID 0000.0001)                 2.049032075633103E+04,      /* I =  7 */
(PID.TID 0000.0001)                 2.048632995314923E+04,      /* I =  8 */
(PID.TID 0000.0001)                 2.048298743895549E+04,      /* I =  9 */
(PID.TID 0000.0001)                 2.048030251694177E+04,      /* I = 10 */
(PID.TID 0000.0001)                 2.047828270203973E+04,      /* I = 11 */
(PID.TID 0000.0001)                 2.047693414389448E+04,      /* I = 12 */
(PID.TID 0000.0001)     2 @  2.047624433858785E+04,             /* I = 13: 14 */
(PID.TID 0000.0001)                 2.047693414389443E+04,      /* I = 15 */
(PID.TID 0000.0001)                 2.047828270203978E+04,      /* I = 16 */
(PID.TID 0000.0001)                 2.048030251694177E+04,      /* I = 17 */
(PID.TID 0000.0001)                 2.048298743895548E+04,      /* I = 18 */
(PID.TID 0000.0001)                 2.048632995314927E+04,      /* I = 19 */
(PID.TID 0000.0001)                 2.049032075633093E+04,      /* I = 20 */
(PID.TID 0000.0001)                 2.049494867086174E+04,      /* I = 21 */
(PID.TID 0000.0001)                 2.050020059906297E+04,      /* I = 22 */
(PID.TID 0000.0001)                 2.050606148013830E+04,      /* I = 23 */
(PID.TID 0000.0001)                 2.051251425926268E+04,      /* I = 24 */
(PID.TID 0000.0001)                 2.051953983526163E+04,      /* I = 25 */
(PID.TID 0000.0001)                 2.052711702021443E+04,      /* I = 26 */
(PID.TID 0000.0001)                 2.053522248594683E+04,      /* I = 27 */
(PID.TID 0000.0001)                 2.054383070727552E+04,      /* I = 28 */
(PID.TID 0000.0001)                 2.055291390664790E+04,      /* I = 29 */
(PID.TID 0000.0001)                 2.056244198352907E+04       /* I = 30 */
(PID.TID 0000.0001)     ;
(PID.TID 0000.0001) dxG =  /* dxG(1,:,1,:) ( units: m ) */
(PID.TID 0000.0001)                 2.052711702021451E+04,      /* J =  1 */
(PID.TID 0000.0001)                 2.089954736357391E+04,      /* J =  2 */
(PID.TID 0000.0001)                 2.128641124518697E+04,      /* J =  3 */
(PID.TID 0000.0001)                 2.168771062037700E+04,      /* J =  4 */
(PID.TID 0000.0001)                 2.210344484655194E+04,      /* J =  5 */
(PID.TID 0000.0001)                 2.253361185972884E+04,      /* J =  6 */
(PID.TID 0000.0001)                 2.297820925105574E+04,      /* J =  7 */
(PID.TID 0000.0001)                 2.343723524028478E+04,      /* J =  8 */
(PID.TID 0000.0001)                 2.391068954427550E+04,      /* J =  9 */
(PID.TID 0000.0001)                 2.439857414125275E+04,      /* J = 10 */
(PID.TID 0000.0001)                 2.490089393241153E+04,      /* J = 11 */
(PID.TID 0000.0001)                 2.541765730414359E+04,      /* J = 12 */
(PID.TID 0000.0001)                 2.594887659459613E+04,      /* J = 13 */
(PID.TID 0000.0001)                 2.649456846940333E+04,      /* J = 14 */
(PID.TID 0000.0001)                 2.705475421181358E+04,      /* J = 15 */
(PID.TID 0000.0001)                 2.762945993231310E+04,      /* J = 16 */
(PID.TID 0000.0001)                 2.821871670385097E+04,      /* J = 17 */
(PID.TID 0000.0001)                 2.882256062780631E+04,      /* J = 18 */
(PID.TID 0000.0001)                 2.944103283669238E+04,      /* J = 19 */
(PID.TID 0000.0001)                 3.007417943861200E+04,      /* J = 20 */
(PID.TID 0000.0001)                 3.072205140902393E+04,      /* J = 21 */
(PID.TID 0000.0001)                 3.138470443467240E+04,      /* J = 22 */
(PID.TID 0000.0001)                 3.206219871470027E+04,      /* J = 23 */
(PID.TID 0000.0001)                 3.275459872326910E+04,      /* J = 24 */
(PID.TID 0000.0001)                 3.346197293831744E+04,      /* J = 25 */
(PID.TID 0000.0001)                 3.418439354048331E+04,      /* J = 26 */
(PID.TID 0000.0001)                 3.492193608585089E+04,      /* J = 27 */
(PID.TID 0000.0001)                 3.567467915738818E+04,      /* J = 28 */
(PID.TID 0000.0001)                 3.644270400216877E+04,      /* J = 29 */
(PID.TID 0000.0001)                 3.722609417427087E+04       /* J = 30 */
(PID.TID 0000.0001)     ;
(PID.TID 0000.0001) dyG =  /* dyG(:,1,:,1) ( units: m ) */
(PID.TID 0000.0001)                 3.696936823759973E+04,      /* I =  1 */
(PID.TID 0000.0001)                 3.704398547852144E+04,      /* I =  2 */
(PID.TID 0000.0001)                 3.711263318385338E+04,      /* I =  3 */
(PID.TID 0000.0001)                 3.717531082528212E+04,      /* I =  4 */
(PID.TID 0000.0001)                 3.723201816961422E+04,      /* I =  5 */
(PID.TID 0000.0001)                 3.728275520872145E+04,      /* I =  6 */
(PID.TID 0000.0001)                 3.732752209699158E+04,      /* I =  7 */
(PID.TID 0000.0001)                 3.736631909640826E+04,      /* I =  8 */
(PID.TID 0000.0001)                 3.739914652852553E+04,      /* I =  9 */
(PID.TID 0000.0001)                 3.742600473350589E+04,      /* I = 10 */
(PID.TID 0000.0001)                 3.744689403567852E+04,      /* I = 11 */
(PID.TID 0000.0001)                 3.746181471567877E+04,      /* I = 12 */
(PID.TID 0000.0001)                 3.747076698884368E+04,      /* I = 13 */
(PID.TID 0000.0001)                 3.747376174977726E+04,      /* I = 14 */
(PID.TID 0000.0001)                 3.747076698884368E+04,      /* I = 15 */
(PID.TID 0000.0001)                 3.746181471567877E+04,      /* I = 16 */
(PID.TID 0000.0001)                 3.744689403567852E+04,      /* I = 17 */
(PID.TID 0000.0001)                 3.742600473350589E+04,      /* I = 18 */
(PID.TID 0000.0001)                 3.739914652852552E+04,      /* I = 19 */
(PID.TID 0000.0001)                 3.736631909640826E+04,      /* I = 20 */
(PID.TID 0000.0001)                 3.732752209699157E+04,      /* I = 21 */
(PID.TID 0000.0001)                 3.728275520872146E+04,      /* I = 22 */
(PID.TID 0000.0001)                 3.723201816961422E+04,      /* I = 23 */
(PID.TID 0000.0001)                 3.717531082528211E+04,      /* I = 24 */
(PID.TID 0000.0001)                 3.711263318385338E+04,      /* I = 25 */
(PID.TID 0000.0001)                 3.704398547852145E+04,      /* I = 26 */
(PID.TID 0000.0001)                 3.696936823759972E+04,      /* I = 27 */
(PID.TID 0000.0001)                 3.688878236278851E+04,      /* I = 28 */
(PID.TID 0000.0001)                 3.680222921581766E+04,      /* I = 29 */
(PID.TID 0000.0001)                 3.670971071402137E+04       /* I = 30 */
(PID.TID 0000.0001)     ;
(PID.TID 0000.0001) dyG =  /* dyG(1,:,1,:) ( units: m ) */
(PID.TID 0000.0001)                 3.696936823759973E+04,      /* J =  1 */
(PID.TID 0000.0001)                 3.741746190559281E+04,      /* J =  2 */
(PID.TID 0000.0001)                 3.786390067184393E+04,      /* J =  3 */
(PID.TID 0000.0001)                 3.830858172733455E+04,      /* J =  4 */
(PID.TID 0000.0001)                 3.875140319955796E+04,      /* J =  5 */
(PID.TID 0000.0001)                 3.919226424948571E+04,      /* J =  6 */
(PID.TID 0000.0001)                 3.963106512715793E+04,      /* J =  7 */
(PID.TID 0000.0001)                 4.006770719102380E+04,      /* J =  8 */
(PID.TID 0000.0001)                 4.050209290047463E+04,      /* J =  9 */
(PID.TID 0000.0001)                 4.093412578484027E+04,      /* J = 10 */
(PID.TID 0000.0001)                 4.136371039407872E+04,      /* J = 11 */
(PID.TID 0000.0001)                 4.179075223673176E+04,      /* J = 12 */
(PID.TID 0000.0001)                 4.221515770920290E+04,      /* J = 13 */
(PID.TID 0000.0001)                 4.263683401805614E+04,      /* J = 14 */
(PID.TID 0000.0001)                 4.305568910412182E+04,      /* J = 15 */
(PID.TID 0000.0001)                 4.347163156363047E+04,      /* J = 16 */
(PID.TID 0000.0001)                 4.388457057225752E+04,      /* J = 17 */
(PID.TID 0000.0001)                 4.429441581934092E+04,      /* J = 18 */
(PID.TID 0000.0001)                 4.470107744374240E+04,      /* J = 19 */
(PID.TID 0000.0001)                 4.510446597891348E+04,      /* J = 20 */
(PID.TID 0000.0001)                 4.550449230395439E+04,      /* J = 21 */
(PID.TID 0000.0001)                 4.590106761654920E+04,      /* J = 22 */
(PID.TID 0000.0001)                 4.629410339849156E+04,      /* J = 23 */
(PID.TID 0000.0001)                 4.668351141269982E+04,      /* J = 24 */
(PID.TID 0000.0001)                 4.706920371856177E+04,      /* J = 25 */
(PID.TID 0000.0001)                 4.745109271730031E+04,      /* J = 26 */
(PID.TID 0000.0001)                 4.782909128417812E+04,      /* J = 27 */
(PID.TID 0000.0001)                 4.820311314005602E+04,      /* J = 28 */
(PID.TID 0000.0001)                 4.857307420014453E+04,      /* J = 29 */
(PID.TID 0000.0001)                 4.893889490827491E+04       /* J = 30 */
(PID.TID 0000.0001)     ;
(PID.TID 0000.0001) dxC =  /* dxC(:,1,:,1) ( units: m ) */
(PID.TID 0000.0001)                 2.071567651695695E+04,      /* I =  1 */
(PID.TID 0000.0001)                 2.070751892245589E+04,      /* I =  2 */
(PID.TID 0000.0001)                 2.069992855779408E+04,      /* I =  3 */
(PID.TID 0000.0001)                 2.069292717562287E+04,      /* I =  4 */
(PID.TID 0000.0001)                 2.068653446229046E+04,      /* I =  5 */
(PID.TID 0000.0001)                 2.068076808552306E+04,      /* I =  6 */
(PID.TID 0000.0001)                 2.067564373903614E+04,      /* I =  7 */
(PID.TID 0000.0001)                 2.067117518190149E+04,      /* I =  8 */
(PID.TID 0000.0001)                 2.066737427558298E+04,      /* I =  9 */
(PID.TID 0000.0001)                 2.066425102685107E+04,      /* I = 10 */
(PID.TID 0000.0001)                 2.066181364132844E+04,      /* I = 11 */
(PID.TID 0000.0001)                 2.066006869803818E+04,      /* I = 12 */
(PID.TID 0000.0001)                 2.065902266229015E+04,      /* I = 13 */
(PID.TID 0000.0001)                 2.065863826775786E+04,      /* I = 14 */
(PID.TID 0000.0001)                 2.065902266229016E+04,      /* I = 15 */
(PID.TID 0000.0001)                 2.066006869803813E+04,      /* I = 16 */
(PID.TID 0000.0001)                 2.066181364132850E+04,      /* I = 17 */
(PID.TID 0000.0001)                 2.066425102685108E+04,      /* I = 18 */
(PID.TID 0000.0001)                 2.066737427558298E+04,      /* I = 19 */
(PID.TID 0000.0001)                 2.067117518190149E+04,      /* I = 20 */
(PID.TID 0000.0001)                 2.067564373903615E+04,      /* I = 21 */
(PID.TID 0000.0001)                 2.068076808552304E+04,      /* I = 22 */
(PID.TID 0000.0001)                 2.068653446229045E+04,      /* I = 23 */
(PID.TID 0000.0001)                 2.069292717562287E+04,      /* I = 24 */
(PID.TID 0000.0001)                 2.069992855779413E+04,      /* I = 25 */
(PID.TID 0000.0001)                 2.070751892245584E+04,      /* I = 26 */
(PID.TID 0000.0001)                 2.071567651695691E+04,      /* I = 27 */
(PID.TID 0000.0001)                 2.072437747324421E+04,      /* I = 28 */
(PID.TID 0000.0001)                 2.073359574551806E+04,      /* I = 29 */
(PID.TID 0000.0001)                 2.074330305575613E+04       /* I = 30 */
(PID.TID 0000.0001)     ;
(PID.TID 0000.0001) dxC =  /* dxC(1,:,1,:) ( units: m ) */
(PID.TID 0000.0001)                 2.071567651695695E+04,      /* J =  1 */
(PID.TID 0000.0001)                 2.109563672137949E+04,      /* J =  2 */
(PID.TID 0000.0001)                 2.149002149497106E+04,      /* J =  3 */
(PID.TID 0000.0001)                 2.189882927482529E+04,      /* J =  4 */
(PID.TID 0000.0001)                 2.232205646389843E+04,      /* J =  5 */
(PID.TID 0000.0001)                 2.275969855854128E+04,      /* J =  6 */
(PID.TID 0000.0001)                 2.321175117362029E+04,      /* J =  7 */
(PID.TID 0000.0001)                 2.367821096276529E+04,      /* J =  8 */
(PID.TID 0000.0001)                 2.415907643347346E+04,      /* J =  9 */
(PID.TID 0000.0001)                 2.465434865814045E+04,      /* J = 10 */
(PID.TID 0000.0001)                 2.516403188365780E+04,      /* J = 11 */
(PID.TID 0000.0001)                 2.568813404310613E+04,      /* J = 12 */
(PID.TID 0000.0001)                 2.622666717399572E+04,      /* J = 13 */
(PID.TID 0000.0001)                 2.677964774799169E+04,      /* J = 14 */
(PID.TID 0000.0001)                 2.734709691757753E+04,      /* J = 15 */
(PID.TID 0000.0001)                 2.792904068517491E+04,      /* J = 16 */
(PID.TID 0000.0001)                 2.852551000032625E+04,      /* J = 17 */
(PID.TID 0000.0001)                 2.913654079081990E+04,      /* J = 18 */
(PID.TID 0000.0001)                 2.976217393306023E+04,      /* J = 19 */
(PID.TID 0000.0001)                 3.040245516699173E+04,      /* J = 20 */
(PID.TID 0000.0001)                 3.105743496108396E+04,      /* J = 21 */
(PID.TID 0000.0001)                 3.172716833208323E+04,      /* J = 22 */
(PID.TID 0000.0001)                 3.241171462422546E+04,      /* J = 23 */
(PID.TID 0000.0001)                 3.311113725244482E+04,      /* J = 24 */
(PID.TID 0000.0001)                 3.382550341391024E+04,      /* J = 25 */
(PID.TID 0000.0001)                 3.455488377140061E+04,      /* J = 26 */
(PID.TID 0000.0001)                 3.529935211332738E+04,      /* J = 27 */
(PID.TID 0000.0001)                 3.605898499520765E+04,      /* J = 28 */
(PID.TID 0000.0001)                 3.683386137397906E+04,      /* J = 29 */
(PID.TID 0000.0001)                 3.762406228407349E+04       /* J = 30 */
(PID.TID 0000.0001)     ;
(PID.TID 0000.0001) dyC =  /* dyC(:,1,:,1) ( units: m ) */
(PID.TID 0000.0001)                 3.678277710845771E+04,      /* I =  1 */
(PID.TID 0000.0001)                 3.685438685866048E+04,      /* I =  2 */
(PID.TID 0000.0001)                 3.692002588020908E+04,      /* I =  3 */
(PID.TID 0000.0001)                 3.697969453541307E+04,      /* I =  4 */
(PID.TID 0000.0001)                 3.703339337607873E+04,      /* I =  5 */
(PID.TID 0000.0001)                 3.708112307814123E+04,      /* I =  6 */
(PID.TID 0000.0001)                 3.712288438364359E+04,      /* I =  7 */
(PID.TID 0000.0001)                 3.715867804995441E+04,      /* I =  8 */
(PID.TID 0000.0001)                 3.718850480589901E+04,      /* I =  9 */
(PID.TID 0000.0001)                 3.721236531452968E+04,      /* I = 10 */
(PID.TID 0000.0001)                 3.723026014246432E+04,      /* I = 11 */
(PID.TID 0000.0001)                 3.724218973548726E+04,      /* I = 12 */
(PID.TID 0000.0001)     2 @  3.724815440020872E+04,             /* I = 13: 14 */
(PID.TID 0000.0001)                 3.724218973548726E+04,      /* I = 15 */
(PID.TID 0000.0001)                 3.723026014246432E+04,      /* I = 16 */
(PID.TID 0000.0001)                 3.721236531452968E+04,      /* I = 17 */
(PID.TID 0000.0001)                 3.718850480589901E+04,      /* I = 18 */
(PID.TID 0000.0001)                 3.715867804995440E+04,      /* I = 19 */
(PID.TID 0000.0001)                 3.712288438364359E+04,      /* I = 20 */
(PID.TID 0000.0001)                 3.708112307814122E+04,      /* I = 21 */
(PID.TID 0000.0001)                 3.703339337607873E+04,      /* I = 22 */
(PID.TID 0000.0001)                 3.697969453541307E+04,      /* I = 23 */
(PID.TID 0000.0001)                 3.692002588020908E+04,      /* I = 24 */
(PID.TID 0000.0001)                 3.685438685866047E+04,      /* I = 25 */
(PID.TID 0000.0001)                 3.678277710845772E+04,      /* I = 26 */
(PID.TID 0000.0001)                 3.670519653011381E+04,      /* I = 27 */
(PID.TID 0000.0001)                 3.662164536844059E+04,      /* I = 28 */
(PID.TID 0000.0001)                 3.653212430257830E+04,      /* I = 29 */
(PID.TID 0000.0001)                 3.643663454523116E+04       /* I = 30 */
(PID.TID 0000.0001)     ;
(PID.TID 0000.0001) dyC =  /* dyC(1,:,1,:) ( units: m ) */
(PID.TID 0000.0001)                 3.678277710845771E+04,      /* J =  1 */
(PID.TID 0000.0001)                 3.723168694115569E+04,      /* J =  2 */
(PID.TID 0000.0001)                 3.767901897410101E+04,      /* J =  3 */
(PID.TID 0000.0001)                 3.812467364657602E+04,      /* J =  4 */
(PID.TID 0000.0001)                 3.856855210935249E+04,      /* J =  5 */
(PID.TID 0000.0001)                 3.901055633269680E+04,      /* J =  6 */
(PID.TID 0000.0001)                 3.945058917911859E+04,      /* J =  7 */
(PID.TID 0000.0001)                 3.988855443472220E+04,      /* J =  8 */
(PID.TID 0000.0001)                 4.032435681898361E+04,      /* J =  9 */
(PID.TID 0000.0001)                 4.075790196435841E+04,      /* J = 10 */
(PID.TID 0000.0001)                 4.118909638222960E+04,      /* J = 11 */
(PID.TID 0000.0001)                 4.161784741043697E+04,      /* J = 12 */
(PID.TID 0000.0001)                 4.204406315499045E+04,      /* J = 13 */
(PID.TID 0000.0001)                 4.246765242091182E+04,      /* J = 14 */
(PID.TID 0000.0001)                 4.288852464034393E+04,      /* J = 15 */
(PID.TID 0000.0001)                 4.330658981118225E+04,      /* J = 16 */
(PID.TID 0000.0001)                 4.372175841431943E+04,      /* J = 17 */
(PID.TID 0000.0001)                 4.413394136293020E+04,      /* J = 18 */
(PID.TID 0000.0001)                 4.454304993440304E+04,      /* J = 19 */
(PID.TID 0000.0001)                 4.494899572325061E+04,      /* J = 20 */
(PID.TID 0000.0001)                 4.535169059286820E+04,      /* J = 21 */
(PID.TID 0000.0001)                 4.575104664412256E+04,      /* J = 22 */
(PID.TID 0000.0001)                 4.614697618947234E+04,      /* J = 23 */
(PID.TID 0000.0001)                 4.653939173844085E+04,      /* J = 24 */
(PID.TID 0000.0001)                 4.692820600744408E+04,      /* J = 25 */
(PID.TID 0000.0001)                 4.731333194957835E+04,      /* J = 26 */
(PID.TID 0000.0001)                 4.769468283927006E+04,      /* J = 27 */
(PID.TID 0000.0001)                 4.807217249390641E+04,      /* J = 28 */
(PID.TID 0000.0001)                 4.844571593362943E+04,      /* J = 29 */
(PID.TID 0000.0001)                 4.881523285497380E+04       /* J = 30 */
(PID.TID 0000.0001)     ;
(PID.TID 0000.0001) dxV =  /* dxV(:,1,:,1) ( units: m ) */
(PID.TID 0000.0001)                 2.053110526075532E+04,      /* I =  1 */
(PID.TID 0000.0001)                 2.052326088418283E+04,      /* I =  2 */
(PID.TID 0000.0001)                 2.051595672244828E+04,      /* I =  3 */
(PID.TID 0000.0001)                 2.050921502797681E+04,      /* I =  4 */
(PID.TID 0000.0001)                 2.050305593886370E+04,      /* I =  5 */
(PID.TID 0000.0001)                 2.049749752783181E+04,      /* I =  6 */
(PID.TID 0000.0001)                 2.049255584793284E+04,      /* I =  7 */
(PID.TID 0000.0001)                 2.048824497292525E+04,      /* I =  8 */
(PID.TID 0000.0001)                 2.048457703515834E+04,      /* I =  9 */
(PID.TID 0000.0001)                 2.048156226915133E+04,      /* I = 10 */
(PID.TID 0000.0001)                 2.047920906551970E+04,      /* I = 11 */
(PID.TID 0000.0001)                 2.047752414469434E+04,      /* I = 12 */
(PID.TID 0000.0001)                 2.047651405696554E+04,      /* I = 13 */
(PID.TID 0000.0001)                 2.047614194664622E+04,      /* I = 14 */
(PID.TID 0000.0001)                 2.047651405696559E+04,      /* I = 15 */
(PID.TID 0000.0001)                 2.047752414469430E+04,      /* I = 16 */
(PID.TID 0000.0001)                 2.047920906551971E+04,      /* I = 17 */
(PID.TID 0000.0001)                 2.048156226915138E+04,      /* I = 18 */
(PID.TID 0000.0001)                 2.048457703515829E+04,      /* I = 19 */
(PID.TID 0000.0001)                 2.048824497292535E+04,      /* I = 20 */
(PID.TID 0000.0001)                 2.049255584793274E+04,      /* I = 21 */
(PID.TID 0000.0001)                 2.049749752783187E+04,      /* I = 22 */
(PID.TID 0000.0001)                 2.050305593886373E+04,      /* I = 23 */
(PID.TID 0000.0001)                 2.050921502797675E+04,      /* I = 24 */
(PID.TID 0000.0001)                 2.051595672244826E+04,      /* I = 25 */
(PID.TID 0000.0001)                 2.052326088418290E+04,      /* I = 26 */
(PID.TID 0000.0001)                 2.053110526075532E+04,      /* I = 27 */
(PID.TID 0000.0001)                 2.053946543494557E+04,      /* I = 28 */
(PID.TID 0000.0001)                 2.054831476098181E+04,      /* I = 29 */
(PID.TID 0000.0001)                 2.055762430839241E+04       /* I = 30 */
(PID.TID 0000.0001)     ;
(PID.TID 0000.0001) dxV =  /* dxV(1,:,1,:) ( units: m ) */
(PID.TID 0000.0001)                 2.053110526075532E+04,      /* J =  1 */
(PID.TID 0000.0001)                 2.090385356266093E+04,      /* J =  2 */
(PID.TID 0000.0001)                 2.129102607314009E+04,      /* J =  3 */
(PID.TID 0000.0001)                 2.169262269996662E+04,      /* J =  4 */
(PID.TID 0000.0001)                 2.210864071595607E+04,      /* J =  5 */
(PID.TID 0000.0001)                 2.253907593617405E+04,      /* J =  6 */
(PID.TID 0000.0001)                 2.298392379458377E+04,      /* J =  7 */
(PID.TID 0000.0001)                 2.344318031700113E+04,      /* J =  8 */
(PID.TID 0000.0001)                 2.391684298864163E+04,      /* J =  9 */
(PID.TID 0000.0001)                 2.440491151699962E+04,      /* J = 10 */
(PID.TID 0000.0001)                 2.490738849171163E+04,      /* J = 11 */
(PID.TID 0000.0001)                 2.542427994477456E+04,      /* J = 12 */
(PID.TID 0000.0001)                 2.595559581485789E+04,      /* J = 13 */
(PID.TID 0000.0001)                 2.650135032062733E+04,      /* J = 14 */
(PID.TID 0000.0001)                 2.706156224833991E+04,      /* J = 15 */
(PID.TID 0000.0001)                 2.763625515890197E+04,      /* J = 16 */
(PID.TID 0000.0001)                 2.822545752042790E+04,      /* J = 17 */
(PID.TID 0000.0001)                 2.882920277162976E+04,      /* J = 18 */
(PID.TID 0000.0001)                 2.944752932187136E+04,      /* J = 19 */
(PID.TID 0000.0001)                 3.008048049319959E+04,      /* J = 20 */
(PID.TID 0000.0001)                 3.072810440966728E+04,      /* J = 21 */
(PID.TID 0000.0001)                 3.139045383903842E+04,      /* J = 22 */
(PID.TID 0000.0001)                 3.206758599174654E+04,      /* J = 23 */
(PID.TID 0000.0001)                 3.275956228156967E+04,      /* J = 24 */
(PID.TID 0000.0001)                 3.346644805244220E+04,      /* J = 25 */
(PID.TID 0000.0001)                 3.418831227550044E+04,      /* J = 26 */
(PID.TID 0000.0001)                 3.492522722017510E+04,      /* J = 27 */
(PID.TID 0000.0001)                 3.567726810399632E+04,      /* J = 28 */
(PID.TID 0000.0001)                 3.644451272859776E+04,      /* J = 29 */
(PID.TID 0000.0001)                 3.722704112152557E+04       /* J = 30 */
(PID.TID 0000.0001)     ;
(PID.TID 0000.0001) dyU =  /* dyU(:,1,:,1) ( units: m ) */
(PID.TID 0000.0001)                 3.674473316658630E+04,      /* I =  1 */
(PID.TID 0000.0001)                 3.681932833792822E+04,      /* I =  2 */
(PID.TID 0000.0001)                 3.688795269313092E+04,      /* I =  3 */
(PID.TID 0000.0001)                 3.695060647275718E+04,      /* I =  4 */
(PID.TID 0000.0001)                 3.700729014250917E+04,      /* I =  5 */
(PID.TID 0000.0001)                 3.705800432398131E+04,      /* I =  6 */
(PID.TID 0000.0001)                 3.710274973294064E+04,      /* I =  7 */
(PID.TID 0000.0001)                 3.714152712500728E+04,      /* I =  8 */
(PID.TID 0000.0001)                 3.717433724834998E+04,      /* I =  9 */
(PID.TID 0000.0001)                 3.720118080314009E+04,      /* I = 10 */
(PID.TID 0000.0001)                 3.722205840764935E+04,      /* I = 11 */
(PID.TID 0000.0001)                 3.723697057073888E+04,      /* I = 12 */
(PID.TID 0000.0001)                 3.724591767054543E+04,      /* I = 13 */
(PID.TID 0000.0001)                 3.724891083990022E+04,      /* I = 14 */
(PID.TID 0000.0001)                 3.724591767054542E+04,      /* I = 15 */
(PID.TID 0000.0001)                 3.723697057073889E+04,      /* I = 16 */
(PID.TID 0000.0001)                 3.722205840764935E+04,      /* I = 17 */
(PID.TID 0000.0001)                 3.720118080314008E+04,      /* I = 18 */
(PID.TID 0000.0001)                 3.717433724834998E+04,      /* I = 19 */
(PID.TID 0000.0001)                 3.714152712500728E+04,      /* I = 20 */
(PID.TID 0000.0001)                 3.710274973294063E+04,      /* I = 21 */
(PID.TID 0000.0001)                 3.705800432398131E+04,      /* I = 22 */
(PID.TID 0000.0001)                 3.700729014250917E+04,      /* I = 23 */
(PID.TID 0000.0001)                 3.695060647275716E+04,      /* I = 24 */
(PID.TID 0000.0001)                 3.688795269313094E+04,      /* I = 25 */
(PID.TID 0000.0001)                 3.681932833792821E+04,      /* I = 26 */
(PID.TID 0000.0001)                 3.674473316658630E+04,      /* I = 27 */
(PID.TID 0000.0001)                 3.666416724104654E+04,      /* I = 28 */
(PID.TID 0000.0001)                 3.657763101146962E+04,      /* I = 29 */
(PID.TID 0000.0001)                 3.648512541079492E+04       /* I = 30 */
(PID.TID 0000.0001)     ;
(PID.TID 0000.0001) dyU =  /* dyU(1,:,1,:) ( units: m ) */
(PID.TID 0000.0001)                 3.674473316658630E+04,      /* J =  1 */
(PID.TID 0000.0001)                 3.719361547538896E+04,      /* J =  2 */
(PID.TID 0000.0001)                 3.764089459751266E+04,      /* J =  3 */
(PID.TID 0000.0001)                 3.808646730382765E+04,      /* J =  4 */
(PID.TID 0000.0001)                 3.853023123895088E+04,      /* J =  5 */
(PID.TID 0000.0001)                 3.897208503739593E+04,      /* J =  6 */
(PID.TID 0000.0001)                 3.941192840112046E+04,      /* J =  7 */
(PID.TID 0000.0001)                 3.984966213263487E+04,      /* J =  8 */
(PID.TID 0000.0001)                 4.028518814419441E+04,      /* J =  9 */
(PID.TID 0000.0001)                 4.071840943468107E+04,      /* J = 10 */
(PID.TID 0000.0001)                 4.114923005120406E+04,      /* J = 11 */
(PID.TID 0000.0001)                 4.157755503103340E+04,      /* J = 12 */
(PID.TID 0000.0001)                 4.200329033666767E+04,      /* J = 13 */
(PID.TID 0000.0001)                 4.242634277960793E+04,      /* J = 14 */
(PID.TID 0000.0001)                 4.284661994092684E+04,      /* J = 15 */
(PID.TID 0000.0001)                 4.326403010205203E+04,      /* J = 16 */
(PID.TID 0000.0001)                 4.367848215462093E+04,      /* J = 17 */
(PID.TID 0000.0001)                 4.408988554208750E+04,      /* J = 18 */
(PID.TID 0000.0001)                 4.449815018464295E+04,      /* J = 19 */
(PID.TID 0000.0001)                 4.490318642518511E+04,      /* J = 20 */
(PID.TID 0000.0001)                 4.530490497491705E+04,      /* J = 21 */
(PID.TID 0000.0001)                 4.570321687598708E+04,      /* J = 22 */
(PID.TID 0000.0001)                 4.609803347024994E+04,      /* J = 23 */
(PID.TID 0000.0001)                 4.648926637992392E+04,      /* J = 24 */
(PID.TID 0000.0001)                 4.687682751321772E+04,      /* J = 25 */
(PID.TID 0000.0001)                 4.726062909013533E+04,      /* J = 26 */
(PID.TID 0000.0001)                 4.764058372401170E+04,      /* J = 27 */
(PID.TID 0000.0001)                 4.801660464021451E+04,      /* J = 28 */
(PID.TID 0000.0001)                 4.838860633247659E+04,      /* J = 29 */
(PID.TID 0000.0001)                 4.875650803021456E+04       /* J = 30 */
(PID.TID 0000.0001)     ;
(PID.TID 0000.0001) rA  =  /* rA (:,1,:,1) ( units: m^2 ) */
(PID.TID 0000.0001)                 7.665113621396177E+08,      /* I =  1 */
(PID.TID 0000.0001)                 7.677029697239892E+08,      /* I =  2 */
(PID.TID 0000.0001)                 7.687913877455838E+08,      /* I =  3 */
(PID.TID 0000.0001)                 7.697775979751738E+08,      /* I =  4 */
(PID.TID 0000.0001)                 7.706625466485583E+08,      /* I =  5 */
(PID.TID 0000.0001)                 7.714470546020026E+08,      /* I =  6 */
(PID.TID 0000.0001)                 7.721318586456149E+08,      /* I =  7 */
(PID.TID 0000.0001)                 7.727176271684608E+08,      /* I =  8 */
(PID.TID 0000.0001)                 7.732049082776864E+08,      /* I =  9 */
(PID.TID 0000.0001)                 7.735941717305043E+08,      /* I = 10 */
(PID.TID 0000.0001)                 7.738858051500469E+08,      /* I = 11 */
(PID.TID 0000.0001)                 7.740801100790358E+08,      /* I = 12 */
(PID.TID 0000.0001)                 7.741766386182301E+08,      /* I = 13 */
(PID.TID 0000.0001)                 7.741766369784317E+08,      /* I = 14 */
(PID.TID 0000.0001)                 7.740801094843833E+08,      /* I = 15 */
(PID.TID 0000.0001)                 7.738858062852919E+08,      /* I = 16 */
(PID.TID 0000.0001)                 7.735941726495122E+08,      /* I = 17 */
(PID.TID 0000.0001)                 7.732049061873938E+08,      /* I = 18 */
(PID.TID 0000.0001)                 7.727176277450933E+08,      /* I = 19 */
(PID.TID 0000.0001)                 7.721318658895597E+08,      /* I = 20 */
(PID.TID 0000.0001)                 7.714470531424019E+08,      /* I = 21 */
(PID.TID 0000.0001)                 7.706625470810328E+08,      /* I = 22 */
(PID.TID 0000.0001)                 7.697776024260553E+08,      /* I = 23 */
(PID.TID 0000.0001)                 7.687913844659867E+08,      /* I = 24 */
(PID.TID 0000.0001)                 7.677029712196296E+08,      /* I = 25 */
(PID.TID 0000.0001)                 7.665113646083255E+08,      /* I = 26 */
(PID.TID 0000.0001)                 7.652154604170089E+08,      /* I = 27 */
(PID.TID 0000.0001)                 7.638140926048064E+08,      /* I = 28 */
(PID.TID 0000.0001)                 7.623059927966076E+08,      /* I = 29 */
(PID.TID 0000.0001)                 7.606898330980235E+08       /* I = 30 */
(PID.TID 0000.0001)     ;
(PID.TID 0000.0001) rA  =  /* rA (1,:,1,:) ( units: m^2 ) */
(PID.TID 0000.0001)                 7.665113621396177E+08,      /* J =  1 */
(PID.TID 0000.0001)                 7.900134359449342E+08,      /* J =  2 */
(PID.TID 0000.0001)                 8.143679155417176E+08,      /* J =  3 */
(PID.TID 0000.0001)                 8.395900636155584E+08,      /* J =  4 */
(PID.TID 0000.0001)                 8.656947784023314E+08,      /* J =  5 */
(PID.TID 0000.0001)                 8.926966010402582E+08,      /* J =  6 */
(PID.TID 0000.0001)                 9.206097737377057E+08,      /* J =  7 */
(PID.TID 0000.0001)                 9.494482582794807E+08,      /* J =  8 */
(PID.TID 0000.0001)                 9.792257431806778E+08,      /* J =  9 */
(PID.TID 0000.0001)                 1.009955679131553E+09,      /* J = 10 */
(PID.TID 0000.0001)                 1.041651296044221E+09,      /* J = 11 */
(PID.TID 0000.0001)                 1.074325614369065E+09,      /* J = 12 */
(PID.TID 0000.0001)                 1.107991467925779E+09,      /* J = 13 */
(PID.TID 0000.0001)                 1.142661498173082E+09,      /* J = 14 */
(PID.TID 0000.0001)                 1.178348167164929E+09,      /* J = 15 */
(PID.TID 0000.0001)                 1.215063762235644E+09,      /* J = 16 */
(PID.TID 0000.0001)                 1.252820414073754E+09,      /* J = 17 */
(PID.TID 0000.0001)                 1.291630043617734E+09,      /* J = 18 */
(PID.TID 0000.0001)                 1.331504416619858E+09,      /* J = 19 */
(PID.TID 0000.0001)                 1.372455096362339E+09,      /* J = 20 */
(PID.TID 0000.0001)                 1.414493440828222E+09,      /* J = 21 */
(PID.TID 0000.0001)                 1.457630613639386E+09,      /* J = 22 */
(PID.TID 0000.0001)                 1.501877517761831E+09,      /* J = 23 */
(PID.TID 0000.0001)                 1.547244834049951E+09,      /* J = 24 */
(PID.TID 0000.0001)                 1.593742963439136E+09,      /* J = 25 */
(PID.TID 0000.0001)                 1.641382020566774E+09,      /* J = 26 */
(PID.TID 0000.0001)                 1.690171807481416E+09,      /* J = 27 */
(PID.TID 0000.0001)                 1.740121820832662E+09,      /* J = 28 */
(PID.TID 0000.0001)                 1.791241246411172E+09,      /* J = 29 */
(PID.TID 0000.0001)                 1.843539059771026E+09       /* J = 30 */
(PID.TID 0000.0001)     ;
(PID.TID 0000.0001) rAw =  /* rAw(:,1,:,1) ( units: m^2 ) */
(PID.TID 0000.0001)                 7.658765213139513E+08,      /* I =  1 */
(PID.TID 0000.0001)                 7.671201328724998E+08,      /* I =  2 */
(PID.TID 0000.0001)                 7.682600121490355E+08,      /* I =  3 */
(PID.TID 0000.0001)                 7.692972101823016E+08,      /* I =  4 */
(PID.TID 0000.0001)                 7.702326756407654E+08,      /* I =  5 */
(PID.TID 0000.0001)                 7.710673044850856E+08,      /* I =  6 */
(PID.TID 0000.0001)                 7.718018764844863E+08,      /* I =  7 */
(PID.TID 0000.0001)                 7.724370884091616E+08,      /* I =  8 */
(PID.TID 0000.0001)                 7.729735468223690E+08,      /* I =  9 */
(PID.TID 0000.0001)                 7.734117650170708E+08,      /* I = 10 */
(PID.TID 0000.0001)                 7.737521718456172E+08,      /* I = 11 */
(PID.TID 0000.0001)                 7.739951054308500E+08,      /* I = 12 */
(PID.TID 0000.0001)                 7.741408739107244E+08,      /* I = 13 */
(PID.TID 0000.0001)                 7.741880730050739E+08,      /* I = 14 */
(PID.TID 0000.0001)                 7.741408710636016E+08,      /* I = 15 */
(PID.TID 0000.0001)                 7.739951071427275E+08,      /* I = 16 */
(PID.TID 0000.0001)                 7.737521718095777E+08,      /* I = 17 */
(PID.TID 0000.0001)                 7.734117675938969E+08,      /* I = 18 */
(PID.TID 0000.0001)                 7.729735457051437E+08,      /* I = 19 */
(PID.TID 0000.0001)                 7.724370889497546E+08,      /* I = 20 */
(PID.TID 0000.0001)                 7.718018793856685E+08,      /* I = 21 */
(PID.TID 0000.0001)                 7.710673053320146E+08,      /* I = 22 */
(PID.TID 0000.0001)                 7.702326816053071E+08,      /* I = 23 */
(PID.TID 0000.0001)                 7.692972065242898E+08,      /* I = 24 */
(PID.TID 0000.0001)                 7.682600115363635E+08,      /* I = 25 */
(PID.TID 0000.0001)                 7.671201363863536E+08,      /* I = 26 */
(PID.TID 0000.0001)                 7.658765213499908E+08,      /* I = 27 */
(PID.TID 0000.0001)                 7.645280345158333E+08,      /* I = 28 */
(PID.TID 0000.0001)                 7.630734673343852E+08,      /* I = 29 */
(PID.TID 0000.0001)                 7.615115062009304E+08       /* I = 30 */
(PID.TID 0000.0001)     ;
(PID.TID 0000.0001) rAw =  /* rAw(1,:,1,:) ( units: m^2 ) */
(PID.TID 0000.0001)                 7.658765213139513E+08,      /* J =  1 */
(PID.TID 0000.0001)                 7.893768970448780E+08,      /* J =  2 */
(PID.TID 0000.0001)                 8.137283914516071E+08,      /* J =  3 */
(PID.TID 0000.0001)                 8.389460603348250E+08,      /* J =  4 */
(PID.TID 0000.0001)                 8.650445848102766E+08,      /* J =  5 */
(PID.TID 0000.0001)                 8.920382782103341E+08,      /* J =  6 */
(PID.TID 0000.0001)                 9.199411445401106E+08,      /* J =  7 */
(PID.TID 0000.0001)                 9.487668893433769E+08,      /* J =  8 */
(PID.TID 0000.0001)                 9.785289545527842E+08,      /* J =  9 */
(PID.TID 0000.0001)                 1.009240515336406E+09,      /* J = 10 */
(PID.TID 0000.0001)                 1.040914522930714E+09,      /* J = 11 */
(PID.TID 0000.0001)                 1.073563715488477E+09,      /* J = 12 */
(PID.TID 0000.0001)                 1.107200612276400E+09,      /* J = 13 */
(PID.TID 0000.0001)                 1.141837554111466E+09,      /* J = 14 */
(PID.TID 0000.0001)                 1.177486672294872E+09,      /* J = 15 */
(PID.TID 0000.0001)                 1.214159933192917E+09,      /* J = 16 */
(PID.TID 0000.0001)                 1.251869095602249E+09,      /* J = 17 */
(PID.TID 0000.0001)                 1.290625742284441E+09,      /* J = 18 */
(PID.TID 0000.0001)                 1.330441258846839E+09,      /* J = 19 */
(PID.TID 0000.0001)                 1.371326820624166E+09,      /* J = 20 */
(PID.TID 0000.0001)                 1.413293399742275E+09,      /* J = 21 */
(PID.TID 0000.0001)                 1.456351737475827E+09,      /* J = 22 */
(PID.TID 0000.0001)                 1.500512320083793E+09,      /* J = 23 */
(PID.TID 0000.0001)                 1.545785394792978E+09,      /* J = 24 */
(PID.TID 0000.0001)                 1.592180902277974E+09,      /* J = 25 */
(PID.TID 0000.0001)                 1.639708504465653E+09,      /* J = 26 */
(PID.TID 0000.0001)                 1.688377519501836E+09,      /* J = 27 */
(PID.TID 0000.0001)                 1.738196956421325E+09,      /* J = 28 */
(PID.TID 0000.0001)                 1.789175499722981E+09,      /* J = 29 */
(PID.TID 0000.0001)                 1.841321602441802E+09       /* J = 30 */
(PID.TID 0000.0001)     ;
(PID.TID 0000.0001) rAs =  /* rAs(:,1,:,1) ( units: m^2 ) */
(PID.TID 0000.0001)                 7.550751050606852E+08,      /* I =  1 */
(PID.TID 0000.0001)                 7.562658447772087E+08,      /* I =  2 */
(PID.TID 0000.0001)                 7.573533970032284E+08,      /* I =  3 */
(PID.TID 0000.0001)                 7.583387692957978E+08,      /* I =  4 */
(PID.TID 0000.0001)                 7.592229121974397E+08,      /* I =  5 */
(PID.TID 0000.0001)                 7.600066705467438E+08,      /* I =  6 */
(PID.TID 0000.0001)                 7.606907923080522E+08,      /* I =  7 */
(PID.TID 0000.0001)                 7.612759532224941E+08,      /* I =  8 */
(PID.TID 0000.0001)                 7.617627129118443E+08,      /* I =  9 */
(PID.TID 0000.0001)                 7.621515550445726E+08,      /* I = 10 */
(PID.TID 0000.0001)                 7.624428588466020E+08,      /* I = 11 */
(PID.TID 0000.0001)                 7.626369483673384E+08,      /* I = 12 */
(PID.TID 0000.0001)                 7.627333738515058E+08,      /* I = 13 */
(PID.TID 0000.0001)                 7.627333728604188E+08,      /* I = 14 */
(PID.TID 0000.0001)                 7.626369508901051E+08,      /* I = 15 */
(PID.TID 0000.0001)                 7.624428655319341E+08,      /* I = 16 */
(PID.TID 0000.0001)                 7.621515526659639E+08,      /* I = 17 */
(PID.TID 0000.0001)                 7.617627197953936E+08,      /* I = 18 */
(PID.TID 0000.0001)                 7.612759510961621E+08,      /* I = 19 */
(PID.TID 0000.0001)                 7.606907969030919E+08,      /* I = 20 */
(PID.TID 0000.0001)                 7.600066694295187E+08,      /* I = 21 */
(PID.TID 0000.0001)                 7.592229103594238E+08,      /* I = 22 */
(PID.TID 0000.0001)                 7.583387684488690E+08,      /* I = 23 */
(PID.TID 0000.0001)                 7.573533915792797E+08,      /* I = 24 */
(PID.TID 0000.0001)                 7.562658465071062E+08,      /* I = 25 */
(PID.TID 0000.0001)                 7.550751079979067E+08,      /* I = 26 */
(PID.TID 0000.0001)                 7.537800585200102E+08,      /* I = 27 */
(PID.TID 0000.0001)                 7.523795064624999E+08,      /* I = 28 */
(PID.TID 0000.0001)                 7.508721675027735E+08,      /* I = 29 */
(PID.TID 0000.0001)                 7.492566800675046E+08       /* I = 30 */
(PID.TID 0000.0001)     ;
(PID.TID 0000.0001) rAs =  /* rAs(1,:,1,:) ( units: m^2 ) */
(PID.TID 0000.0001)                 7.550751050606852E+08,      /* J =  1 */
(PID.TID 0000.0001)                 7.781568160584769E+08,      /* J =  2 */
(PID.TID 0000.0001)                 8.020831616625657E+08,      /* J =  3 */
(PID.TID 0000.0001)                 8.268695937660589E+08,      /* J =  4 */
(PID.TID 0000.0001)                 8.525311818286231E+08,      /* J =  5 */
(PID.TID 0000.0001)                 8.790826547724357E+08,      /* J =  6 */
(PID.TID 0000.0001)                 9.065383887828039E+08,      /* J =  7 */
(PID.TID 0000.0001)                 9.349124897125442E+08,      /* J =  8 */
(PID.TID 0000.0001)                 9.642187819277472E+08,      /* J =  9 */
(PID.TID 0000.0001)                 9.944708240750725E+08,      /* J = 10 */
(PID.TID 0000.0001)                 1.025681954725808E+09,      /* J = 11 */
(PID.TID 0000.0001)                 1.057865313008499E+09,      /* J = 12 */
(PID.TID 0000.0001)                 1.091033805921100E+09,      /* J = 13 */
(PID.TID 0000.0001)                 1.125200178247652E+09,      /* J = 14 */
(PID.TID 0000.0001)                 1.160376979600140E+09,      /* J = 15 */
(PID.TID 0000.0001)                 1.196576586510721E+09,      /* J = 16 */
(PID.TID 0000.0001)                 1.233811208089928E+09,      /* J = 17 */
(PID.TID 0000.0001)                 1.272092866313053E+09,      /* J = 18 */
(PID.TID 0000.0001)                 1.311433405822894E+09,      /* J = 19 */
(PID.TID 0000.0001)                 1.351844507714875E+09,      /* J = 20 */
(PID.TID 0000.0001)                 1.393337606051485E+09,      /* J = 21 */
(PID.TID 0000.0001)                 1.435923987908001E+09,      /* J = 22 */
(PID.TID 0000.0001)                 1.479614675036705E+09,      /* J = 23 */
(PID.TID 0000.0001)                 1.524420466465598E+09,      /* J = 24 */
(PID.TID 0000.0001)                 1.570351910729954E+09,      /* J = 25 */
(PID.TID 0000.0001)                 1.617419255741331E+09,      /* J = 26 */
(PID.TID 0000.0001)                 1.665632470339211E+09,      /* J = 27 */
(PID.TID 0000.0001)                 1.715001205152071E+09,      /* J = 28 */
(PID.TID 0000.0001)                 1.765534790867491E+09,      /* J = 29 */
(PID.TID 0000.0001)                 1.817242347954489E+09       /* J = 30 */
(PID.TID 0000.0001)     ;
(PID.TID 0000.0001) globalArea = /* Integrated horizontal Area (m^2) */
(PID.TID 0000.0001)                 3.580138611494435E+14
(PID.TID 0000.0001)     ;
(PID.TID 0000.0001) hasWetCSCorners = /* Domain contains CS corners (True/False) */
(PID.TID 0000.0001)                   F
(PID.TID 0000.0001)     ;
(PID.TID 0000.0001) // =======================================================
(PID.TID 0000.0001) // End of Model config. summary
(PID.TID 0000.0001) // =======================================================
(PID.TID 0000.0001) 
(PID.TID 0000.0001) == Packages configuration : Check & print summary ==
(PID.TID 0000.0001) 
(PID.TID 0000.0001) GGL90_CHECK: #define ALLOW_GGL90
(PID.TID 0000.0001) GGL90_CHECK: Some form of convection has been enabled
(PID.TID 0000.0001) GMREDI_CHECK: #define GMREDI
(PID.TID 0000.0001) GM_AdvForm =     /* if FALSE => use SkewFlux Form */
(PID.TID 0000.0001)                   T
(PID.TID 0000.0001)     ;
(PID.TID 0000.0001) GM_InMomAsStress = /* if TRUE => apply as Eddy Stress */
(PID.TID 0000.0001)                   F
(PID.TID 0000.0001)     ;
(PID.TID 0000.0001) GM_AdvSeparate = /* Calc Bolus & Euler Adv. separately */
(PID.TID 0000.0001)                   F
(PID.TID 0000.0001)     ;
(PID.TID 0000.0001) GM_ExtraDiag =   /* Tensor Extra Diag (line 1&2) non 0 */
(PID.TID 0000.0001)                   T
(PID.TID 0000.0001)     ;
(PID.TID 0000.0001) GM_isopycK =    /* Background Isopyc. Diffusivity [m^2/s] */
(PID.TID 0000.0001)                 1.000000000000000E+03
(PID.TID 0000.0001)     ;
(PID.TID 0000.0001) GM_skewflx*K =  /* Background GM_SkewFlx Diffusivity [m^2/s] */
(PID.TID 0000.0001)                 0.000000000000000E+00
(PID.TID 0000.0001)     ;
(PID.TID 0000.0001) GM_advec*K =    /* Backg. GM-Advec(=Bolus) Diffusivity [m^2/s]*/
(PID.TID 0000.0001)                 1.000000000000000E+03
(PID.TID 0000.0001)     ;
(PID.TID 0000.0001) GM_Kmin_horiz = /* Minimum Horizontal Diffusivity [m^2/s] */
(PID.TID 0000.0001)                 1.000000000000000E+02
(PID.TID 0000.0001)     ;
(PID.TID 0000.0001) GM_Visbeck_alpha = /* Visbeck alpha coeff. [-] */
(PID.TID 0000.0001)                 0.000000000000000E+00
(PID.TID 0000.0001)     ;
(PID.TID 0000.0001) GM_Small_Number =  /* epsilon used in slope calc */
(PID.TID 0000.0001)                 9.999999999999999E-21
(PID.TID 0000.0001)     ;
(PID.TID 0000.0001) GM_slopeSqCutoff = /* Slope^2 cut-off value */
(PID.TID 0000.0001)                 1.000000000000000E+08
(PID.TID 0000.0001)     ;
(PID.TID 0000.0001) GM_taper_scheme =  /* Type of Tapering/Clipping scheme */
(PID.TID 0000.0001)               'stableGmAdjTap                          '
(PID.TID 0000.0001)     ;
(PID.TID 0000.0001) GM_maxSlope =  /* Maximum Slope (Tapering/Clipping) */
(PID.TID 0000.0001)                 4.000000000000000E-03
(PID.TID 0000.0001)     ;
(PID.TID 0000.0001) GM_facTrL2dz = /* Minimum Trans.Layer Thick. (factor of dz) */
(PID.TID 0000.0001)                 1.000000000000000E+00
(PID.TID 0000.0001)     ;
(PID.TID 0000.0001) GM_facTrL2ML = /* Max.Trans.Layer Thick. (factor of MxL Depth)*/
(PID.TID 0000.0001)                 5.000000000000000E+00
(PID.TID 0000.0001)     ;
(PID.TID 0000.0001) GM_maxTransLay = /* Maximum Transition Layer Thickness [m] */
(PID.TID 0000.0001)                 5.000000000000000E+02
(PID.TID 0000.0001)     ;
(PID.TID 0000.0001) GM_UseBVP = /* if TRUE => use bvp a la Ferrari et al. (2010) */
(PID.TID 0000.0001)                   F
(PID.TID 0000.0001)     ;
(PID.TID 0000.0001) GM_BVP_ModeNumber = /* Vertical mode number for BVP wave speed */
(PID.TID 0000.0001)                       1
(PID.TID 0000.0001)     ;
(PID.TID 0000.0001) GM_BVP_cMin = /* Minimum wave speed for BVP [m/s] */
(PID.TID 0000.0001)                 1.000000000000000E-01
(PID.TID 0000.0001)     ;
(PID.TID 0000.0001) GM_useSubMeso = /* if TRUE => use Sub-Meso param. (B.Fox-Kemper) */
(PID.TID 0000.0001)                   F
(PID.TID 0000.0001)     ;
(PID.TID 0000.0001) subMeso_Ceff = /* efficiency coeff. of Mixed-Layer Eddies [-] */
(PID.TID 0000.0001)                 7.000000000000001E-02
(PID.TID 0000.0001)     ;
(PID.TID 0000.0001) subMeso_invTau = /* inverse of Sub-Meso mixing time-scale [/s] */
(PID.TID 0000.0001)                 2.000000000000000E-06
(PID.TID 0000.0001)     ;
(PID.TID 0000.0001) subMeso_LfMin = /* minimum length-scale "Lf" [m] */
(PID.TID 0000.0001)                 1.000000000000000E+03
(PID.TID 0000.0001)     ;
(PID.TID 0000.0001) subMeso_Lmax = /* maximum grid-scale length [m] */
(PID.TID 0000.0001)                 1.100000000000000E+05
(PID.TID 0000.0001)     ;
(PID.TID 0000.0001) SEAICE_CHECK: #define ALLOW_SEAICE
(PID.TID 0000.0001) CTRL_CHECK: #define ALLOW_CTRL
(PID.TID 0000.0001) GAD_CHECK: #define ALLOW_GENERIC_ADVDIFF
(PID.TID 0000.0001) // =======================================================
(PID.TID 0000.0001) // Check Model config. (CONFIG_CHECK):
(PID.TID 0000.0001) // CONFIG_CHECK : Normal End
(PID.TID 0000.0001) // =======================================================
(PID.TID 0000.0001) 
(PID.TID 0000.0001)  MDS_READ_META: opening file: pickup.0000000001.meta
(PID.TID 0000.0001)  nRecords = 403 ; filePrec =  64 ; fileIter =     26280
(PID.TID 0000.0001)     nDims =   2 , dims:
(PID.TID 0000.0001)    1:  90   1  90
(PID.TID 0000.0001)    2:1170   11170
(PID.TID 0000.0001)     nFlds =  11 , nFl3D =   8 , fields:
(PID.TID 0000.0001)  >Uvel    < >Vvel    < >Theta   < >Salt    < >GuNm1   < >GuNm2   < >GvNm1   < >GvNm2   < >EtaN    < >dEtaHdt < >EtaH    <
(PID.TID 0000.0001) missingVal=  1.00000000000000E+00 ; nTimRec =   1 , timeList:
(PID.TID 0000.0001)   9.460800000000E+07
(PID.TID 0000.0001) READ_MFLDS_3D_RL: read field: "Uvel    ", #   1 in fldList, rec=   1
(PID.TID 0000.0001)  MDS_READ_FIELD: opening global file: pickup.0000000001.data
(PID.TID 0000.0001) READ_MFLDS_3D_RL: read field: "Vvel    ", #   2 in fldList, rec=   2
(PID.TID 0000.0001)  MDS_READ_FIELD: opening global file: pickup.0000000001.data
(PID.TID 0000.0001) READ_MFLDS_3D_RL: read field: "Theta   ", #   3 in fldList, rec=   3
(PID.TID 0000.0001)  MDS_READ_FIELD: opening global file: pickup.0000000001.data
(PID.TID 0000.0001) READ_MFLDS_3D_RL: read field: "Salt    ", #   4 in fldList, rec=   4
(PID.TID 0000.0001)  MDS_READ_FIELD: opening global file: pickup.0000000001.data
(PID.TID 0000.0001) READ_MFLDS_3D_RL: read field: "GuNm1   ", #   5 in fldList, rec=   5
(PID.TID 0000.0001)  MDS_READ_FIELD: opening global file: pickup.0000000001.data
(PID.TID 0000.0001) READ_MFLDS_3D_RL: read field: "GvNm1   ", #   7 in fldList, rec=   7
(PID.TID 0000.0001)  MDS_READ_FIELD: opening global file: pickup.0000000001.data
(PID.TID 0000.0001) READ_MFLDS_3D_RL: read field: "EtaN    ", #   9 in fldList, rec= 401
(PID.TID 0000.0001)  MDS_READ_FIELD: opening global file: pickup.0000000001.data
(PID.TID 0000.0001) READ_MFLDS_3D_RL: read field: "dEtaHdt ", #  10 in fldList, rec= 402
(PID.TID 0000.0001)  MDS_READ_FIELD: opening global file: pickup.0000000001.data
(PID.TID 0000.0001) READ_MFLDS_3D_RL: read field: "EtaH    ", #  11 in fldList, rec= 403
(PID.TID 0000.0001)  MDS_READ_FIELD: opening global file: pickup.0000000001.data
(PID.TID 0000.0001) READ_MFLDS_CHECK: - normal end ; reset MFLDS file-name: pickup.0000000001
(PID.TID 0000.0001)  MDS_READ_FIELD: opening global file: geothermalFlux.bin
(PID.TID 0000.0001)  write diagnostics summary to file ioUnit:     36
Iter.Nb:         1 ; Time(s):  9.0000000000000E+02
------------------------------------------------------------------------
2D/3D diagnostics: Number of lists:     3
------------------------------------------------------------------------
listId=    1 ; file name: surfDiag
 nFlds, nActive,       freq     &     phase        , nLev               
   10  |   10  |      3600.000000         0.000000 |   1
 levels:   1
 diag# | name   |   ipt  |  iMate | kLev|   count |   mate.C|           
    86 |oceQnet |      1 |      0 |   1 |       0 |
    87 |oceQsw  |      2 |      0 |   1 |       0 |
    84 |oceFWflx|      3 |      0 |   1 |       0 |
    85 |oceSflux|      4 |      0 |   1 |       0 |
    80 |oceTAUX |      5 |      6 |   1 |       0 |       0 |
    81 |oceTAUY |      6 |      5 |   1 |       0 |       0 |
    26 |THETA   |      7 |      0 |  50 |       0 |
    27 |SALT    |     57 |      0 |  50 |       0 |
    30 |UVEL    |    107 |    157 |  50 |       0 |       0 |
    31 |VVEL    |    157 |    107 |  50 |       0 |       0 |
------------------------------------------------------------------------
listId=    2 ; file name: iceDiag
 nFlds, nActive,       freq     &     phase        , nLev               
    8  |    8  |      3600.000000         0.000000 |   1
 levels:   1
 diag# | name   |   ipt  |  iMate | kLev|   count |   mate.C|           
   214 |SIarea  |    207 |      0 |   1 |       0 |
   217 |SIheff  |    208 |      0 |   1 |       0 |
   219 |SIhsnow |    209 |      0 |   1 |       0 |
    83 |sIceLoad|    210 |      0 |   1 |       0 |
   223 |SIuice  |    211 |    212 |   1 |       0 |       0 |
   224 |SIvice  |    212 |    211 |   1 |       0 |       0 |
   225 |SItaux  |    213 |    214 |   1 |       0 |       0 |
   226 |SItauy  |    214 |    213 |   1 |       0 |       0 |
------------------------------------------------------------------------
listId=    3 ; file name: iceNcat
 nFlds, nActive,       freq     &     phase        , nLev               
    3  |    3  |      3600.000000         0.000000 |   5
 levels:   1   2   3   4   5
 diag# | name   |   ipt  |  iMate | kLev|   count |   mate.C|           
   285 |SIareaN |    215 |      0 |   5 |       0 |
   284 |SIheffN |    220 |      0 |   5 |       0 |
   286 |SIhsnowN|    225 |      0 |   5 |       0 |
------------------------------------------------------------------------
Global & Regional Statistics diagnostics: Number of lists:     1
------------------------------------------------------------------------
listId=   1 ; file name: iceStDiag
 nFlds, nActive,       freq     &     phase        |                    
    8  |    8  |       900.000000         0.000000 |
 Regions:   0
 diag# | name   |   ipt  |  iMate |    Volume   |   mate-Vol. |         
   214 |SIarea  |      1 |      0 | 0.00000E+00 |
   217 |SIheff  |      2 |      0 | 0.00000E+00 |
   219 |SIhsnow |      3 |      0 | 0.00000E+00 |
    83 |sIceLoad|      4 |      0 | 0.00000E+00 |
   223 |SIuice  |      5 |      0 | 0.00000E+00 |
   224 |SIvice  |      6 |      0 | 0.00000E+00 |
   225 |SItaux  |      7 |      0 | 0.00000E+00 |
   226 |SItauy  |      8 |      0 | 0.00000E+00 |
------------------------------------------------------------------------
(PID.TID 0000.0001)  MDS_READ_FIELD: opening global file: pickup_ggl90.0000000001.data
(PID.TID 0000.0001)  MDS_READ_META: opening file: pickup_seaice.0000000001.meta
(PID.TID 0000.0001)  nRecords =   6 ; filePrec =  64 ; fileIter =     17532
(PID.TID 0000.0001)     nDims =   2 , dims:
(PID.TID 0000.0001)    1:  90   1  90
(PID.TID 0000.0001)    2:1170   11170
(PID.TID 0000.0001)     nFlds =   6 , nFl3D =   0 , fields:
(PID.TID 0000.0001)  >siTICE  < >siAREA  < >siHEFF  < >siHSNOW < >siUICE  < >siVICE  <
(PID.TID 0000.0001) missingVal=  1.00000000000000E+00 ; nTimRec =   1 , timeList:
(PID.TID 0000.0001)   6.311520000000E+07
(PID.TID 0000.0001) READ_MFLDS_3D_RL: field: "siTICES " missing in file: pickup_seaice.0000000001
(PID.TID 0000.0001) READ_MFLDS_LEV_RL: read field: "siTICE  ", #   1 in fldList, rec=   1
(PID.TID 0000.0001)  MDS_READ_FIELD: opening global file: pickup_seaice.0000000001.data
(PID.TID 0000.0001) READ_MFLDS_3D_RL: field: "siAREAn " missing in file: pickup_seaice.0000000001
(PID.TID 0000.0001) READ_MFLDS_3D_RL: read field: "siAREA  ", #   2 in fldList, rec=   2
(PID.TID 0000.0001)  MDS_READ_FIELD: opening global file: pickup_seaice.0000000001.data
(PID.TID 0000.0001) READ_MFLDS_3D_RL: read field: "siHEFF  ", #   3 in fldList, rec=   3
(PID.TID 0000.0001)  MDS_READ_FIELD: opening global file: pickup_seaice.0000000001.data
(PID.TID 0000.0001) READ_MFLDS_3D_RL: read field: "siHSNOW ", #   4 in fldList, rec=   4
(PID.TID 0000.0001)  MDS_READ_FIELD: opening global file: pickup_seaice.0000000001.data
(PID.TID 0000.0001) READ_MFLDS_3D_RL: read field: "siUICE  ", #   5 in fldList, rec=   5
(PID.TID 0000.0001)  MDS_READ_FIELD: opening global file: pickup_seaice.0000000001.data
(PID.TID 0000.0001) READ_MFLDS_3D_RL: read field: "siVICE  ", #   6 in fldList, rec=   6
(PID.TID 0000.0001)  MDS_READ_FIELD: opening global file: pickup_seaice.0000000001.data
(PID.TID 0000.0001)  MDS_READ_FIELD: opening global file: wt_ones.data
(PID.TID 0000.0001)  MDS_READ_FIELD: opening global file: xx_kapgm.0000000012.data
(PID.TID 0000.0001)  MDS_READ_FIELD: opening global file: wt_ones.data
(PID.TID 0000.0001)  MDS_READ_FIELD: opening global file: xx_kapredi.0000000012.data
(PID.TID 0000.0001)  MDS_READ_FIELD: opening global file: wt_ones.data
(PID.TID 0000.0001)  MDS_READ_FIELD: opening global file: xx_diffkr.0000000012.data
(PID.TID 0000.0001) // =======================================================
(PID.TID 0000.0001) // Model current state
(PID.TID 0000.0001) // =======================================================
(PID.TID 0000.0001) 
(PID.TID 0000.0001) SOLVE_FOR_PRESSURE: putPmEinXvector =    F
 cg2d: Sum(rhs),rhsMax =   4.77878886618852E+01  3.21872740588115E-01
 Compute Stats, Diag. #    214  SIarea    vol(   0 ): 3.580E+14  Parms: SM      M1      
 Compute Stats, Diag. #    217  SIheff    vol(   0 ): 3.580E+14  Parms: SM      M1      
 Compute Stats, Diag. #    219  SIhsnow   vol(   0 ): 3.580E+14  Parms: SM      M1      
 Compute Stats, Diag. #     83  sIceLoad  vol(   0 ): 3.580E+14  Parms: SM      U1      
 Compute Stats, Diag. #    223  SIuice    vol(   0 ): 3.513E+14  Parms: UU      M1      
 Compute Stats, Diag. #    224  SIvice    vol(   0 ): 3.508E+14  Parms: VV      M1      
 Compute Stats, Diag. #    225  SItaux    vol(   0 ): 3.513E+14  Parms: UU      U1      
 Compute Stats, Diag. #    226  SItauy    vol(   0 ): 3.508E+14  Parms: VV      U1      
 cg2d: Sum(rhs),rhsMax =   4.75617457992996E+01  3.19376173156435E-01
 Compute Stats, Diag. #    214  SIarea    vol(   0 ): 3.580E+14  Parms: SM      M1      
 Compute Stats, Diag. #    217  SIheff    vol(   0 ): 3.580E+14  Parms: SM      M1      
 Compute Stats, Diag. #    219  SIhsnow   vol(   0 ): 3.580E+14  Parms: SM      M1      
 Compute Stats, Diag. #     83  sIceLoad  vol(   0 ): 3.580E+14  Parms: SM      U1      
 Compute Stats, Diag. #    223  SIuice    vol(   0 ): 3.513E+14  Parms: UU      M1      
 Compute Stats, Diag. #    224  SIvice    vol(   0 ): 3.508E+14  Parms: VV      M1      
 Compute Stats, Diag. #    225  SItaux    vol(   0 ): 3.513E+14  Parms: UU      U1      
 Compute Stats, Diag. #    226  SItauy    vol(   0 ): 3.508E+14  Parms: VV      U1      
 cg2d: Sum(rhs),rhsMax =   4.84060100075396E+01  3.25300019458071E-01
 Computing Diagnostic #     86  oceQnet      Counter:       3   Parms: SM      U1      
 Computing Diagnostic #     87  oceQsw       Counter:       3   Parms: SM      U1      
 Computing Diagnostic #     84  oceFWflx     Counter:       3   Parms: SM      U1      
 Computing Diagnostic #     85  oceSflux     Counter:       3   Parms: SM      U1      
 Computing Diagnostic #     80  oceTAUX      Counter:       3   Parms: UU      U1      
           Vector  Mate for  oceTAUX      Diagnostic #     81  oceTAUY  exists 
 Computing Diagnostic #     81  oceTAUY      Counter:       3   Parms: VV      U1      
           Vector  Mate for  oceTAUY      Diagnostic #     80  oceTAUX  exists 
 Computing Diagnostic #     26  THETA        Counter:       3   Parms: SMR     MR      
 Computing Diagnostic #     27  SALT         Counter:       3   Parms: SMR     MR      
 Computing Diagnostic #     30  UVEL         Counter:       3   Parms: UUR     MR      
           Vector  Mate for  UVEL         Diagnostic #     31  VVEL     exists 
 Computing Diagnostic #     31  VVEL         Counter:       3   Parms: VVR     MR      
           Vector  Mate for  VVEL         Diagnostic #     30  UVEL     exists 
 Computing Diagnostic #    214  SIarea       Counter:       3   Parms: SM      M1      
 Computing Diagnostic #    217  SIheff       Counter:       3   Parms: SM      M1      
 Computing Diagnostic #    219  SIhsnow      Counter:       3   Parms: SM      M1      
 Computing Diagnostic #     83  sIceLoad     Counter:       3   Parms: SM      U1      
 Computing Diagnostic #    223  SIuice       Counter:       3   Parms: UU      M1      
           Vector  Mate for  SIuice       Diagnostic #    224  SIvice   exists 
 Computing Diagnostic #    224  SIvice       Counter:       3   Parms: VV      M1      
           Vector  Mate for  SIvice       Diagnostic #    223  SIuice   exists 
 Computing Diagnostic #    225  SItaux       Counter:       3   Parms: UU      U1      
           Vector  Mate for  SItaux       Diagnostic #    226  SItauy   exists 
 Computing Diagnostic #    226  SItauy       Counter:       3   Parms: VV      U1      
           Vector  Mate for  SItauy       Diagnostic #    225  SItaux   exists 
 Computing Diagnostic #    285  SIareaN      Counter:       3   Parms: SM      MX      
 Computing Diagnostic #    284  SIheffN      Counter:       3   Parms: SM      MX      
 Computing Diagnostic #    286  SIhsnowN     Counter:       3   Parms: SM      MX      
 Compute Stats, Diag. #    214  SIarea    vol(   0 ): 3.580E+14  Parms: SM      M1      
 Compute Stats, Diag. #    217  SIheff    vol(   0 ): 3.580E+14  Parms: SM      M1      
 Compute Stats, Diag. #    219  SIhsnow   vol(   0 ): 3.580E+14  Parms: SM      M1      
 Compute Stats, Diag. #     83  sIceLoad  vol(   0 ): 3.580E+14  Parms: SM      U1      
 Compute Stats, Diag. #    223  SIuice    vol(   0 ): 3.513E+14  Parms: UU      M1      
 Compute Stats, Diag. #    224  SIvice    vol(   0 ): 3.508E+14  Parms: VV      M1      
 Compute Stats, Diag. #    225  SItaux    vol(   0 ): 3.513E+14  Parms: UU      U1      
 Compute Stats, Diag. #    226  SItauy    vol(   0 ): 3.508E+14  Parms: VV      U1      
 cg2d: Sum(rhs),rhsMax =   4.94787906381038E+01  3.24667811328785E-01
 Compute Stats, Diag. #    214  SIarea    vol(   0 ): 3.580E+14  Parms: SM      M1      
 Compute Stats, Diag. #    217  SIheff    vol(   0 ): 3.580E+14  Parms: SM      M1      
 Compute Stats, Diag. #    219  SIhsnow   vol(   0 ): 3.580E+14  Parms: SM      M1      
 Compute Stats, Diag. #     83  sIceLoad  vol(   0 ): 3.580E+14  Parms: SM      U1      
 Compute Stats, Diag. #    223  SIuice    vol(   0 ): 3.513E+14  Parms: UU      M1      
 Compute Stats, Diag. #    224  SIvice    vol(   0 ): 3.508E+14  Parms: VV      M1      
 Compute Stats, Diag. #    225  SItaux    vol(   0 ): 3.513E+14  Parms: UU      U1      
 Compute Stats, Diag. #    226  SItauy    vol(   0 ): 3.508E+14  Parms: VV      U1      
 cg2d: Sum(rhs),rhsMax =   5.06069647177065E+01  3.19229729038200E-01
 Compute Stats, Diag. #    214  SIarea    vol(   0 ): 3.580E+14  Parms: SM      M1      
 Compute Stats, Diag. #    217  SIheff    vol(   0 ): 3.580E+14  Parms: SM      M1      
 Compute Stats, Diag. #    219  SIhsnow   vol(   0 ): 3.580E+14  Parms: SM      M1      
 Compute Stats, Diag. #     83  sIceLoad  vol(   0 ): 3.580E+14  Parms: SM      U1      
 Compute Stats, Diag. #    223  SIuice    vol(   0 ): 3.513E+14  Parms: UU      M1      
 Compute Stats, Diag. #    224  SIvice    vol(   0 ): 3.508E+14  Parms: VV      M1      
 Compute Stats, Diag. #    225  SItaux    vol(   0 ): 3.513E+14  Parms: UU      U1      
 Compute Stats, Diag. #    226  SItauy    vol(   0 ): 3.508E+14  Parms: VV      U1      
 cg2d: Sum(rhs),rhsMax =   5.17789181692631E+01  3.12594542691023E-01
 Compute Stats, Diag. #    214  SIarea    vol(   0 ): 3.580E+14  Parms: SM      M1      
 Compute Stats, Diag. #    217  SIheff    vol(   0 ): 3.580E+14  Parms: SM      M1      
 Compute Stats, Diag. #    219  SIhsnow   vol(   0 ): 3.580E+14  Parms: SM      M1      
 Compute Stats, Diag. #     83  sIceLoad  vol(   0 ): 3.580E+14  Parms: SM      U1      
 Compute Stats, Diag. #    223  SIuice    vol(   0 ): 3.513E+14  Parms: UU      M1      
 Compute Stats, Diag. #    224  SIvice    vol(   0 ): 3.508E+14  Parms: VV      M1      
 Compute Stats, Diag. #    225  SItaux    vol(   0 ): 3.513E+14  Parms: UU      U1      
 Compute Stats, Diag. #    226  SItauy    vol(   0 ): 3.508E+14  Parms: VV      U1      
 cg2d: Sum(rhs),rhsMax =   5.30104472517913E+01  3.09737336745967E-01
(PID.TID 0000.0001)      cg2d_init_res =   1.13853219256658E+00
(PID.TID 0000.0001)      cg2d_iters(min,last) =      -1      37
(PID.TID 0000.0001)      cg2d_last_res =   2.42890408667547E-05
(PID.TID 0000.0001) // =======================================================
(PID.TID 0000.0001) // Begin MONITOR dynamic field statistics
(PID.TID 0000.0001) // =======================================================
(PID.TID 0000.0001) %MON time_tsnumber                =                     8
(PID.TID 0000.0001) %MON time_secondsf                =   7.2000000000000E+03
(PID.TID 0000.0001) %MON dynstat_eta_max              =   1.1156236128016E+00
(PID.TID 0000.0001) %MON dynstat_eta_min              =  -4.5896133171640E+00
(PID.TID 0000.0001) %MON dynstat_eta_mean             =  -1.6768897507091E-03
(PID.TID 0000.0001) %MON dynstat_eta_sd               =   7.3559013721168E-01
(PID.TID 0000.0001) %MON dynstat_eta_del2             =   1.2086056833856E-04
(PID.TID 0000.0001) %MON dynstat_uvel_max             =   8.4807408494282E-01
(PID.TID 0000.0001) %MON dynstat_uvel_min             =  -1.0254622739779E+00
(PID.TID 0000.0001) %MON dynstat_uvel_mean            =   1.8217250693912E-03
(PID.TID 0000.0001) %MON dynstat_uvel_sd              =   2.1818547093739E-02
(PID.TID 0000.0001) %MON dynstat_uvel_del2            =   1.7243545043820E-05
(PID.TID 0000.0001) %MON dynstat_vvel_max             =   8.4203876156702E-01
(PID.TID 0000.0001) %MON dynstat_vvel_min             =  -9.4140328393315E-01
(PID.TID 0000.0001) %MON dynstat_vvel_mean            =   1.2417401483155E-03
(PID.TID 0000.0001) %MON dynstat_vvel_sd              =   2.3827169393273E-02
(PID.TID 0000.0001) %MON dynstat_vvel_del2            =   1.8553633404539E-05
(PID.TID 0000.0001) %MON dynstat_wvel_max             =   1.8552109252196E-03
(PID.TID 0000.0001) %MON dynstat_wvel_min             =  -1.4971665051110E-03
(PID.TID 0000.0001) %MON dynstat_wvel_mean            =   8.7967420320196E-08
(PID.TID 0000.0001) %MON dynstat_wvel_sd              =   3.3442860186784E-05
(PID.TID 0000.0001) %MON dynstat_wvel_del2            =   4.3071879259182E-08
(PID.TID 0000.0001) %MON dynstat_theta_max            =   3.2662257642369E+01
(PID.TID 0000.0001) %MON dynstat_theta_min            =  -2.0421176448303E+00
(PID.TID 0000.0001) %MON dynstat_theta_mean           =   3.5905910597113E+00
(PID.TID 0000.0001) %MON dynstat_theta_sd             =   4.4366066170885E+00
(PID.TID 0000.0001) %MON dynstat_theta_del2           =   1.0924624661298E-04
(PID.TID 0000.0001) %MON dynstat_salt_max             =   4.0711527338268E+01
(PID.TID 0000.0001) %MON dynstat_salt_min             =   1.8898813917693E+01
(PID.TID 0000.0001) %MON dynstat_salt_mean            =   3.4725774925975E+01
(PID.TID 0000.0001) %MON dynstat_salt_sd              =   3.7776369360261E-01
(PID.TID 0000.0001) %MON dynstat_salt_del2            =   2.6968781499474E-05
(PID.TID 0000.0001) %MON dynstat_sst_max              =   3.2662257642369E+01
(PID.TID 0000.0001) %MON dynstat_sst_min              =  -1.9517335577153E+00
(PID.TID 0000.0001) %MON dynstat_sst_mean             =   1.8503879049867E+01
(PID.TID 0000.0001) %MON dynstat_sst_sd               =   1.0093419071504E+01
(PID.TID 0000.0001) %MON dynstat_sst_del2             =   8.7948018801364E-04
(PID.TID 0000.0001) %MON dynstat_sss_max              =   3.9666484676128E+01
(PID.TID 0000.0001) %MON dynstat_sss_min              =   1.8898813917693E+01
(PID.TID 0000.0001) %MON dynstat_sss_mean             =   3.4713446401274E+01
(PID.TID 0000.0001) %MON dynstat_sss_sd               =   1.1591647943995E+00
(PID.TID 0000.0001) %MON dynstat_sss_del2             =   3.9103151000824E-04
(PID.TID 0000.0001) %MON forcing_qnet_max             =   4.3900442864580E+03
(PID.TID 0000.0001) %MON forcing_qnet_min             =  -1.3584090969727E+03
(PID.TID 0000.0001) %MON forcing_qnet_mean            =  -2.5080632843059E+01
(PID.TID 0000.0001) %MON forcing_qnet_sd              =   2.2211634707892E+02
(PID.TID 0000.0001) %MON forcing_qnet_del2            =   7.8902432044834E-01
(PID.TID 0000.0001) %MON forcing_qsw_max              =   0.0000000000000E+00
(PID.TID 0000.0001) %MON forcing_qsw_min              =  -1.1192438847851E+02
(PID.TID 0000.0001) %MON forcing_qsw_mean             =  -2.2455873758741E+01
(PID.TID 0000.0001) %MON forcing_qsw_sd               =   3.0400027896145E+01
(PID.TID 0000.0001) %MON forcing_qsw_del2             =   2.3080140041470E-02
(PID.TID 0000.0001) %MON forcing_empmr_max            =   3.7486436776817E-03
(PID.TID 0000.0001) %MON forcing_empmr_min            =  -9.1383449733257E-02
(PID.TID 0000.0001) %MON forcing_empmr_mean           =   4.4541063187544E-05
(PID.TID 0000.0001) %MON forcing_empmr_sd             =   5.6583469786821E-04
(PID.TID 0000.0001) %MON forcing_empmr_del2           =   3.9311105223902E-06
(PID.TID 0000.0001) %MON forcing_fu_max               =   1.3794459823554E+00
(PID.TID 0000.0001) %MON forcing_fu_min               =  -1.3601094689942E+00
(PID.TID 0000.0001) %MON forcing_fu_mean              =   1.1881466425371E-02
(PID.TID 0000.0001) %MON forcing_fu_sd                =   1.2350670828597E-01
(PID.TID 0000.0001) %MON forcing_fu_del2              =   2.0087363768325E-04
(PID.TID 0000.0001) %MON forcing_fv_max               =   1.1153617924993E+00
(PID.TID 0000.0001) %MON forcing_fv_min               =  -8.7821150833108E-01
(PID.TID 0000.0001) %MON forcing_fv_mean              =  -4.8962055997223E-03
(PID.TID 0000.0001) %MON forcing_fv_sd                =   1.1657591345653E-01
(PID.TID 0000.0001) %MON forcing_fv_del2              =   1.6909790335304E-04
(PID.TID 0000.0001) %MON trAdv_CFL_u_max              =   1.6702336669935E-02
(PID.TID 0000.0001) %MON trAdv_CFL_v_max              =   2.4213341646372E-02
(PID.TID 0000.0001) %MON trAdv_CFL_w_max              =   7.3850811607806E-02
(PID.TID 0000.0001) %MON advcfl_uvel_max              =   1.6966186629782E-02
(PID.TID 0000.0001) %MON advcfl_vvel_max              =   2.1514544152027E-02
(PID.TID 0000.0001) %MON advcfl_wvel_max              =   7.6197270069886E-02
(PID.TID 0000.0001) %MON advcfl_W_hf_max              =   7.6502752258560E-02
(PID.TID 0000.0001) %MON pe_b_mean                    =   7.1175826845041E-04
(PID.TID 0000.0001) %MON ke_max                       =   5.0700992920802E-01
(PID.TID 0000.0001) %MON ke_mean                      =   5.0565244609804E-04
(PID.TID 0000.0001) %MON ke_vol                       =   1.3349972905367E+18
(PID.TID 0000.0001) %MON vort_r_min                   =  -3.3570580100245E-05
(PID.TID 0000.0001) %MON vort_r_max                   =   3.3654961428864E-05
(PID.TID 0000.0001) %MON vort_a_mean                  =  -1.9727864647440E-05
(PID.TID 0000.0001) %MON vort_a_sd                    =   7.4543395149965E-05
(PID.TID 0000.0001) %MON vort_p_mean                  =  -2.1760538079417E-05
(PID.TID 0000.0001) %MON vort_p_sd                    =   9.7241271619881E-05
(PID.TID 0000.0001) %MON surfExpan_theta_mean         =  -2.2520679451750E-06
(PID.TID 0000.0001) %MON surfExpan_salt_mean          =  -2.9062895765793E-07
(PID.TID 0000.0001) // =======================================================
(PID.TID 0000.0001) // End MONITOR dynamic field statistics
(PID.TID 0000.0001) // =======================================================
(PID.TID 0000.0001) // =======================================================
(PID.TID 0000.0001) // Begin MONITOR SEAICE statistics
(PID.TID 0000.0001) // =======================================================
(PID.TID 0000.0001) %MON seaice_tsnumber              =                     8
(PID.TID 0000.0001) %MON seaice_time_sec              =   7.2000000000000E+03
(PID.TID 0000.0001) %MON seaice_uice_max              =   7.8960766906659E-01
(PID.TID 0000.0001) %MON seaice_uice_min              =  -7.7177780458638E-01
(PID.TID 0000.0001) %MON seaice_uice_mean             =   9.1571455141467E-04
(PID.TID 0000.0001) %MON seaice_uice_sd               =   1.4740806566221E-01
(PID.TID 0000.0001) %MON seaice_uice_del2             =   2.2451953913659E-04
(PID.TID 0000.0001) %MON seaice_vice_max              =   8.7047831422533E-01
(PID.TID 0000.0001) %MON seaice_vice_min              =  -9.2829545247600E-01
(PID.TID 0000.0001) %MON seaice_vice_mean             =  -1.9516004591405E-03
(PID.TID 0000.0001) %MON seaice_vice_sd               =   1.3330367439333E-01
(PID.TID 0000.0001) %MON seaice_vice_del2             =   2.1122590409655E-04
(PID.TID 0000.0001) %MON seaice_area_max              =   1.0000000000000E+00
(PID.TID 0000.0001) %MON seaice_area_min              =   0.0000000000000E+00
(PID.TID 0000.0001) %MON seaice_area_mean             =   7.2991656716350E-02
(PID.TID 0000.0001) %MON seaice_area_sd               =   2.3785116520817E-01
(PID.TID 0000.0001) %MON seaice_area_del2             =   4.6392912808369E-04
(PID.TID 0000.0001) %MON seaice_heff_max              =   2.5179501311772E+01
(PID.TID 0000.0001) %MON seaice_heff_min              =   0.0000000000000E+00
(PID.TID 0000.0001) %MON seaice_heff_mean             =   2.1601871505707E-01
(PID.TID 0000.0001) %MON seaice_heff_sd               =   1.0610551667208E+00
(PID.TID 0000.0001) %MON seaice_heff_del2             =   3.8008292891548E-03
(PID.TID 0000.0001) %MON seaice_hsnow_max             =   8.3162877115906E+00
(PID.TID 0000.0001) %MON seaice_hsnow_min             =   0.0000000000000E+00
(PID.TID 0000.0001) %MON seaice_hsnow_mean            =   2.4660086342128E-02
(PID.TID 0000.0001) %MON seaice_hsnow_sd              =   1.5741082570711E-01
(PID.TID 0000.0001) %MON seaice_hsnow_del2            =   1.2160815841905E-03
(PID.TID 0000.0001) // =======================================================
(PID.TID 0000.0001) // End MONITOR SEAICE statistics
(PID.TID 0000.0001) // =======================================================
 Computing Diagnostic #     86  oceQnet      Counter:       4   Parms: SM      U1      
 Computing Diagnostic #     87  oceQsw       Counter:       4   Parms: SM      U1      
 Computing Diagnostic #     84  oceFWflx     Counter:       4   Parms: SM      U1      
 Computing Diagnostic #     85  oceSflux     Counter:       4   Parms: SM      U1      
 Computing Diagnostic #     80  oceTAUX      Counter:       4   Parms: UU      U1      
           Vector  Mate for  oceTAUX      Diagnostic #     81  oceTAUY  exists 
 Computing Diagnostic #     81  oceTAUY      Counter:       4   Parms: VV      U1      
           Vector  Mate for  oceTAUY      Diagnostic #     80  oceTAUX  exists 
 Computing Diagnostic #     26  THETA        Counter:       4   Parms: SMR     MR      
 Computing Diagnostic #     27  SALT         Counter:       4   Parms: SMR     MR      
 Computing Diagnostic #     30  UVEL         Counter:       4   Parms: UUR     MR      
           Vector  Mate for  UVEL         Diagnostic #     31  VVEL     exists 
 Computing Diagnostic #     31  VVEL         Counter:       4   Parms: VVR     MR      
           Vector  Mate for  VVEL         Diagnostic #     30  UVEL     exists 
 Computing Diagnostic #    214  SIarea       Counter:       4   Parms: SM      M1      
 Computing Diagnostic #    217  SIheff       Counter:       4   Parms: SM      M1      
 Computing Diagnostic #    219  SIhsnow      Counter:       4   Parms: SM      M1      
 Computing Diagnostic #     83  sIceLoad     Counter:       4   Parms: SM      U1      
 Computing Diagnostic #    223  SIuice       Counter:       4   Parms: UU      M1      
           Vector  Mate for  SIuice       Diagnostic #    224  SIvice   exists 
 Computing Diagnostic #    224  SIvice       Counter:       4   Parms: VV      M1      
           Vector  Mate for  SIvice       Diagnostic #    223  SIuice   exists 
 Computing Diagnostic #    225  SItaux       Counter:       4   Parms: UU      U1      
           Vector  Mate for  SItaux       Diagnostic #    226  SItauy   exists 
 Computing Diagnostic #    226  SItauy       Counter:       4   Parms: VV      U1      
           Vector  Mate for  SItauy       Diagnostic #    225  SItaux   exists 
 Computing Diagnostic #    285  SIareaN      Counter:       4   Parms: SM      MX      
 Computing Diagnostic #    284  SIheffN      Counter:       4   Parms: SM      MX      
 Computing Diagnostic #    286  SIhsnowN     Counter:       4   Parms: SM      MX      
 Compute Stats, Diag. #    214  SIarea    vol(   0 ): 3.580E+14  Parms: SM      M1      
 Compute Stats, Diag. #    217  SIheff    vol(   0 ): 3.580E+14  Parms: SM      M1      
 Compute Stats, Diag. #    219  SIhsnow   vol(   0 ): 3.580E+14  Parms: SM      M1      
 Compute Stats, Diag. #     83  sIceLoad  vol(   0 ): 3.580E+14  Parms: SM      U1      
 Compute Stats, Diag. #    223  SIuice    vol(   0 ): 3.513E+14  Parms: UU      M1      
 Compute Stats, Diag. #    224  SIvice    vol(   0 ): 3.508E+14  Parms: VV      M1      
 Compute Stats, Diag. #    225  SItaux    vol(   0 ): 3.513E+14  Parms: UU      U1      
 Compute Stats, Diag. #    226  SItauy    vol(   0 ): 3.508E+14  Parms: VV      U1      
 SEAICE_LSR: Residual Initial ipass,Uice,Vice=    1  4.27637961E-02  4.70236699E-02
 SEAICE_LSR (ipass=   1) iters,dU,Resid=  1500  1.83415705E-08  3.34615339E-06
 SEAICE_LSR (ipass=   1) iters,dV,Resid=  1500  5.69565730E-07  2.16847717E-04
 SEAICE_LSR: Residual Initial ipass,Uice,Vice=    2  3.91241002E-02  4.31399797E-02
 SEAICE_LSR (ipass=   2) iters,dU,Resid=  1500  1.18409348E-08  2.08132010E-06
 SEAICE_LSR (ipass=   2) iters,dV,Resid=  1500  4.11765589E-07  1.66648027E-04
 cg2d: Sum(rhs),rhsMax =   5.42811970921070E+01  3.07125470344709E-01
 Compute Stats, Diag. #    214  SIarea    vol(   0 ): 3.580E+14  Parms: SM      M1      
 Compute Stats, Diag. #    217  SIheff    vol(   0 ): 3.580E+14  Parms: SM      M1      
 Compute Stats, Diag. #    219  SIhsnow   vol(   0 ): 3.580E+14  Parms: SM      M1      
 Compute Stats, Diag. #     83  sIceLoad  vol(   0 ): 3.580E+14  Parms: SM      U1      
 Compute Stats, Diag. #    223  SIuice    vol(   0 ): 3.513E+14  Parms: UU      M1      
 Compute Stats, Diag. #    224  SIvice    vol(   0 ): 3.508E+14  Parms: VV      M1      
 Compute Stats, Diag. #    225  SItaux    vol(   0 ): 3.513E+14  Parms: UU      U1      
 Compute Stats, Diag. #    226  SItauy    vol(   0 ): 3.508E+14  Parms: VV      U1      
 cg2d: Sum(rhs),rhsMax =   5.55703402413994E+01  3.04146469619051E-01
 Compute Stats, Diag. #    214  SIarea    vol(   0 ): 3.580E+14  Parms: SM      M1      
 Compute Stats, Diag. #    217  SIheff    vol(   0 ): 3.580E+14  Parms: SM      M1      
 Compute Stats, Diag. #    219  SIhsnow   vol(   0 ): 3.580E+14  Parms: SM      M1      
 Compute Stats, Diag. #     83  sIceLoad  vol(   0 ): 3.580E+14  Parms: SM      U1      
 Compute Stats, Diag. #    223  SIuice    vol(   0 ): 3.513E+14  Parms: UU      M1      
 Compute Stats, Diag. #    224  SIvice    vol(   0 ): 3.508E+14  Parms: VV      M1      
 Compute Stats, Diag. #    225  SItaux    vol(   0 ): 3.513E+14  Parms: UU      U1      
 Compute Stats, Diag. #    226  SItauy    vol(   0 ): 3.508E+14  Parms: VV      U1      
 cg2d: Sum(rhs),rhsMax =   5.68518968189175E+01  3.01124677544287E-01
 Compute Stats, Diag. #    214  SIarea    vol(   0 ): 3.580E+14  Parms: SM      M1      
 Compute Stats, Diag. #    217  SIheff    vol(   0 ): 3.580E+14  Parms: SM      M1      
 Compute Stats, Diag. #    219  SIhsnow   vol(   0 ): 3.580E+14  Parms: SM      M1      
 Compute Stats, Diag. #     83  sIceLoad  vol(   0 ): 3.580E+14  Parms: SM      U1      
 Compute Stats, Diag. #    223  SIuice    vol(   0 ): 3.513E+14  Parms: UU      M1      
 Compute Stats, Diag. #    224  SIvice    vol(   0 ): 3.508E+14  Parms: VV      M1      
 Compute Stats, Diag. #    225  SItaux    vol(   0 ): 3.513E+14  Parms: UU      U1      
 Compute Stats, Diag. #    226  SItauy    vol(   0 ): 3.508E+14  Parms: VV      U1      
 cg2d: Sum(rhs),rhsMax =   5.81171379111397E+01  2.98321282710345E-01
 Computing Diagnostic #     86  oceQnet      Counter:       4   Parms: SM      U1      
 Computing Diagnostic #     87  oceQsw       Counter:       4   Parms: SM      U1      
 Computing Diagnostic #     84  oceFWflx     Counter:       4   Parms: SM      U1      
 Computing Diagnostic #     85  oceSflux     Counter:       4   Parms: SM      U1      
 Computing Diagnostic #     80  oceTAUX      Counter:       4   Parms: UU      U1      
           Vector  Mate for  oceTAUX      Diagnostic #     81  oceTAUY  exists 
 Computing Diagnostic #     81  oceTAUY      Counter:       4   Parms: VV      U1      
           Vector  Mate for  oceTAUY      Diagnostic #     80  oceTAUX  exists 
 Computing Diagnostic #     26  THETA        Counter:       4   Parms: SMR     MR      
 Computing Diagnostic #     27  SALT         Counter:       4   Parms: SMR     MR      
 Computing Diagnostic #     30  UVEL         Counter:       4   Parms: UUR     MR      
           Vector  Mate for  UVEL         Diagnostic #     31  VVEL     exists 
 Computing Diagnostic #     31  VVEL         Counter:       4   Parms: VVR     MR      
           Vector  Mate for  VVEL         Diagnostic #     30  UVEL     exists 
 Computing Diagnostic #    214  SIarea       Counter:       4   Parms: SM      M1      
 Computing Diagnostic #    217  SIheff       Counter:       4   Parms: SM      M1      
 Computing Diagnostic #    219  SIhsnow      Counter:       4   Parms: SM      M1      
 Computing Diagnostic #     83  sIceLoad     Counter:       4   Parms: SM      U1      
 Computing Diagnostic #    223  SIuice       Counter:       4   Parms: UU      M1      
           Vector  Mate for  SIuice       Diagnostic #    224  SIvice   exists 
 Computing Diagnostic #    224  SIvice       Counter:       4   Parms: VV      M1      
           Vector  Mate for  SIvice       Diagnostic #    223  SIuice   exists 
 Computing Diagnostic #    225  SItaux       Counter:       4   Parms: UU      U1      
           Vector  Mate for  SItaux       Diagnostic #    226  SItauy   exists 
 Computing Diagnostic #    226  SItauy       Counter:       4   Parms: VV      U1      
           Vector  Mate for  SItauy       Diagnostic #    225  SItaux   exists 
 Computing Diagnostic #    285  SIareaN      Counter:       4   Parms: SM      MX      
 Computing Diagnostic #    284  SIheffN      Counter:       4   Parms: SM      MX      
 Computing Diagnostic #    286  SIhsnowN     Counter:       4   Parms: SM      MX      
 Compute Stats, Diag. #    214  SIarea    vol(   0 ): 3.580E+14  Parms: SM      M1      
 Compute Stats, Diag. #    217  SIheff    vol(   0 ): 3.580E+14  Parms: SM      M1      
 Compute Stats, Diag. #    219  SIhsnow   vol(   0 ): 3.580E+14  Parms: SM      M1      
 Compute Stats, Diag. #     83  sIceLoad  vol(   0 ): 3.580E+14  Parms: SM      U1      
 Compute Stats, Diag. #    223  SIuice    vol(   0 ): 3.513E+14  Parms: UU      M1      
 Compute Stats, Diag. #    224  SIvice    vol(   0 ): 3.508E+14  Parms: VV      M1      
 Compute Stats, Diag. #    225  SItaux    vol(   0 ): 3.513E+14  Parms: UU      U1      
 Compute Stats, Diag. #    226  SItauy    vol(   0 ): 3.508E+14  Parms: VV      U1      
 cg2d: Sum(rhs),rhsMax =   5.93507546677726E+01  2.95896460781493E-01
 Compute Stats, Diag. #    214  SIarea    vol(   0 ): 3.580E+14  Parms: SM      M1      
 Compute Stats, Diag. #    217  SIheff    vol(   0 ): 3.580E+14  Parms: SM      M1      
 Compute Stats, Diag. #    219  SIhsnow   vol(   0 ): 3.580E+14  Parms: SM      M1      
 Compute Stats, Diag. #     83  sIceLoad  vol(   0 ): 3.580E+14  Parms: SM      U1      
 Compute Stats, Diag. #    223  SIuice    vol(   0 ): 3.513E+14  Parms: UU      M1      
 Compute Stats, Diag. #    224  SIvice    vol(   0 ): 3.508E+14  Parms: VV      M1      
 Compute Stats, Diag. #    225  SItaux    vol(   0 ): 3.513E+14  Parms: UU      U1      
 Compute Stats, Diag. #    226  SItauy    vol(   0 ): 3.508E+14  Parms: VV      U1      
 cg2d: Sum(rhs),rhsMax =   6.05530179224657E+01  2.93911115434037E-01
 Compute Stats, Diag. #    214  SIarea    vol(   0 ): 3.580E+14  Parms: SM      M1      
 Compute Stats, Diag. #    217  SIheff    vol(   0 ): 3.580E+14  Parms: SM      M1      
 Compute Stats, Diag. #    219  SIhsnow   vol(   0 ): 3.580E+14  Parms: SM      M1      
 Compute Stats, Diag. #     83  sIceLoad  vol(   0 ): 3.580E+14  Parms: SM      U1      
 Compute Stats, Diag. #    223  SIuice    vol(   0 ): 3.513E+14  Parms: UU      M1      
 Compute Stats, Diag. #    224  SIvice    vol(   0 ): 3.508E+14  Parms: VV      M1      
 Compute Stats, Diag. #    225  SItaux    vol(   0 ): 3.513E+14  Parms: UU      U1      
 Compute Stats, Diag. #    226  SItauy    vol(   0 ): 3.508E+14  Parms: VV      U1      
 cg2d: Sum(rhs),rhsMax =   6.17186281811941E+01  2.92360424951561E-01
 Compute Stats, Diag. #    214  SIarea    vol(   0 ): 3.580E+14  Parms: SM      M1      
 Compute Stats, Diag. #    217  SIheff    vol(   0 ): 3.580E+14  Parms: SM      M1      
 Compute Stats, Diag. #    219  SIhsnow   vol(   0 ): 3.580E+14  Parms: SM      M1      
 Compute Stats, Diag. #     83  sIceLoad  vol(   0 ): 3.580E+14  Parms: SM      U1      
 Compute Stats, Diag. #    223  SIuice    vol(   0 ): 3.513E+14  Parms: UU      M1      
 Compute Stats, Diag. #    224  SIvice    vol(   0 ): 3.508E+14  Parms: VV      M1      
 Compute Stats, Diag. #    225  SItaux    vol(   0 ): 3.513E+14  Parms: UU      U1      
 Compute Stats, Diag. #    226  SItauy    vol(   0 ): 3.508E+14  Parms: VV      U1      
 cg2d: Sum(rhs),rhsMax =   6.28453304774337E+01  2.91189047256126E-01
(PID.TID 0000.0001)      cg2d_init_res =   7.94189663810394E-01
(PID.TID 0000.0001)      cg2d_iters(min,last) =      -1      34
(PID.TID 0000.0001)      cg2d_last_res =   2.47891978278472E-05
(PID.TID 0000.0001) // =======================================================
(PID.TID 0000.0001) // Begin MONITOR dynamic field statistics
(PID.TID 0000.0001) // =======================================================
(PID.TID 0000.0001) %MON time_tsnumber                =                    16
(PID.TID 0000.0001) %MON time_secondsf                =   1.4400000000000E+04
(PID.TID 0000.0001) %MON dynstat_eta_max              =   1.1138721677108E+00
(PID.TID 0000.0001) %MON dynstat_eta_min              =  -4.2957113562713E+00
(PID.TID 0000.0001) %MON dynstat_eta_mean             =  -1.9879985176691E-03
(PID.TID 0000.0001) %MON dynstat_eta_sd               =   7.2645136292443E-01
(PID.TID 0000.0001) %MON dynstat_eta_del2             =   1.0318552054482E-04
(PID.TID 0000.0001) %MON dynstat_uvel_max             =   8.6124228906077E-01
(PID.TID 0000.0001) %MON dynstat_uvel_min             =  -1.0838969191871E+00
(PID.TID 0000.0001) %MON dynstat_uvel_mean            =   1.9630242415762E-03
(PID.TID 0000.0001) %MON dynstat_uvel_sd              =   2.1912338026922E-02
(PID.TID 0000.0001) %MON dynstat_uvel_del2            =   1.5271000614297E-05
(PID.TID 0000.0001) %MON dynstat_vvel_max             =   9.9806741674815E-01
(PID.TID 0000.0001) %MON dynstat_vvel_min             =  -9.3683926826611E-01
(PID.TID 0000.0001) %MON dynstat_vvel_mean            =   1.2005643448206E-03
(PID.TID 0000.0001) %MON dynstat_vvel_sd              =   2.3711602454131E-02
(PID.TID 0000.0001) %MON dynstat_vvel_del2            =   1.6592511490266E-05
(PID.TID 0000.0001) %MON dynstat_wvel_max             =   2.3530851615032E-03
(PID.TID 0000.0001) %MON dynstat_wvel_min             =  -2.6518474075313E-03
(PID.TID 0000.0001) %MON dynstat_wvel_mean            =  -1.1940640719602E-08
(PID.TID 0000.0001) %MON dynstat_wvel_sd              =   3.2089274066959E-05
(PID.TID 0000.0001) %MON dynstat_wvel_del2            =   4.0019437843374E-08
(PID.TID 0000.0001) %MON dynstat_theta_max            =   3.2656593170660E+01
(PID.TID 0000.0001) %MON dynstat_theta_min            =  -2.0420986516760E+00
(PID.TID 0000.0001) %MON dynstat_theta_mean           =   3.5906049333770E+00
(PID.TID 0000.0001) %MON dynstat_theta_sd             =   4.4366329305115E+00
(PID.TID 0000.0001) %MON dynstat_theta_del2           =   1.0875707508279E-04
(PID.TID 0000.0001) %MON dynstat_salt_max             =   4.0711524457665E+01
(PID.TID 0000.0001) %MON dynstat_salt_min             =   1.8884060841085E+01
(PID.TID 0000.0001) %MON dynstat_salt_mean            =   3.4725725452554E+01
(PID.TID 0000.0001) %MON dynstat_salt_sd              =   3.7757420811097E-01
(PID.TID 0000.0001) %MON dynstat_salt_del2            =   2.6937986292275E-05
(PID.TID 0000.0001) %MON dynstat_sst_max              =   3.2656593170660E+01
(PID.TID 0000.0001) %MON dynstat_sst_min              =  -1.9432303187251E+00
(PID.TID 0000.0001) %MON dynstat_sst_mean             =   1.8504213287405E+01
(PID.TID 0000.0001) %MON dynstat_sst_sd               =   1.0096434969536E+01
(PID.TID 0000.0001) %MON dynstat_sst_del2             =   8.7302870928033E-04
(PID.TID 0000.0001) %MON dynstat_sss_max              =   3.9618155559591E+01
(PID.TID 0000.0001) %MON dynstat_sss_min              =   1.8884060841085E+01
(PID.TID 0000.0001) %MON dynstat_sss_mean             =   3.4698028648051E+01
(PID.TID 0000.0001) %MON dynstat_sss_sd               =   1.1424060335988E+00
(PID.TID 0000.0001) %MON dynstat_sss_del2             =   4.0622641892868E-04
(PID.TID 0000.0001) %MON forcing_qnet_max             =   4.8402250983114E+03
(PID.TID 0000.0001) %MON forcing_qnet_min             =  -1.1412994325550E+03
(PID.TID 0000.0001) %MON forcing_qnet_mean            =  -2.5243989477246E+01
(PID.TID 0000.0001) %MON forcing_qnet_sd              =   2.2347071881981E+02
(PID.TID 0000.0001) %MON forcing_qnet_del2            =   6.6184344270493E-01
(PID.TID 0000.0001) %MON forcing_qsw_max              =   0.0000000000000E+00
(PID.TID 0000.0001) %MON forcing_qsw_min              =  -1.1026009322391E+02
(PID.TID 0000.0001) %MON forcing_qsw_mean             =  -2.1540707344435E+01
(PID.TID 0000.0001) %MON forcing_qsw_sd               =   3.0197505383571E+01
(PID.TID 0000.0001) %MON forcing_qsw_del2             =   2.1825775199273E-02
(PID.TID 0000.0001) %MON forcing_empmr_max            =   3.7434897385538E-03
(PID.TID 0000.0001) %MON forcing_empmr_min            =  -7.1065038442612E-02
(PID.TID 0000.0001) %MON forcing_empmr_mean           =   4.0749762942887E-05
(PID.TID 0000.0001) %MON forcing_empmr_sd             =   4.5636235985789E-04
(PID.TID 0000.0001) %MON forcing_empmr_del2           =   3.0979364618685E-06
(PID.TID 0000.0001) %MON forcing_fu_max               =   1.2769827227826E+00
(PID.TID 0000.0001) %MON forcing_fu_min               =  -1.2403721107367E+00
(PID.TID 0000.0001) %MON forcing_fu_mean              =   1.1408045356364E-02
(PID.TID 0000.0001) %MON forcing_fu_sd                =   1.2042829923238E-01
(PID.TID 0000.0001) %MON forcing_fu_del2              =   1.8920030868915E-04
(PID.TID 0000.0001) %MON forcing_fv_max               =   1.1408456178780E+00
(PID.TID 0000.0001) %MON forcing_fv_min               =  -8.9372779027973E-01
(PID.TID 0000.0001) %MON forcing_fv_mean              =  -4.3589319965039E-03
(PID.TID 0000.0001) %MON forcing_fv_sd                =   1.1172228600683E-01
(PID.TID 0000.0001) %MON forcing_fv_del2              =   1.6489796918628E-04
(PID.TID 0000.0001) %MON trAdv_CFL_u_max              =   1.8126103983540E-02
(PID.TID 0000.0001) %MON trAdv_CFL_v_max              =   1.8941667194550E-02
(PID.TID 0000.0001) %MON trAdv_CFL_w_max              =   6.0390416219213E-02
(PID.TID 0000.0001) %MON advcfl_uvel_max              =   1.8364946520957E-02
(PID.TID 0000.0001) %MON advcfl_vvel_max              =   1.8905452391726E-02
(PID.TID 0000.0001) %MON advcfl_wvel_max              =   6.1893886630670E-02
(PID.TID 0000.0001) %MON advcfl_W_hf_max              =   6.5488006684704E-02
(PID.TID 0000.0001) %MON pe_b_mean                    =   6.9418439026224E-04
(PID.TID 0000.0001) %MON ke_max                       =   5.8170568388877E-01
(PID.TID 0000.0001) %MON ke_mean                      =   5.0518959456543E-04
(PID.TID 0000.0001) %MON ke_vol                       =   1.3349971779683E+18
(PID.TID 0000.0001) %MON vort_r_min                   =  -3.1484808827684E-05
(PID.TID 0000.0001) %MON vort_r_max                   =   3.3636743079942E-05
(PID.TID 0000.0001) %MON vort_a_mean                  =  -1.9727864647440E-05
(PID.TID 0000.0001) %MON vort_a_sd                    =   7.4543375852575E-05
(PID.TID 0000.0001) %MON vort_p_mean                  =  -2.1760540526229E-05
(PID.TID 0000.0001) %MON vort_p_sd                    =   9.7242591553899E-05
(PID.TID 0000.0001) %MON surfExpan_theta_mean         =  -2.6107056842802E-06
(PID.TID 0000.0001) %MON surfExpan_salt_mean          =  -3.3379148527264E-07
(PID.TID 0000.0001) // =======================================================
(PID.TID 0000.0001) // End MONITOR dynamic field statistics
(PID.TID 0000.0001) // =======================================================
(PID.TID 0000.0001) // =======================================================
(PID.TID 0000.0001) // Begin MONITOR SEAICE statistics
(PID.TID 0000.0001) // =======================================================
(PID.TID 0000.0001) %MON seaice_tsnumber              =                    16
(PID.TID 0000.0001) %MON seaice_time_sec              =   1.4400000000000E+04
(PID.TID 0000.0001) %MON seaice_uice_max              =   8.5236991456068E-01
(PID.TID 0000.0001) %MON seaice_uice_min              =  -8.7271858080369E-01
(PID.TID 0000.0001) %MON seaice_uice_mean             =  -3.3663759372410E-04
(PID.TID 0000.0001) %MON seaice_uice_sd               =   1.5486832041031E-01
(PID.TID 0000.0001) %MON seaice_uice_del2             =   2.2304387174059E-04
(PID.TID 0000.0001) %MON seaice_vice_max              =   8.1243100410053E-01
(PID.TID 0000.0001) %MON seaice_vice_min              =  -9.2469353556093E-01
(PID.TID 0000.0001) %MON seaice_vice_mean             =  -2.9699809948324E-03
(PID.TID 0000.0001) %MON seaice_vice_sd               =   1.3336583511376E-01
(PID.TID 0000.0001) %MON seaice_vice_del2             =   1.9775306938122E-04
(PID.TID 0000.0001) %MON seaice_area_max              =   1.0000000000000E+00
(PID.TID 0000.0001) %MON seaice_area_min              =   0.0000000000000E+00
(PID.TID 0000.0001) %MON seaice_area_mean             =   7.2615590760437E-02
(PID.TID 0000.0001) %MON seaice_area_sd               =   2.3772744516489E-01
(PID.TID 0000.0001) %MON seaice_area_del2             =   4.4701836543541E-04
(PID.TID 0000.0001) %MON seaice_heff_max              =   2.5138967547714E+01
(PID.TID 0000.0001) %MON seaice_heff_min              =   0.0000000000000E+00
(PID.TID 0000.0001) %MON seaice_heff_mean             =   2.1639044192512E-01
(PID.TID 0000.0001) %MON seaice_heff_sd               =   1.0622793846739E+00
(PID.TID 0000.0001) %MON seaice_heff_del2             =   3.6691934027781E-03
(PID.TID 0000.0001) %MON seaice_hsnow_max             =   8.3029017845543E+00
(PID.TID 0000.0001) %MON seaice_hsnow_min             =   0.0000000000000E+00
(PID.TID 0000.0001) %MON seaice_hsnow_mean            =   2.4651417139055E-02
(PID.TID 0000.0001) %MON seaice_hsnow_sd              =   1.5649658596780E-01
(PID.TID 0000.0001) %MON seaice_hsnow_del2            =   1.1723818631113E-03
(PID.TID 0000.0001) // =======================================================
(PID.TID 0000.0001) // End MONITOR SEAICE statistics
(PID.TID 0000.0001) // =======================================================
 Computing Diagnostic #     86  oceQnet      Counter:       4   Parms: SM      U1      
 Computing Diagnostic #     87  oceQsw       Counter:       4   Parms: SM      U1      
 Computing Diagnostic #     84  oceFWflx     Counter:       4   Parms: SM      U1      
 Computing Diagnostic #     85  oceSflux     Counter:       4   Parms: SM      U1      
 Computing Diagnostic #     80  oceTAUX      Counter:       4   Parms: UU      U1      
           Vector  Mate for  oceTAUX      Diagnostic #     81  oceTAUY  exists 
 Computing Diagnostic #     81  oceTAUY      Counter:       4   Parms: VV      U1      
           Vector  Mate for  oceTAUY      Diagnostic #     80  oceTAUX  exists 
 Computing Diagnostic #     26  THETA        Counter:       4   Parms: SMR     MR      
 Computing Diagnostic #     27  SALT         Counter:       4   Parms: SMR     MR      
 Computing Diagnostic #     30  UVEL         Counter:       4   Parms: UUR     MR      
           Vector  Mate for  UVEL         Diagnostic #     31  VVEL     exists 
 Computing Diagnostic #     31  VVEL         Counter:       4   Parms: VVR     MR      
           Vector  Mate for  VVEL         Diagnostic #     30  UVEL     exists 
 Computing Diagnostic #    214  SIarea       Counter:       4   Parms: SM      M1      
 Computing Diagnostic #    217  SIheff       Counter:       4   Parms: SM      M1      
 Computing Diagnostic #    219  SIhsnow      Counter:       4   Parms: SM      M1      
 Computing Diagnostic #     83  sIceLoad     Counter:       4   Parms: SM      U1      
 Computing Diagnostic #    223  SIuice       Counter:       4   Parms: UU      M1      
           Vector  Mate for  SIuice       Diagnostic #    224  SIvice   exists 
 Computing Diagnostic #    224  SIvice       Counter:       4   Parms: VV      M1      
           Vector  Mate for  SIvice       Diagnostic #    223  SIuice   exists 
 Computing Diagnostic #    225  SItaux       Counter:       4   Parms: UU      U1      
           Vector  Mate for  SItaux       Diagnostic #    226  SItauy   exists 
 Computing Diagnostic #    226  SItauy       Counter:       4   Parms: VV      U1      
           Vector  Mate for  SItauy       Diagnostic #    225  SItaux   exists 
 Computing Diagnostic #    285  SIareaN      Counter:       4   Parms: SM      MX      
 Computing Diagnostic #    284  SIheffN      Counter:       4   Parms: SM      MX      
 Computing Diagnostic #    286  SIhsnowN     Counter:       4   Parms: SM      MX      
 Compute Stats, Diag. #    214  SIarea    vol(   0 ): 3.580E+14  Parms: SM      M1      
 Compute Stats, Diag. #    217  SIheff    vol(   0 ): 3.580E+14  Parms: SM      M1      
 Compute Stats, Diag. #    219  SIhsnow   vol(   0 ): 3.580E+14  Parms: SM      M1      
 Compute Stats, Diag. #     83  sIceLoad  vol(   0 ): 3.580E+14  Parms: SM      U1      
 Compute Stats, Diag. #    223  SIuice    vol(   0 ): 3.513E+14  Parms: UU      M1      
 Compute Stats, Diag. #    224  SIvice    vol(   0 ): 3.508E+14  Parms: VV      M1      
 Compute Stats, Diag. #    225  SItaux    vol(   0 ): 3.513E+14  Parms: UU      U1      
 Compute Stats, Diag. #    226  SItauy    vol(   0 ): 3.508E+14  Parms: VV      U1      
 SEAICE_LSR: Residual Initial ipass,Uice,Vice=    1  4.34496432E-02  4.01740787E-02
 SEAICE_LSR (ipass=   1) iters,dU,Resid=  1500  2.83539803E-08  2.37392259E-05
 SEAICE_LSR (ipass=   1) iters,dV,Resid=  1500  3.39115771E-08  3.05155914E-05
 SEAICE_LSR: Residual Initial ipass,Uice,Vice=    2  3.83869094E-02  3.59151398E-02
 SEAICE_LSR (ipass=   2) iters,dU,Resid=  1500  2.10969284E-08  1.77263274E-05
 SEAICE_LSR (ipass=   2) iters,dV,Resid=  1500  1.80851354E-08  1.67400508E-05
 cg2d: Sum(rhs),rhsMax =   6.39319135292205E+01  2.90314785878472E-01
 Compute Stats, Diag. #    214  SIarea    vol(   0 ): 3.580E+14  Parms: SM      M1      
 Compute Stats, Diag. #    217  SIheff    vol(   0 ): 3.580E+14  Parms: SM      M1      
 Compute Stats, Diag. #    219  SIhsnow   vol(   0 ): 3.580E+14  Parms: SM      M1      
 Compute Stats, Diag. #     83  sIceLoad  vol(   0 ): 3.580E+14  Parms: SM      U1      
 Compute Stats, Diag. #    223  SIuice    vol(   0 ): 3.513E+14  Parms: UU      M1      
 Compute Stats, Diag. #    224  SIvice    vol(   0 ): 3.508E+14  Parms: VV      M1      
 Compute Stats, Diag. #    225  SItaux    vol(   0 ): 3.513E+14  Parms: UU      U1      
 Compute Stats, Diag. #    226  SItauy    vol(   0 ): 3.508E+14  Parms: VV      U1      
 cg2d: Sum(rhs),rhsMax =   6.49794681432325E+01  2.89644095395036E-01
 Compute Stats, Diag. #    214  SIarea    vol(   0 ): 3.580E+14  Parms: SM      M1      
 Compute Stats, Diag. #    217  SIheff    vol(   0 ): 3.580E+14  Parms: SM      M1      
 Compute Stats, Diag. #    219  SIhsnow   vol(   0 ): 3.580E+14  Parms: SM      M1      
 Compute Stats, Diag. #     83  sIceLoad  vol(   0 ): 3.580E+14  Parms: SM      U1      
 Compute Stats, Diag. #    223  SIuice    vol(   0 ): 3.513E+14  Parms: UU      M1      
 Compute Stats, Diag. #    224  SIvice    vol(   0 ): 3.508E+14  Parms: VV      M1      
 Compute Stats, Diag. #    225  SItaux    vol(   0 ): 3.513E+14  Parms: UU      U1      
 Compute Stats, Diag. #    226  SItauy    vol(   0 ): 3.508E+14  Parms: VV      U1      
 cg2d: Sum(rhs),rhsMax =   6.59844120224414E+01  2.89102770027057E-01
 Compute Stats, Diag. #    214  SIarea    vol(   0 ): 3.580E+14  Parms: SM      M1      
 Compute Stats, Diag. #    217  SIheff    vol(   0 ): 3.580E+14  Parms: SM      M1      
 Compute Stats, Diag. #    219  SIhsnow   vol(   0 ): 3.580E+14  Parms: SM      M1      
 Compute Stats, Diag. #     83  sIceLoad  vol(   0 ): 3.580E+14  Parms: SM      U1      
 Compute Stats, Diag. #    223  SIuice    vol(   0 ): 3.513E+14  Parms: UU      M1      
 Compute Stats, Diag. #    224  SIvice    vol(   0 ): 3.508E+14  Parms: VV      M1      
 Compute Stats, Diag. #    225  SItaux    vol(   0 ): 3.513E+14  Parms: UU      U1      
 Compute Stats, Diag. #    226  SItauy    vol(   0 ): 3.508E+14  Parms: VV      U1      
 cg2d: Sum(rhs),rhsMax =   6.69470960625447E+01  2.88649593683893E-01
 Computing Diagnostic #     86  oceQnet      Counter:       4   Parms: SM      U1      
 Computing Diagnostic #     87  oceQsw       Counter:       4   Parms: SM      U1      
 Computing Diagnostic #     84  oceFWflx     Counter:       4   Parms: SM      U1      
 Computing Diagnostic #     85  oceSflux     Counter:       4   Parms: SM      U1      
 Computing Diagnostic #     80  oceTAUX      Counter:       4   Parms: UU      U1      
           Vector  Mate for  oceTAUX      Diagnostic #     81  oceTAUY  exists 
 Computing Diagnostic #     81  oceTAUY      Counter:       4   Parms: VV      U1      
           Vector  Mate for  oceTAUY      Diagnostic #     80  oceTAUX  exists 
 Computing Diagnostic #     26  THETA        Counter:       4   Parms: SMR     MR      
 Computing Diagnostic #     27  SALT         Counter:       4   Parms: SMR     MR      
 Computing Diagnostic #     30  UVEL         Counter:       4   Parms: UUR     MR      
           Vector  Mate for  UVEL         Diagnostic #     31  VVEL     exists 
 Computing Diagnostic #     31  VVEL         Counter:       4   Parms: VVR     MR      
           Vector  Mate for  VVEL         Diagnostic #     30  UVEL     exists 
 Computing Diagnostic #    214  SIarea       Counter:       4   Parms: SM      M1      
 Computing Diagnostic #    217  SIheff       Counter:       4   Parms: SM      M1      
 Computing Diagnostic #    219  SIhsnow      Counter:       4   Parms: SM      M1      
 Computing Diagnostic #     83  sIceLoad     Counter:       4   Parms: SM      U1      
 Computing Diagnostic #    223  SIuice       Counter:       4   Parms: UU      M1      
           Vector  Mate for  SIuice       Diagnostic #    224  SIvice   exists 
 Computing Diagnostic #    224  SIvice       Counter:       4   Parms: VV      M1      
           Vector  Mate for  SIvice       Diagnostic #    223  SIuice   exists 
 Computing Diagnostic #    225  SItaux       Counter:       4   Parms: UU      U1      
           Vector  Mate for  SItaux       Diagnostic #    226  SItauy   exists 
 Computing Diagnostic #    226  SItauy       Counter:       4   Parms: VV      U1      
           Vector  Mate for  SItauy       Diagnostic #    225  SItaux   exists 
 Computing Diagnostic #    285  SIareaN      Counter:       4   Parms: SM      MX      
 Computing Diagnostic #    284  SIheffN      Counter:       4   Parms: SM      MX      
 Computing Diagnostic #    286  SIhsnowN     Counter:       4   Parms: SM      MX      
 Compute Stats, Diag. #    214  SIarea    vol(   0 ): 3.580E+14  Parms: SM      M1      
 Compute Stats, Diag. #    217  SIheff    vol(   0 ): 3.580E+14  Parms: SM      M1      
 Compute Stats, Diag. #    219  SIhsnow   vol(   0 ): 3.580E+14  Parms: SM      M1      
 Compute Stats, Diag. #     83  sIceLoad  vol(   0 ): 3.580E+14  Parms: SM      U1      
 Compute Stats, Diag. #    223  SIuice    vol(   0 ): 3.513E+14  Parms: UU      M1      
 Compute Stats, Diag. #    224  SIvice    vol(   0 ): 3.508E+14  Parms: VV      M1      
 Compute Stats, Diag. #    225  SItaux    vol(   0 ): 3.513E+14  Parms: UU      U1      
 Compute Stats, Diag. #    226  SItauy    vol(   0 ): 3.508E+14  Parms: VV      U1      
 cg2d: Sum(rhs),rhsMax =   6.78703126813796E+01  2.88294524799269E-01
 Compute Stats, Diag. #    214  SIarea    vol(   0 ): 3.580E+14  Parms: SM      M1      
 Compute Stats, Diag. #    217  SIheff    vol(   0 ): 3.580E+14  Parms: SM      M1      
 Compute Stats, Diag. #    219  SIhsnow   vol(   0 ): 3.580E+14  Parms: SM      M1      
 Compute Stats, Diag. #     83  sIceLoad  vol(   0 ): 3.580E+14  Parms: SM      U1      
 Compute Stats, Diag. #    223  SIuice    vol(   0 ): 3.513E+14  Parms: UU      M1      
 Compute Stats, Diag. #    224  SIvice    vol(   0 ): 3.508E+14  Parms: VV      M1      
 Compute Stats, Diag. #    225  SItaux    vol(   0 ): 3.513E+14  Parms: UU      U1      
 Compute Stats, Diag. #    226  SItauy    vol(   0 ): 3.508E+14  Parms: VV      U1      
 cg2d: Sum(rhs),rhsMax =   6.87563175829776E+01  2.88087425583975E-01
 Compute Stats, Diag. #    214  SIarea    vol(   0 ): 3.580E+14  Parms: SM      M1      
 Compute Stats, Diag. #    217  SIheff    vol(   0 ): 3.580E+14  Parms: SM      M1      
 Compute Stats, Diag. #    219  SIhsnow   vol(   0 ): 3.580E+14  Parms: SM      M1      
 Compute Stats, Diag. #     83  sIceLoad  vol(   0 ): 3.580E+14  Parms: SM      U1      
 Compute Stats, Diag. #    223  SIuice    vol(   0 ): 3.513E+14  Parms: UU      M1      
 Compute Stats, Diag. #    224  SIvice    vol(   0 ): 3.508E+14  Parms: VV      M1      
 Compute Stats, Diag. #    225  SItaux    vol(   0 ): 3.513E+14  Parms: UU      U1      
 Compute Stats, Diag. #    226  SItauy    vol(   0 ): 3.508E+14  Parms: VV      U1      
 cg2d: Sum(rhs),rhsMax =   6.95998646793914E+01  2.88104604900848E-01
 Compute Stats, Diag. #    214  SIarea    vol(   0 ): 3.580E+14  Parms: SM      M1      
 Compute Stats, Diag. #    217  SIheff    vol(   0 ): 3.580E+14  Parms: SM      M1      
 Compute Stats, Diag. #    219  SIhsnow   vol(   0 ): 3.580E+14  Parms: SM      M1      
 Compute Stats, Diag. #     83  sIceLoad  vol(   0 ): 3.580E+14  Parms: SM      U1      
 Compute Stats, Diag. #    223  SIuice    vol(   0 ): 3.513E+14  Parms: UU      M1      
 Compute Stats, Diag. #    224  SIvice    vol(   0 ): 3.508E+14  Parms: VV      M1      
 Compute Stats, Diag. #    225  SItaux    vol(   0 ): 3.513E+14  Parms: UU      U1      
 Compute Stats, Diag. #    226  SItauy    vol(   0 ): 3.508E+14  Parms: VV      U1      
 cg2d: Sum(rhs),rhsMax =   7.04045751124929E+01  2.88421420172737E-01
(PID.TID 0000.0001)      cg2d_init_res =   5.99212347406227E-01
(PID.TID 0000.0001)      cg2d_iters(min,last) =      -1      34
(PID.TID 0000.0001)      cg2d_last_res =   2.46452861624929E-05
(PID.TID 0000.0001) // =======================================================
(PID.TID 0000.0001) // Begin MONITOR dynamic field statistics
(PID.TID 0000.0001) // =======================================================
(PID.TID 0000.0001) %MON time_tsnumber                =                    24
(PID.TID 0000.0001) %MON time_secondsf                =   2.1600000000000E+04
(PID.TID 0000.0001) %MON dynstat_eta_max              =   1.1050988945365E+00
(PID.TID 0000.0001) %MON dynstat_eta_min              =  -3.9248574750377E+00
(PID.TID 0000.0001) %MON dynstat_eta_mean             =  -2.2271215681014E-03
(PID.TID 0000.0001) %MON dynstat_eta_sd               =   7.2128096137066E-01
(PID.TID 0000.0001) %MON dynstat_eta_del2             =   9.4146886574696E-05
(PID.TID 0000.0001) %MON dynstat_uvel_max             =   8.6227384260360E-01
(PID.TID 0000.0001) %MON dynstat_uvel_min             =  -1.1300271003467E+00
(PID.TID 0000.0001) %MON dynstat_uvel_mean            =   1.9029237612001E-03
(PID.TID 0000.0001) %MON dynstat_uvel_sd              =   2.1969488135845E-02
(PID.TID 0000.0001) %MON dynstat_uvel_del2            =   1.4144296428208E-05
(PID.TID 0000.0001) %MON dynstat_vvel_max             =   9.7137894091334E-01
(PID.TID 0000.0001) %MON dynstat_vvel_min             =  -9.3329726588581E-01
(PID.TID 0000.0001) %MON dynstat_vvel_mean            =   1.2869977895378E-03
(PID.TID 0000.0001) %MON dynstat_vvel_sd              =   2.3578775196297E-02
(PID.TID 0000.0001) %MON dynstat_vvel_del2            =   1.5252444207232E-05
(PID.TID 0000.0001) %MON dynstat_wvel_max             =   2.4499838312416E-03
(PID.TID 0000.0001) %MON dynstat_wvel_min             =  -3.6092974087988E-03
(PID.TID 0000.0001) %MON dynstat_wvel_mean            =   3.6844873106406E-08
(PID.TID 0000.0001) %MON dynstat_wvel_sd              =   3.3663416063485E-05
(PID.TID 0000.0001) %MON dynstat_wvel_del2            =   4.5031626745781E-08
(PID.TID 0000.0001) %MON dynstat_theta_max            =   3.2652597851560E+01
(PID.TID 0000.0001) %MON dynstat_theta_min            =  -2.0420747773088E+00
(PID.TID 0000.0001) %MON dynstat_theta_mean           =   3.5906108663924E+00
(PID.TID 0000.0001) %MON dynstat_theta_sd             =   4.4366430583444E+00
(PID.TID 0000.0001) %MON dynstat_theta_del2           =   1.0820887833644E-04
(PID.TID 0000.0001) %MON dynstat_salt_max             =   4.0711523309239E+01
(PID.TID 0000.0001) %MON dynstat_salt_min             =   1.8871863335613E+01
(PID.TID 0000.0001) %MON dynstat_salt_mean            =   3.4725694853629E+01
(PID.TID 0000.0001) %MON dynstat_salt_sd              =   3.7744414805956E-01
(PID.TID 0000.0001) %MON dynstat_salt_del2            =   2.6904496747668E-05
(PID.TID 0000.0001) %MON dynstat_sst_max              =   3.2652597851560E+01
(PID.TID 0000.0001) %MON dynstat_sst_min              =  -1.9417947706810E+00
(PID.TID 0000.0001) %MON dynstat_sst_mean             =   1.8502626500317E+01
(PID.TID 0000.0001) %MON dynstat_sst_sd               =   1.0100191287773E+01
(PID.TID 0000.0001) %MON dynstat_sst_del2             =   8.6894307378726E-04
(PID.TID 0000.0001) %MON dynstat_sss_max              =   3.9575347391146E+01
(PID.TID 0000.0001) %MON dynstat_sss_min              =   1.8871863335613E+01
(PID.TID 0000.0001) %MON dynstat_sss_mean             =   3.4690338004079E+01
(PID.TID 0000.0001) %MON dynstat_sss_sd               =   1.1329051452442E+00
(PID.TID 0000.0001) %MON dynstat_sss_del2             =   4.2138846733387E-04
(PID.TID 0000.0001) %MON forcing_qnet_max             =   1.4538170166016E+03
(PID.TID 0000.0001) %MON forcing_qnet_min             =  -1.2605330269655E+03
(PID.TID 0000.0001) %MON forcing_qnet_mean            =  -4.2508511707608E-01
(PID.TID 0000.0001) %MON forcing_qnet_sd              =   2.0494839480250E+02
(PID.TID 0000.0001) %MON forcing_qnet_del2            =   4.7777234342369E-01
(PID.TID 0000.0001) %MON forcing_qsw_max              =   0.0000000000000E+00
(PID.TID 0000.0001) %MON forcing_qsw_min              =  -1.1177424854626E+02
(PID.TID 0000.0001) %MON forcing_qsw_mean             =  -1.8786431494084E+01
(PID.TID 0000.0001) %MON forcing_qsw_sd               =   2.7446909675782E+01
(PID.TID 0000.0001) %MON forcing_qsw_del2             =   2.2109573891761E-02
(PID.TID 0000.0001) %MON forcing_empmr_max            =   3.8888819981366E-03
(PID.TID 0000.0001) %MON forcing_empmr_min            =  -7.3293238878250E-02
(PID.TID 0000.0001) %MON forcing_empmr_mean           =   2.9104191494080E-05
(PID.TID 0000.0001) %MON forcing_empmr_sd             =   3.9829341468728E-04
(PID.TID 0000.0001) %MON forcing_empmr_del2           =   3.2145686507159E-06
(PID.TID 0000.0001) %MON forcing_fu_max               =   1.1555844324298E+00
(PID.TID 0000.0001) %MON forcing_fu_min               =  -1.0761412572941E+00
(PID.TID 0000.0001) %MON forcing_fu_mean              =   1.1548177579636E-02
(PID.TID 0000.0001) %MON forcing_fu_sd                =   1.1587458841497E-01
(PID.TID 0000.0001) %MON forcing_fu_del2              =   1.7954759462626E-04
(PID.TID 0000.0001) %MON forcing_fv_max               =   1.0781817993113E+00
(PID.TID 0000.0001) %MON forcing_fv_min               =  -7.1122007187077E-01
(PID.TID 0000.0001) %MON forcing_fv_mean              =  -4.7618573477146E-03
(PID.TID 0000.0001) %MON forcing_fv_sd                =   1.0859234199431E-01
(PID.TID 0000.0001) %MON forcing_fv_del2              =   1.5714893893512E-04
(PID.TID 0000.0001) %MON trAdv_CFL_u_max              =   1.8416551392471E-02
(PID.TID 0000.0001) %MON trAdv_CFL_v_max              =   1.8154674404257E-02
(PID.TID 0000.0001) %MON trAdv_CFL_w_max              =   6.6070012103142E-02
(PID.TID 0000.0001) %MON advcfl_uvel_max              =   1.8696202842082E-02
(PID.TID 0000.0001) %MON advcfl_vvel_max              =   1.7242739009177E-02
(PID.TID 0000.0001) %MON advcfl_wvel_max              =   6.7898317454784E-02
(PID.TID 0000.0001) %MON advcfl_W_hf_max              =   7.1510401856173E-02
(PID.TID 0000.0001) %MON pe_b_mean                    =   6.8433950750615E-04
(PID.TID 0000.0001) %MON ke_max                       =   6.0528418840738E-01
(PID.TID 0000.0001) %MON ke_mean                      =   5.0336098514516E-04
(PID.TID 0000.0001) %MON ke_vol                       =   1.3349970887123E+18
(PID.TID 0000.0001) %MON vort_r_min                   =  -3.2145089857886E-05
(PID.TID 0000.0001) %MON vort_r_max                   =   3.2967591738002E-05
(PID.TID 0000.0001) %MON vort_a_mean                  =  -1.9727864647440E-05
(PID.TID 0000.0001) %MON vort_a_sd                    =   7.4543360233260E-05
(PID.TID 0000.0001) %MON vort_p_mean                  =  -2.1760542105273E-05
(PID.TID 0000.0001) %MON vort_p_sd                    =   9.7243585435683E-05
(PID.TID 0000.0001) %MON surfExpan_theta_mean         =  -1.9335734740338E-06
(PID.TID 0000.0001) %MON surfExpan_salt_mean          =  -5.3711066709984E-07
(PID.TID 0000.0001) // =======================================================
(PID.TID 0000.0001) // End MONITOR dynamic field statistics
(PID.TID 0000.0001) // =======================================================
(PID.TID 0000.0001) // =======================================================
(PID.TID 0000.0001) // Begin MONITOR SEAICE statistics
(PID.TID 0000.0001) // =======================================================
(PID.TID 0000.0001) %MON seaice_tsnumber              =                    24
(PID.TID 0000.0001) %MON seaice_time_sec              =   2.1600000000000E+04
(PID.TID 0000.0001) %MON seaice_uice_max              =   8.0027147708071E-01
(PID.TID 0000.0001) %MON seaice_uice_min              =  -7.4016329855149E-01
(PID.TID 0000.0001) %MON seaice_uice_mean             =  -2.5362100993124E-03
(PID.TID 0000.0001) %MON seaice_uice_sd               =   1.5526595633851E-01
(PID.TID 0000.0001) %MON seaice_uice_del2             =   2.1898992153183E-04
(PID.TID 0000.0001) %MON seaice_vice_max              =   7.6663871391945E-01
(PID.TID 0000.0001) %MON seaice_vice_min              =  -9.2093493506571E-01
(PID.TID 0000.0001) %MON seaice_vice_mean             =  -4.9278352575468E-03
(PID.TID 0000.0001) %MON seaice_vice_sd               =   1.3519932585034E-01
(PID.TID 0000.0001) %MON seaice_vice_del2             =   1.8957248299203E-04
(PID.TID 0000.0001) %MON seaice_area_max              =   1.0000000000000E+00
(PID.TID 0000.0001) %MON seaice_area_min              =   0.0000000000000E+00
(PID.TID 0000.0001) %MON seaice_area_mean             =   7.2307936576308E-02
(PID.TID 0000.0001) %MON seaice_area_sd               =   2.3760374058350E-01
(PID.TID 0000.0001) %MON seaice_area_del2             =   4.3154853582616E-04
(PID.TID 0000.0001) %MON seaice_heff_max              =   2.5127994937697E+01
(PID.TID 0000.0001) %MON seaice_heff_min              =   0.0000000000000E+00
(PID.TID 0000.0001) %MON seaice_heff_mean             =   2.1665251782305E-01
(PID.TID 0000.0001) %MON seaice_heff_sd               =   1.0629318981252E+00
(PID.TID 0000.0001) %MON seaice_heff_del2             =   3.5384000020881E-03
(PID.TID 0000.0001) %MON seaice_hsnow_max             =   8.2992768317304E+00
(PID.TID 0000.0001) %MON seaice_hsnow_min             =   0.0000000000000E+00
(PID.TID 0000.0001) %MON seaice_hsnow_mean            =   2.4641930899348E-02
(PID.TID 0000.0001) %MON seaice_hsnow_sd              =   1.5559736413893E-01
(PID.TID 0000.0001) %MON seaice_hsnow_del2            =   1.1287039697873E-03
(PID.TID 0000.0001) // =======================================================
(PID.TID 0000.0001) // End MONITOR SEAICE statistics
(PID.TID 0000.0001) // =======================================================
 Computing Diagnostic #     86  oceQnet      Counter:       4   Parms: SM      U1      
 Computing Diagnostic #     87  oceQsw       Counter:       4   Parms: SM      U1      
 Computing Diagnostic #     84  oceFWflx     Counter:       4   Parms: SM      U1      
 Computing Diagnostic #     85  oceSflux     Counter:       4   Parms: SM      U1      
 Computing Diagnostic #     80  oceTAUX      Counter:       4   Parms: UU      U1      
           Vector  Mate for  oceTAUX      Diagnostic #     81  oceTAUY  exists 
 Computing Diagnostic #     81  oceTAUY      Counter:       4   Parms: VV      U1      
           Vector  Mate for  oceTAUY      Diagnostic #     80  oceTAUX  exists 
 Computing Diagnostic #     26  THETA        Counter:       4   Parms: SMR     MR      
 Computing Diagnostic #     27  SALT         Counter:       4   Parms: SMR     MR      
 Computing Diagnostic #     30  UVEL         Counter:       4   Parms: UUR     MR      
           Vector  Mate for  UVEL         Diagnostic #     31  VVEL     exists 
 Computing Diagnostic #     31  VVEL         Counter:       4   Parms: VVR     MR      
           Vector  Mate for  VVEL         Diagnostic #     30  UVEL     exists 
 Computing Diagnostic #    214  SIarea       Counter:       4   Parms: SM      M1      
 Computing Diagnostic #    217  SIheff       Counter:       4   Parms: SM      M1      
 Computing Diagnostic #    219  SIhsnow      Counter:       4   Parms: SM      M1      
 Computing Diagnostic #     83  sIceLoad     Counter:       4   Parms: SM      U1      
 Computing Diagnostic #    223  SIuice       Counter:       4   Parms: UU      M1      
           Vector  Mate for  SIuice       Diagnostic #    224  SIvice   exists 
 Computing Diagnostic #    224  SIvice       Counter:       4   Parms: VV      M1      
           Vector  Mate for  SIvice       Diagnostic #    223  SIuice   exists 
 Computing Diagnostic #    225  SItaux       Counter:       4   Parms: UU      U1      
           Vector  Mate for  SItaux       Diagnostic #    226  SItauy   exists 
 Computing Diagnostic #    226  SItauy       Counter:       4   Parms: VV      U1      
           Vector  Mate for  SItauy       Diagnostic #    225  SItaux   exists 
 Computing Diagnostic #    285  SIareaN      Counter:       4   Parms: SM      MX      
 Computing Diagnostic #    284  SIheffN      Counter:       4   Parms: SM      MX      
 Computing Diagnostic #    286  SIhsnowN     Counter:       4   Parms: SM      MX      
 Compute Stats, Diag. #    214  SIarea    vol(   0 ): 3.580E+14  Parms: SM      M1      
 Compute Stats, Diag. #    217  SIheff    vol(   0 ): 3.580E+14  Parms: SM      M1      
 Compute Stats, Diag. #    219  SIhsnow   vol(   0 ): 3.580E+14  Parms: SM      M1      
 Compute Stats, Diag. #     83  sIceLoad  vol(   0 ): 3.580E+14  Parms: SM      U1      
 Compute Stats, Diag. #    223  SIuice    vol(   0 ): 3.513E+14  Parms: UU      M1      
 Compute Stats, Diag. #    224  SIvice    vol(   0 ): 3.508E+14  Parms: VV      M1      
 Compute Stats, Diag. #    225  SItaux    vol(   0 ): 3.513E+14  Parms: UU      U1      
 Compute Stats, Diag. #    226  SItauy    vol(   0 ): 3.508E+14  Parms: VV      U1      
 SEAICE_LSR: Residual Initial ipass,Uice,Vice=    1  2.68515769E-02  2.51561776E-02
 SEAICE_LSR (ipass=   1) iters,dU,Resid=  1500  3.76494862E-09  9.40392572E-07
 SEAICE_LSR (ipass=   1) iters,dV,Resid=  1500  4.50486176E-10  3.24055456E-08
 SEAICE_LSR: Residual Initial ipass,Uice,Vice=    2  2.42618780E-02  2.35108387E-02
 SEAICE_LSR (ipass=   2) iters,dU,Resid=  1500  1.98597517E-09  5.68109674E-07
 SEAICE_LSR (ipass=   2) iters,dV,Resid=  1500  2.33961593E-10  1.80647776E-08
 cg2d: Sum(rhs),rhsMax =   7.11736837354596E+01  2.89086608611133E-01
 Compute Stats, Diag. #    214  SIarea    vol(   0 ): 3.580E+14  Parms: SM      M1      
 Compute Stats, Diag. #    217  SIheff    vol(   0 ): 3.580E+14  Parms: SM      M1      
 Compute Stats, Diag. #    219  SIhsnow   vol(   0 ): 3.580E+14  Parms: SM      M1      
 Compute Stats, Diag. #     83  sIceLoad  vol(   0 ): 3.580E+14  Parms: SM      U1      
 Compute Stats, Diag. #    223  SIuice    vol(   0 ): 3.513E+14  Parms: UU      M1      
 Compute Stats, Diag. #    224  SIvice    vol(   0 ): 3.508E+14  Parms: VV      M1      
 Compute Stats, Diag. #    225  SItaux    vol(   0 ): 3.513E+14  Parms: UU      U1      
 Compute Stats, Diag. #    226  SItauy    vol(   0 ): 3.508E+14  Parms: VV      U1      
 cg2d: Sum(rhs),rhsMax =   7.19072042564540E+01  2.90106313682700E-01
 Compute Stats, Diag. #    214  SIarea    vol(   0 ): 3.580E+14  Parms: SM      M1      
 Compute Stats, Diag. #    217  SIheff    vol(   0 ): 3.580E+14  Parms: SM      M1      
 Compute Stats, Diag. #    219  SIhsnow   vol(   0 ): 3.580E+14  Parms: SM      M1      
 Compute Stats, Diag. #     83  sIceLoad  vol(   0 ): 3.580E+14  Parms: SM      U1      
 Compute Stats, Diag. #    223  SIuice    vol(   0 ): 3.513E+14  Parms: UU      M1      
 Compute Stats, Diag. #    224  SIvice    vol(   0 ): 3.508E+14  Parms: VV      M1      
 Compute Stats, Diag. #    225  SItaux    vol(   0 ): 3.513E+14  Parms: UU      U1      
 Compute Stats, Diag. #    226  SItauy    vol(   0 ): 3.508E+14  Parms: VV      U1      
 cg2d: Sum(rhs),rhsMax =   7.26057907460490E+01  2.91438340255299E-01
 Compute Stats, Diag. #    214  SIarea    vol(   0 ): 3.580E+14  Parms: SM      M1      
 Compute Stats, Diag. #    217  SIheff    vol(   0 ): 3.580E+14  Parms: SM      M1      
 Compute Stats, Diag. #    219  SIhsnow   vol(   0 ): 3.580E+14  Parms: SM      M1      
 Compute Stats, Diag. #     83  sIceLoad  vol(   0 ): 3.580E+14  Parms: SM      U1      
 Compute Stats, Diag. #    223  SIuice    vol(   0 ): 3.513E+14  Parms: UU      M1      
 Compute Stats, Diag. #    224  SIvice    vol(   0 ): 3.508E+14  Parms: VV      M1      
 Compute Stats, Diag. #    225  SItaux    vol(   0 ): 3.513E+14  Parms: UU      U1      
 Compute Stats, Diag. #    226  SItauy    vol(   0 ): 3.508E+14  Parms: VV      U1      
 cg2d: Sum(rhs),rhsMax =   7.32726742290490E+01  2.92995801662176E-01
 Computing Diagnostic #     86  oceQnet      Counter:       4   Parms: SM      U1      
 Computing Diagnostic #     87  oceQsw       Counter:       4   Parms: SM      U1      
 Computing Diagnostic #     84  oceFWflx     Counter:       4   Parms: SM      U1      
 Computing Diagnostic #     85  oceSflux     Counter:       4   Parms: SM      U1      
 Computing Diagnostic #     80  oceTAUX      Counter:       4   Parms: UU      U1      
           Vector  Mate for  oceTAUX      Diagnostic #     81  oceTAUY  exists 
 Computing Diagnostic #     81  oceTAUY      Counter:       4   Parms: VV      U1      
           Vector  Mate for  oceTAUY      Diagnostic #     80  oceTAUX  exists 
 Computing Diagnostic #     26  THETA        Counter:       4   Parms: SMR     MR      
 Computing Diagnostic #     27  SALT         Counter:       4   Parms: SMR     MR      
 Computing Diagnostic #     30  UVEL         Counter:       4   Parms: UUR     MR      
           Vector  Mate for  UVEL         Diagnostic #     31  VVEL     exists 
 Computing Diagnostic #     31  VVEL         Counter:       4   Parms: VVR     MR      
           Vector  Mate for  VVEL         Diagnostic #     30  UVEL     exists 
 Computing Diagnostic #    214  SIarea       Counter:       4   Parms: SM      M1      
 Computing Diagnostic #    217  SIheff       Counter:       4   Parms: SM      M1      
 Computing Diagnostic #    219  SIhsnow      Counter:       4   Parms: SM      M1      
 Computing Diagnostic #     83  sIceLoad     Counter:       4   Parms: SM      U1      
 Computing Diagnostic #    223  SIuice       Counter:       4   Parms: UU      M1      
           Vector  Mate for  SIuice       Diagnostic #    224  SIvice   exists 
 Computing Diagnostic #    224  SIvice       Counter:       4   Parms: VV      M1      
           Vector  Mate for  SIvice       Diagnostic #    223  SIuice   exists 
 Computing Diagnostic #    225  SItaux       Counter:       4   Parms: UU      U1      
           Vector  Mate for  SItaux       Diagnostic #    226  SItauy   exists 
 Computing Diagnostic #    226  SItauy       Counter:       4   Parms: VV      U1      
           Vector  Mate for  SItauy       Diagnostic #    225  SItaux   exists 
 Computing Diagnostic #    285  SIareaN      Counter:       4   Parms: SM      MX      
 Computing Diagnostic #    284  SIheffN      Counter:       4   Parms: SM      MX      
 Computing Diagnostic #    286  SIhsnowN     Counter:       4   Parms: SM      MX      
 Compute Stats, Diag. #    214  SIarea    vol(   0 ): 3.580E+14  Parms: SM      M1      
 Compute Stats, Diag. #    217  SIheff    vol(   0 ): 3.580E+14  Parms: SM      M1      
 Compute Stats, Diag. #    219  SIhsnow   vol(   0 ): 3.580E+14  Parms: SM      M1      
 Compute Stats, Diag. #     83  sIceLoad  vol(   0 ): 3.580E+14  Parms: SM      U1      
 Compute Stats, Diag. #    223  SIuice    vol(   0 ): 3.513E+14  Parms: UU      M1      
 Compute Stats, Diag. #    224  SIvice    vol(   0 ): 3.508E+14  Parms: VV      M1      
 Compute Stats, Diag. #    225  SItaux    vol(   0 ): 3.513E+14  Parms: UU      U1      
 Compute Stats, Diag. #    226  SItauy    vol(   0 ): 3.508E+14  Parms: VV      U1      
 cg2d: Sum(rhs),rhsMax =   7.39070413950356E+01  2.94660880306017E-01
 Compute Stats, Diag. #    214  SIarea    vol(   0 ): 3.580E+14  Parms: SM      M1      
 Compute Stats, Diag. #    217  SIheff    vol(   0 ): 3.580E+14  Parms: SM      M1      
 Compute Stats, Diag. #    219  SIhsnow   vol(   0 ): 3.580E+14  Parms: SM      M1      
 Compute Stats, Diag. #     83  sIceLoad  vol(   0 ): 3.580E+14  Parms: SM      U1      
 Compute Stats, Diag. #    223  SIuice    vol(   0 ): 3.513E+14  Parms: UU      M1      
 Compute Stats, Diag. #    224  SIvice    vol(   0 ): 3.508E+14  Parms: VV      M1      
 Compute Stats, Diag. #    225  SItaux    vol(   0 ): 3.513E+14  Parms: UU      U1      
 Compute Stats, Diag. #    226  SItauy    vol(   0 ): 3.508E+14  Parms: VV      U1      
 cg2d: Sum(rhs),rhsMax =   7.45061345946333E+01  2.96301868333407E-01
 Compute Stats, Diag. #    214  SIarea    vol(   0 ): 3.580E+14  Parms: SM      M1      
 Compute Stats, Diag. #    217  SIheff    vol(   0 ): 3.580E+14  Parms: SM      M1      
 Compute Stats, Diag. #    219  SIhsnow   vol(   0 ): 3.580E+14  Parms: SM      M1      
 Compute Stats, Diag. #     83  sIceLoad  vol(   0 ): 3.580E+14  Parms: SM      U1      
 Compute Stats, Diag. #    223  SIuice    vol(   0 ): 3.513E+14  Parms: UU      M1      
 Compute Stats, Diag. #    224  SIvice    vol(   0 ): 3.508E+14  Parms: VV      M1      
 Compute Stats, Diag. #    225  SItaux    vol(   0 ): 3.513E+14  Parms: UU      U1      
 Compute Stats, Diag. #    226  SItauy    vol(   0 ): 3.508E+14  Parms: VV      U1      
 cg2d: Sum(rhs),rhsMax =   7.50672436443501E+01  2.97792414536421E-01
 Compute Stats, Diag. #    214  SIarea    vol(   0 ): 3.580E+14  Parms: SM      M1      
 Compute Stats, Diag. #    217  SIheff    vol(   0 ): 3.580E+14  Parms: SM      M1      
 Compute Stats, Diag. #    219  SIhsnow   vol(   0 ): 3.580E+14  Parms: SM      M1      
 Compute Stats, Diag. #     83  sIceLoad  vol(   0 ): 3.580E+14  Parms: SM      U1      
 Compute Stats, Diag. #    223  SIuice    vol(   0 ): 3.513E+14  Parms: UU      M1      
 Compute Stats, Diag. #    224  SIvice    vol(   0 ): 3.508E+14  Parms: VV      M1      
 Compute Stats, Diag. #    225  SItaux    vol(   0 ): 3.513E+14  Parms: UU      U1      
 Compute Stats, Diag. #    226  SItauy    vol(   0 ): 3.508E+14  Parms: VV      U1      
 cg2d: Sum(rhs),rhsMax =   7.55931048864048E+01  2.99026690001759E-01
(PID.TID 0000.0001)      cg2d_init_res =   5.37657936134305E-01
(PID.TID 0000.0001)      cg2d_iters(min,last) =      -1      34
(PID.TID 0000.0001)      cg2d_last_res =   2.77899999037397E-05
(PID.TID 0000.0001) // =======================================================
(PID.TID 0000.0001) // Begin MONITOR dynamic field statistics
(PID.TID 0000.0001) // =======================================================
(PID.TID 0000.0001) %MON time_tsnumber                =                    32
(PID.TID 0000.0001) %MON time_secondsf                =   2.8800000000000E+04
(PID.TID 0000.0001) %MON dynstat_eta_max              =   1.0916996425114E+00
(PID.TID 0000.0001) %MON dynstat_eta_min              =  -3.8019128735152E+00
(PID.TID 0000.0001) %MON dynstat_eta_mean             =  -2.3912513359151E-03
(PID.TID 0000.0001) %MON dynstat_eta_sd               =   7.1939587671187E-01
(PID.TID 0000.0001) %MON dynstat_eta_del2             =   8.8263545803640E-05
(PID.TID 0000.0001) %MON dynstat_uvel_max             =   7.1156061303965E-01
(PID.TID 0000.0001) %MON dynstat_uvel_min             =  -1.1605830656083E+00
(PID.TID 0000.0001) %MON dynstat_uvel_mean            =   1.8677407287487E-03
(PID.TID 0000.0001) %MON dynstat_uvel_sd              =   2.1918831273179E-02
(PID.TID 0000.0001) %MON dynstat_uvel_del2            =   1.3460378615187E-05
(PID.TID 0000.0001) %MON dynstat_vvel_max             =   9.4080524797485E-01
(PID.TID 0000.0001) %MON dynstat_vvel_min             =  -9.3130546486454E-01
(PID.TID 0000.0001) %MON dynstat_vvel_mean            =   1.3828925949331E-03
(PID.TID 0000.0001) %MON dynstat_vvel_sd              =   2.3408488570524E-02
(PID.TID 0000.0001) %MON dynstat_vvel_del2            =   1.4456919227831E-05
(PID.TID 0000.0001) %MON dynstat_wvel_max             =   2.7979744134639E-03
(PID.TID 0000.0001) %MON dynstat_wvel_min             =  -3.9196705855712E-03
(PID.TID 0000.0001) %MON dynstat_wvel_mean            =   6.9123693861832E-08
(PID.TID 0000.0001) %MON dynstat_wvel_sd              =   3.5283612966684E-05
(PID.TID 0000.0001) %MON dynstat_wvel_del2            =   4.9613623893732E-08
(PID.TID 0000.0001) %MON dynstat_theta_max            =   3.2655984557226E+01
(PID.TID 0000.0001) %MON dynstat_theta_min            =  -2.0420414548753E+00
(PID.TID 0000.0001) %MON dynstat_theta_mean           =   3.5906035587118E+00
(PID.TID 0000.0001) %MON dynstat_theta_sd             =   4.4366079814353E+00
(PID.TID 0000.0001) %MON dynstat_theta_del2           =   1.0758426172393E-04
(PID.TID 0000.0001) %MON dynstat_salt_max             =   4.0711522966424E+01
(PID.TID 0000.0001) %MON dynstat_salt_min             =   1.8877357488053E+01
(PID.TID 0000.0001) %MON dynstat_salt_mean            =   3.4725672834069E+01
(PID.TID 0000.0001) %MON dynstat_salt_sd              =   3.7734791200518E-01
(PID.TID 0000.0001) %MON dynstat_salt_del2            =   2.6929112492225E-05
(PID.TID 0000.0001) %MON dynstat_sst_max              =   3.2655984557226E+01
(PID.TID 0000.0001) %MON dynstat_sst_min              =  -1.9405178481849E+00
(PID.TID 0000.0001) %MON dynstat_sst_mean             =   1.8498155547583E+01
(PID.TID 0000.0001) %MON dynstat_sst_sd               =   1.0102817433633E+01
(PID.TID 0000.0001) %MON dynstat_sst_del2             =   8.6534305481379E-04
(PID.TID 0000.0001) %MON dynstat_sss_max              =   3.9537414469996E+01
(PID.TID 0000.0001) %MON dynstat_sss_min              =   1.8877357488053E+01
(PID.TID 0000.0001) %MON dynstat_sss_mean             =   3.4686088050696E+01
(PID.TID 0000.0001) %MON dynstat_sss_sd               =   1.1273249354106E+00
(PID.TID 0000.0001) %MON dynstat_sss_del2             =   4.4171965784758E-04
(PID.TID 0000.0001) %MON forcing_qnet_max             =   2.5739475863071E+03
(PID.TID 0000.0001) %MON forcing_qnet_min             =  -9.3447216783299E+02
(PID.TID 0000.0001) %MON forcing_qnet_mean            =   2.8012442234572E+01
(PID.TID 0000.0001) %MON forcing_qnet_sd              =   1.9174555500798E+02
(PID.TID 0000.0001) %MON forcing_qnet_del2            =   5.4018048832451E-01
(PID.TID 0000.0001) %MON forcing_qsw_max              =   0.0000000000000E+00
(PID.TID 0000.0001) %MON forcing_qsw_min              =  -1.0941146182414E+02
(PID.TID 0000.0001) %MON forcing_qsw_mean             =  -1.6399194217759E+01
(PID.TID 0000.0001) %MON forcing_qsw_sd               =   2.5512635777496E+01
(PID.TID 0000.0001) %MON forcing_qsw_del2             =   2.0788831397530E-02
(PID.TID 0000.0001) %MON forcing_empmr_max            =   3.1179471407086E-03
(PID.TID 0000.0001) %MON forcing_empmr_min            =  -8.0673828721046E-02
(PID.TID 0000.0001) %MON forcing_empmr_mean           =   1.9018973358115E-05
(PID.TID 0000.0001) %MON forcing_empmr_sd             =   4.1120839466805E-04
(PID.TID 0000.0001) %MON forcing_empmr_del2           =   4.4475682565691E-06
(PID.TID 0000.0001) %MON forcing_fu_max               =   1.0963845836422E+00
(PID.TID 0000.0001) %MON forcing_fu_min               =  -9.8394612218432E-01
(PID.TID 0000.0001) %MON forcing_fu_mean              =   1.2095275997626E-02
(PID.TID 0000.0001) %MON forcing_fu_sd                =   1.1312157714949E-01
(PID.TID 0000.0001) %MON forcing_fu_del2              =   1.6923026255887E-04
(PID.TID 0000.0001) %MON forcing_fv_max               =   9.7498752362868E-01
(PID.TID 0000.0001) %MON forcing_fv_min               =  -7.0812892820326E-01
(PID.TID 0000.0001) %MON forcing_fv_mean              =  -5.9348066278453E-03
(PID.TID 0000.0001) %MON forcing_fv_sd                =   1.0730936041227E-01
(PID.TID 0000.0001) %MON forcing_fv_del2              =   1.4728659187990E-04
(PID.TID 0000.0001) %MON trAdv_CFL_u_max              =   1.8922327508275E-02
(PID.TID 0000.0001) %MON trAdv_CFL_v_max              =   1.7831535263378E-02
(PID.TID 0000.0001) %MON trAdv_CFL_w_max              =   5.5375443607720E-02
(PID.TID 0000.0001) %MON advcfl_uvel_max              =   1.9201748704115E-02
(PID.TID 0000.0001) %MON advcfl_vvel_max              =   1.6700031950499E-02
(PID.TID 0000.0001) %MON advcfl_wvel_max              =   5.6619805825765E-02
(PID.TID 0000.0001) %MON advcfl_W_hf_max              =   5.9519125006992E-02
(PID.TID 0000.0001) %MON pe_b_mean                    =   6.8076817000492E-04
(PID.TID 0000.0001) %MON ke_max                       =   6.3689077649904E-01
(PID.TID 0000.0001) %MON ke_mean                      =   4.9848990119108E-04
(PID.TID 0000.0001) %MON ke_vol                       =   1.3349970267936E+18
(PID.TID 0000.0001) %MON vort_r_min                   =  -3.2616372206806E-05
(PID.TID 0000.0001) %MON vort_r_max                   =   3.3156519382415E-05
(PID.TID 0000.0001) %MON vort_a_mean                  =  -1.9727864647440E-05
(PID.TID 0000.0001) %MON vort_a_sd                    =   7.4543345338074E-05
(PID.TID 0000.0001) %MON vort_p_mean                  =  -2.1760543523528E-05
(PID.TID 0000.0001) %MON vort_p_sd                    =   9.7244169005503E-05
(PID.TID 0000.0001) %MON surfExpan_theta_mean         =  -1.5023583092201E-06
(PID.TID 0000.0001) %MON surfExpan_salt_mean          =  -3.9524573775820E-07
(PID.TID 0000.0001) // =======================================================
(PID.TID 0000.0001) // End MONITOR dynamic field statistics
(PID.TID 0000.0001) // =======================================================
(PID.TID 0000.0001) // =======================================================
(PID.TID 0000.0001) // Begin MONITOR SEAICE statistics
(PID.TID 0000.0001) // =======================================================
(PID.TID 0000.0001) %MON seaice_tsnumber              =                    32
(PID.TID 0000.0001) %MON seaice_time_sec              =   2.8800000000000E+04
(PID.TID 0000.0001) %MON seaice_uice_max              =   6.9066813713519E-01
(PID.TID 0000.0001) %MON seaice_uice_min              =  -7.0933604000056E-01
(PID.TID 0000.0001) %MON seaice_uice_mean             =  -3.6869626618294E-03
(PID.TID 0000.0001) %MON seaice_uice_sd               =   1.5219260167064E-01
(PID.TID 0000.0001) %MON seaice_uice_del2             =   2.1355010749931E-04
(PID.TID 0000.0001) %MON seaice_vice_max              =   7.2791227283020E-01
(PID.TID 0000.0001) %MON seaice_vice_min              =  -9.1696628414429E-01
(PID.TID 0000.0001) %MON seaice_vice_mean             =  -7.7878380374023E-03
(PID.TID 0000.0001) %MON seaice_vice_sd               =   1.3591774799279E-01
(PID.TID 0000.0001) %MON seaice_vice_del2             =   1.8413745364957E-04
(PID.TID 0000.0001) %MON seaice_area_max              =   1.0000000000000E+00
(PID.TID 0000.0001) %MON seaice_area_min              =   0.0000000000000E+00
(PID.TID 0000.0001) %MON seaice_area_mean             =   7.2054893293579E-02
(PID.TID 0000.0001) %MON seaice_area_sd               =   2.3748467790460E-01
(PID.TID 0000.0001) %MON seaice_area_del2             =   4.1860063242225E-04
(PID.TID 0000.0001) %MON seaice_heff_max              =   2.5120901087668E+01
(PID.TID 0000.0001) %MON seaice_heff_min              =   0.0000000000000E+00
(PID.TID 0000.0001) %MON seaice_heff_mean             =   2.1682882128341E-01
(PID.TID 0000.0001) %MON seaice_heff_sd               =   1.0632840369640E+00
(PID.TID 0000.0001) %MON seaice_heff_del2             =   3.4266954616275E-03
(PID.TID 0000.0001) %MON seaice_hsnow_max             =   8.2969350167708E+00
(PID.TID 0000.0001) %MON seaice_hsnow_min             =   0.0000000000000E+00
(PID.TID 0000.0001) %MON seaice_hsnow_mean            =   2.4632957223810E-02
(PID.TID 0000.0001) %MON seaice_hsnow_sd              =   1.5484264472178E-01
(PID.TID 0000.0001) %MON seaice_hsnow_del2            =   1.0911784380674E-03
(PID.TID 0000.0001) // =======================================================
(PID.TID 0000.0001) // End MONITOR SEAICE statistics
(PID.TID 0000.0001) // =======================================================
 Computing Diagnostic #     86  oceQnet      Counter:       4   Parms: SM      U1      
 Computing Diagnostic #     87  oceQsw       Counter:       4   Parms: SM      U1      
 Computing Diagnostic #     84  oceFWflx     Counter:       4   Parms: SM      U1      
 Computing Diagnostic #     85  oceSflux     Counter:       4   Parms: SM      U1      
 Computing Diagnostic #     80  oceTAUX      Counter:       4   Parms: UU      U1      
           Vector  Mate for  oceTAUX      Diagnostic #     81  oceTAUY  exists 
 Computing Diagnostic #     81  oceTAUY      Counter:       4   Parms: VV      U1      
           Vector  Mate for  oceTAUY      Diagnostic #     80  oceTAUX  exists 
 Computing Diagnostic #     26  THETA        Counter:       4   Parms: SMR     MR      
 Computing Diagnostic #     27  SALT         Counter:       4   Parms: SMR     MR      
 Computing Diagnostic #     30  UVEL         Counter:       4   Parms: UUR     MR      
           Vector  Mate for  UVEL         Diagnostic #     31  VVEL     exists 
 Computing Diagnostic #     31  VVEL         Counter:       4   Parms: VVR     MR      
           Vector  Mate for  VVEL         Diagnostic #     30  UVEL     exists 
 Computing Diagnostic #    214  SIarea       Counter:       4   Parms: SM      M1      
 Computing Diagnostic #    217  SIheff       Counter:       4   Parms: SM      M1      
 Computing Diagnostic #    219  SIhsnow      Counter:       4   Parms: SM      M1      
 Computing Diagnostic #     83  sIceLoad     Counter:       4   Parms: SM      U1      
 Computing Diagnostic #    223  SIuice       Counter:       4   Parms: UU      M1      
           Vector  Mate for  SIuice       Diagnostic #    224  SIvice   exists 
 Computing Diagnostic #    224  SIvice       Counter:       4   Parms: VV      M1      
           Vector  Mate for  SIvice       Diagnostic #    223  SIuice   exists 
 Computing Diagnostic #    225  SItaux       Counter:       4   Parms: UU      U1      
           Vector  Mate for  SItaux       Diagnostic #    226  SItauy   exists 
 Computing Diagnostic #    226  SItauy       Counter:       4   Parms: VV      U1      
           Vector  Mate for  SItauy       Diagnostic #    225  SItaux   exists 
 Computing Diagnostic #    285  SIareaN      Counter:       4   Parms: SM      MX      
 Computing Diagnostic #    284  SIheffN      Counter:       4   Parms: SM      MX      
 Computing Diagnostic #    286  SIhsnowN     Counter:       4   Parms: SM      MX      
 Compute Stats, Diag. #    214  SIarea    vol(   0 ): 3.580E+14  Parms: SM      M1      
 Compute Stats, Diag. #    217  SIheff    vol(   0 ): 3.580E+14  Parms: SM      M1      
 Compute Stats, Diag. #    219  SIhsnow   vol(   0 ): 3.580E+14  Parms: SM      M1      
 Compute Stats, Diag. #     83  sIceLoad  vol(   0 ): 3.580E+14  Parms: SM      U1      
 Compute Stats, Diag. #    223  SIuice    vol(   0 ): 3.513E+14  Parms: UU      M1      
 Compute Stats, Diag. #    224  SIvice    vol(   0 ): 3.508E+14  Parms: VV      M1      
 Compute Stats, Diag. #    225  SItaux    vol(   0 ): 3.513E+14  Parms: UU      U1      
 Compute Stats, Diag. #    226  SItauy    vol(   0 ): 3.508E+14  Parms: VV      U1      
 SEAICE_LSR: Residual Initial ipass,Uice,Vice=    1  1.59651089E-02  1.60532673E-02
 SEAICE_LSR (ipass=   1) iters,dU,Resid=  1500  8.00765156E-10  1.43286011E-07
 SEAICE_LSR (ipass=   1) iters,dV,Resid=  1500  6.68513717E-11  1.89913066E-09
 SEAICE_LSR: Residual Initial ipass,Uice,Vice=    2  1.47868016E-02  1.47795239E-02
 SEAICE_LSR (ipass=   2) iters,dU,Resid=  1500  1.42274310E-10  5.41924323E-08
 SEAICE_LSR (ipass=   2) iters,dV,Resid=  1500  1.17866342E-11  4.56327717E-10
 cg2d: Sum(rhs),rhsMax =   7.60783173408397E+01  2.99934311635145E-01
 Compute Stats, Diag. #    214  SIarea    vol(   0 ): 3.580E+14  Parms: SM      M1      
 Compute Stats, Diag. #    217  SIheff    vol(   0 ): 3.580E+14  Parms: SM      M1      
 Compute Stats, Diag. #    219  SIhsnow   vol(   0 ): 3.580E+14  Parms: SM      M1      
 Compute Stats, Diag. #     83  sIceLoad  vol(   0 ): 3.580E+14  Parms: SM      U1      
 Compute Stats, Diag. #    223  SIuice    vol(   0 ): 3.513E+14  Parms: UU      M1      
 Compute Stats, Diag. #    224  SIvice    vol(   0 ): 3.508E+14  Parms: VV      M1      
 Compute Stats, Diag. #    225  SItaux    vol(   0 ): 3.513E+14  Parms: UU      U1      
 Compute Stats, Diag. #    226  SItauy    vol(   0 ): 3.508E+14  Parms: VV      U1      
 cg2d: Sum(rhs),rhsMax =   7.65329861267005E+01  3.00484241282221E-01
 Compute Stats, Diag. #    214  SIarea    vol(   0 ): 3.580E+14  Parms: SM      M1      
 Compute Stats, Diag. #    217  SIheff    vol(   0 ): 3.580E+14  Parms: SM      M1      
 Compute Stats, Diag. #    219  SIhsnow   vol(   0 ): 3.580E+14  Parms: SM      M1      
 Compute Stats, Diag. #     83  sIceLoad  vol(   0 ): 3.580E+14  Parms: SM      U1      
 Compute Stats, Diag. #    223  SIuice    vol(   0 ): 3.513E+14  Parms: UU      M1      
 Compute Stats, Diag. #    224  SIvice    vol(   0 ): 3.508E+14  Parms: VV      M1      
 Compute Stats, Diag. #    225  SItaux    vol(   0 ): 3.513E+14  Parms: UU      U1      
 Compute Stats, Diag. #    226  SItauy    vol(   0 ): 3.508E+14  Parms: VV      U1      
 cg2d: Sum(rhs),rhsMax =   7.69544308596789E+01  3.00684725726334E-01
 Compute Stats, Diag. #    214  SIarea    vol(   0 ): 3.580E+14  Parms: SM      M1      
 Compute Stats, Diag. #    217  SIheff    vol(   0 ): 3.580E+14  Parms: SM      M1      
 Compute Stats, Diag. #    219  SIhsnow   vol(   0 ): 3.580E+14  Parms: SM      M1      
 Compute Stats, Diag. #     83  sIceLoad  vol(   0 ): 3.580E+14  Parms: SM      U1      
 Compute Stats, Diag. #    223  SIuice    vol(   0 ): 3.513E+14  Parms: UU      M1      
 Compute Stats, Diag. #    224  SIvice    vol(   0 ): 3.508E+14  Parms: VV      M1      
 Compute Stats, Diag. #    225  SItaux    vol(   0 ): 3.513E+14  Parms: UU      U1      
 Compute Stats, Diag. #    226  SItauy    vol(   0 ): 3.508E+14  Parms: VV      U1      
 cg2d: Sum(rhs),rhsMax =   7.73479437389941E+01  3.00577207619470E-01
 Computing Diagnostic #     86  oceQnet      Counter:       4   Parms: SM      U1      
 Computing Diagnostic #     87  oceQsw       Counter:       4   Parms: SM      U1      
 Computing Diagnostic #     84  oceFWflx     Counter:       4   Parms: SM      U1      
 Computing Diagnostic #     85  oceSflux     Counter:       4   Parms: SM      U1      
 Computing Diagnostic #     80  oceTAUX      Counter:       4   Parms: UU      U1      
           Vector  Mate for  oceTAUX      Diagnostic #     81  oceTAUY  exists 
 Computing Diagnostic #     81  oceTAUY      Counter:       4   Parms: VV      U1      
           Vector  Mate for  oceTAUY      Diagnostic #     80  oceTAUX  exists 
 Computing Diagnostic #     26  THETA        Counter:       4   Parms: SMR     MR      
 Computing Diagnostic #     27  SALT         Counter:       4   Parms: SMR     MR      
 Computing Diagnostic #     30  UVEL         Counter:       4   Parms: UUR     MR      
           Vector  Mate for  UVEL         Diagnostic #     31  VVEL     exists 
 Computing Diagnostic #     31  VVEL         Counter:       4   Parms: VVR     MR      
           Vector  Mate for  VVEL         Diagnostic #     30  UVEL     exists 
 Computing Diagnostic #    214  SIarea       Counter:       4   Parms: SM      M1      
 Computing Diagnostic #    217  SIheff       Counter:       4   Parms: SM      M1      
 Computing Diagnostic #    219  SIhsnow      Counter:       4   Parms: SM      M1      
 Computing Diagnostic #     83  sIceLoad     Counter:       4   Parms: SM      U1      
 Computing Diagnostic #    223  SIuice       Counter:       4   Parms: UU      M1      
           Vector  Mate for  SIuice       Diagnostic #    224  SIvice   exists 
 Computing Diagnostic #    224  SIvice       Counter:       4   Parms: VV      M1      
           Vector  Mate for  SIvice       Diagnostic #    223  SIuice   exists 
 Computing Diagnostic #    225  SItaux       Counter:       4   Parms: UU      U1      
           Vector  Mate for  SItaux       Diagnostic #    226  SItauy   exists 
 Computing Diagnostic #    226  SItauy       Counter:       4   Parms: VV      U1      
           Vector  Mate for  SItauy       Diagnostic #    225  SItaux   exists 
 Computing Diagnostic #    285  SIareaN      Counter:       4   Parms: SM      MX      
 Computing Diagnostic #    284  SIheffN      Counter:       4   Parms: SM      MX      
 Computing Diagnostic #    286  SIhsnowN     Counter:       4   Parms: SM      MX      
 Compute Stats, Diag. #    214  SIarea    vol(   0 ): 3.580E+14  Parms: SM      M1      
 Compute Stats, Diag. #    217  SIheff    vol(   0 ): 3.580E+14  Parms: SM      M1      
 Compute Stats, Diag. #    219  SIhsnow   vol(   0 ): 3.580E+14  Parms: SM      M1      
 Compute Stats, Diag. #     83  sIceLoad  vol(   0 ): 3.580E+14  Parms: SM      U1      
 Compute Stats, Diag. #    223  SIuice    vol(   0 ): 3.513E+14  Parms: UU      M1      
 Compute Stats, Diag. #    224  SIvice    vol(   0 ): 3.508E+14  Parms: VV      M1      
 Compute Stats, Diag. #    225  SItaux    vol(   0 ): 3.513E+14  Parms: UU      U1      
 Compute Stats, Diag. #    226  SItauy    vol(   0 ): 3.508E+14  Parms: VV      U1      
 cg2d: Sum(rhs),rhsMax =   7.77105434223283E+01  3.00229033506778E-01
 Compute Stats, Diag. #    214  SIarea    vol(   0 ): 3.580E+14  Parms: SM      M1      
 Compute Stats, Diag. #    217  SIheff    vol(   0 ): 3.580E+14  Parms: SM      M1      
 Compute Stats, Diag. #    219  SIhsnow   vol(   0 ): 3.580E+14  Parms: SM      M1      
 Compute Stats, Diag. #     83  sIceLoad  vol(   0 ): 3.580E+14  Parms: SM      U1      
 Compute Stats, Diag. #    223  SIuice    vol(   0 ): 3.513E+14  Parms: UU      M1      
 Compute Stats, Diag. #    224  SIvice    vol(   0 ): 3.508E+14  Parms: VV      M1      
 Compute Stats, Diag. #    225  SItaux    vol(   0 ): 3.513E+14  Parms: UU      U1      
 Compute Stats, Diag. #    226  SItauy    vol(   0 ): 3.508E+14  Parms: VV      U1      
 cg2d: Sum(rhs),rhsMax =   7.80474410220656E+01  2.99720425997045E-01
 Compute Stats, Diag. #    214  SIarea    vol(   0 ): 3.580E+14  Parms: SM      M1      
 Compute Stats, Diag. #    217  SIheff    vol(   0 ): 3.580E+14  Parms: SM      M1      
 Compute Stats, Diag. #    219  SIhsnow   vol(   0 ): 3.580E+14  Parms: SM      M1      
 Compute Stats, Diag. #     83  sIceLoad  vol(   0 ): 3.580E+14  Parms: SM      U1      
 Compute Stats, Diag. #    223  SIuice    vol(   0 ): 3.513E+14  Parms: UU      M1      
 Compute Stats, Diag. #    224  SIvice    vol(   0 ): 3.508E+14  Parms: VV      M1      
 Compute Stats, Diag. #    225  SItaux    vol(   0 ): 3.513E+14  Parms: UU      U1      
 Compute Stats, Diag. #    226  SItauy    vol(   0 ): 3.508E+14  Parms: VV      U1      
 cg2d: Sum(rhs),rhsMax =   7.83636642636706E+01  2.99135064574302E-01
 Compute Stats, Diag. #    214  SIarea    vol(   0 ): 3.580E+14  Parms: SM      M1      
 Compute Stats, Diag. #    217  SIheff    vol(   0 ): 3.580E+14  Parms: SM      M1      
 Compute Stats, Diag. #    219  SIhsnow   vol(   0 ): 3.580E+14  Parms: SM      M1      
 Compute Stats, Diag. #     83  sIceLoad  vol(   0 ): 3.580E+14  Parms: SM      U1      
 Compute Stats, Diag. #    223  SIuice    vol(   0 ): 3.513E+14  Parms: UU      M1      
 Compute Stats, Diag. #    224  SIvice    vol(   0 ): 3.508E+14  Parms: VV      M1      
 Compute Stats, Diag. #    225  SItaux    vol(   0 ): 3.513E+14  Parms: UU      U1      
 Compute Stats, Diag. #    226  SItauy    vol(   0 ): 3.508E+14  Parms: VV      U1      
 cg2d: Sum(rhs),rhsMax =   7.86616935928141E+01  2.98551330147971E-01
(PID.TID 0000.0001)      cg2d_init_res =   4.63749722643905E-01
(PID.TID 0000.0001)      cg2d_iters(min,last) =      -1      33
(PID.TID 0000.0001)      cg2d_last_res =   2.41443625162687E-05
(PID.TID 0000.0001) // =======================================================
(PID.TID 0000.0001) // Begin MONITOR dynamic field statistics
(PID.TID 0000.0001) // =======================================================
(PID.TID 0000.0001) %MON time_tsnumber                =                    40
(PID.TID 0000.0001) %MON time_secondsf                =   3.6000000000000E+04
(PID.TID 0000.0001) %MON dynstat_eta_max              =   1.0835683615790E+00
(PID.TID 0000.0001) %MON dynstat_eta_min              =  -3.6183566190565E+00
(PID.TID 0000.0001) %MON dynstat_eta_mean             =  -2.4883205971208E-03
(PID.TID 0000.0001) %MON dynstat_eta_sd               =   7.1780201093205E-01
(PID.TID 0000.0001) %MON dynstat_eta_del2             =   8.4032469410726E-05
(PID.TID 0000.0001) %MON dynstat_uvel_max             =   6.5015215778637E-01
(PID.TID 0000.0001) %MON dynstat_uvel_min             =  -1.1210806353733E+00
(PID.TID 0000.0001) %MON dynstat_uvel_mean            =   1.8083304502754E-03
(PID.TID 0000.0001) %MON dynstat_uvel_sd              =   2.1788035463196E-02
(PID.TID 0000.0001) %MON dynstat_uvel_del2            =   1.3086538571002E-05
(PID.TID 0000.0001) %MON dynstat_vvel_max             =   9.3122628398422E-01
(PID.TID 0000.0001) %MON dynstat_vvel_min             =  -9.2997640363127E-01
(PID.TID 0000.0001) %MON dynstat_vvel_mean            =   1.4632136364856E-03
(PID.TID 0000.0001) %MON dynstat_vvel_sd              =   2.3252562206660E-02
(PID.TID 0000.0001) %MON dynstat_vvel_del2            =   1.3942898366919E-05
(PID.TID 0000.0001) %MON dynstat_wvel_max             =   2.8448922866754E-03
(PID.TID 0000.0001) %MON dynstat_wvel_min             =  -3.9547571918778E-03
(PID.TID 0000.0001) %MON dynstat_wvel_mean            =   6.1846789463811E-08
(PID.TID 0000.0001) %MON dynstat_wvel_sd              =   3.5825009167975E-05
(PID.TID 0000.0001) %MON dynstat_wvel_del2            =   5.2283415278558E-08
(PID.TID 0000.0001) %MON dynstat_theta_max            =   3.2661753096590E+01
(PID.TID 0000.0001) %MON dynstat_theta_min            =  -2.0420040927439E+00
(PID.TID 0000.0001) %MON dynstat_theta_mean           =   3.5905841374698E+00
(PID.TID 0000.0001) %MON dynstat_theta_sd             =   4.4365268869917E+00
(PID.TID 0000.0001) %MON dynstat_theta_del2           =   1.0691631165203E-04
(PID.TID 0000.0001) %MON dynstat_salt_max             =   4.0711522572817E+01
(PID.TID 0000.0001) %MON dynstat_salt_min             =   1.8886683068414E+01
(PID.TID 0000.0001) %MON dynstat_salt_mean            =   3.4725656692460E+01
(PID.TID 0000.0001) %MON dynstat_salt_sd              =   3.7727587698462E-01
(PID.TID 0000.0001) %MON dynstat_salt_del2            =   2.7162919100429E-05
(PID.TID 0000.0001) %MON dynstat_sst_max              =   3.2661753096590E+01
(PID.TID 0000.0001) %MON dynstat_sst_min              =  -1.9392286960423E+00
(PID.TID 0000.0001) %MON dynstat_sst_mean             =   1.8491640036519E+01
(PID.TID 0000.0001) %MON dynstat_sst_sd               =   1.0104014202426E+01
(PID.TID 0000.0001) %MON dynstat_sst_del2             =   8.6115266107314E-04
(PID.TID 0000.0001) %MON dynstat_sss_max              =   3.9503677331885E+01
(PID.TID 0000.0001) %MON dynstat_sss_min              =   1.8886683068414E+01
(PID.TID 0000.0001) %MON dynstat_sss_mean             =   3.4684033356522E+01
(PID.TID 0000.0001) %MON dynstat_sss_sd               =   1.1244602140440E+00
(PID.TID 0000.0001) %MON dynstat_sss_del2             =   4.7958600407447E-04
(PID.TID 0000.0001) %MON forcing_qnet_max             =   4.3005588544298E+03
(PID.TID 0000.0001) %MON forcing_qnet_min             =  -1.0376097352884E+03
(PID.TID 0000.0001) %MON forcing_qnet_mean            =   5.0500493213220E+01
(PID.TID 0000.0001) %MON forcing_qnet_sd              =   1.8395688628685E+02
(PID.TID 0000.0001) %MON forcing_qnet_del2            =   5.2064531573920E-01
(PID.TID 0000.0001) %MON forcing_qsw_max              =   0.0000000000000E+00
(PID.TID 0000.0001) %MON forcing_qsw_min              =  -1.0905039105480E+02
(PID.TID 0000.0001) %MON forcing_qsw_mean             =  -1.4207741474708E+01
(PID.TID 0000.0001) %MON forcing_qsw_sd               =   2.5776928608430E+01
(PID.TID 0000.0001) %MON forcing_qsw_del2             =   1.9154030056002E-02
(PID.TID 0000.0001) %MON forcing_empmr_max            =   4.0157246403396E-03
(PID.TID 0000.0001) %MON forcing_empmr_min            =  -1.2422526627779E-01
(PID.TID 0000.0001) %MON forcing_empmr_mean           =   1.0778911655075E-05
(PID.TID 0000.0001) %MON forcing_empmr_sd             =   4.9913204789057E-04
(PID.TID 0000.0001) %MON forcing_empmr_del2           =   7.0989601669813E-06
(PID.TID 0000.0001) %MON forcing_fu_max               =   1.0733611112616E+00
(PID.TID 0000.0001) %MON forcing_fu_min               =  -9.1640758773120E-01
(PID.TID 0000.0001) %MON forcing_fu_mean              =   1.2387013233366E-02
(PID.TID 0000.0001) %MON forcing_fu_sd                =   1.1129063709800E-01
(PID.TID 0000.0001) %MON forcing_fu_del2              =   1.6194048028675E-04
(PID.TID 0000.0001) %MON forcing_fv_max               =   8.6253194207031E-01
(PID.TID 0000.0001) %MON forcing_fv_min               =  -6.8288390304350E-01
(PID.TID 0000.0001) %MON forcing_fv_mean              =  -7.2498702373845E-03
(PID.TID 0000.0001) %MON forcing_fv_sd                =   1.0632938199760E-01
(PID.TID 0000.0001) %MON forcing_fv_del2              =   1.3976776321095E-04
(PID.TID 0000.0001) %MON trAdv_CFL_u_max              =   1.8286183298679E-02
(PID.TID 0000.0001) %MON trAdv_CFL_v_max              =   1.7638335368123E-02
(PID.TID 0000.0001) %MON trAdv_CFL_w_max              =   6.4433011652587E-02
(PID.TID 0000.0001) %MON advcfl_uvel_max              =   1.8548184335437E-02
(PID.TID 0000.0001) %MON advcfl_vvel_max              =   1.6529997817462E-02
(PID.TID 0000.0001) %MON advcfl_wvel_max              =   6.1553719175706E-02
(PID.TID 0000.0001) %MON advcfl_W_hf_max              =   6.4943689929882E-02
(PID.TID 0000.0001) %MON pe_b_mean                    =   6.7775561955104E-04
(PID.TID 0000.0001) %MON ke_max                       =   5.9016210865829E-01
(PID.TID 0000.0001) %MON ke_mean                      =   4.9222992862168E-04
(PID.TID 0000.0001) %MON ke_vol                       =   1.3349969894612E+18
(PID.TID 0000.0001) %MON vort_r_min                   =  -3.1117909523043E-05
(PID.TID 0000.0001) %MON vort_r_max                   =   3.1628718352035E-05
(PID.TID 0000.0001) %MON vort_a_mean                  =  -1.9727864647440E-05
(PID.TID 0000.0001) %MON vort_a_sd                    =   7.4543339877824E-05
(PID.TID 0000.0001) %MON vort_p_mean                  =  -2.1760544483066E-05
(PID.TID 0000.0001) %MON vort_p_sd                    =   9.7244546975108E-05
(PID.TID 0000.0001) %MON surfExpan_theta_mean         =  -1.6981126955091E-06
(PID.TID 0000.0001) %MON surfExpan_salt_mean          =  -3.1179042945761E-07
(PID.TID 0000.0001) // =======================================================
(PID.TID 0000.0001) // End MONITOR dynamic field statistics
(PID.TID 0000.0001) // =======================================================
(PID.TID 0000.0001) // =======================================================
(PID.TID 0000.0001) // Begin MONITOR SEAICE statistics
(PID.TID 0000.0001) // =======================================================
(PID.TID 0000.0001) %MON seaice_tsnumber              =                    40
(PID.TID 0000.0001) %MON seaice_time_sec              =   3.6000000000000E+04
(PID.TID 0000.0001) %MON seaice_uice_max              =   6.5229619774586E-01
(PID.TID 0000.0001) %MON seaice_uice_min              =  -6.5088105273261E-01
(PID.TID 0000.0001) %MON seaice_uice_mean             =  -3.7199298631669E-03
(PID.TID 0000.0001) %MON seaice_uice_sd               =   1.4813327534645E-01
(PID.TID 0000.0001) %MON seaice_uice_del2             =   2.0861122174913E-04
(PID.TID 0000.0001) %MON seaice_vice_max              =   7.1658893658724E-01
(PID.TID 0000.0001) %MON seaice_vice_min              =  -9.1411250299599E-01
(PID.TID 0000.0001) %MON seaice_vice_mean             =  -1.1237253613262E-02
(PID.TID 0000.0001) %MON seaice_vice_sd               =   1.3522990629107E-01
(PID.TID 0000.0001) %MON seaice_vice_del2             =   1.8096970353240E-04
(PID.TID 0000.0001) %MON seaice_area_max              =   1.0000000000000E+00
(PID.TID 0000.0001) %MON seaice_area_min              =   0.0000000000000E+00
(PID.TID 0000.0001) %MON seaice_area_mean             =   7.1839735275716E-02
(PID.TID 0000.0001) %MON seaice_area_sd               =   2.3736938477761E-01
(PID.TID 0000.0001) %MON seaice_area_del2             =   4.0788537803472E-04
(PID.TID 0000.0001) %MON seaice_heff_max              =   2.5115081537884E+01
(PID.TID 0000.0001) %MON seaice_heff_min              =   0.0000000000000E+00
(PID.TID 0000.0001) %MON seaice_heff_mean             =   2.1694520090794E-01
(PID.TID 0000.0001) %MON seaice_heff_sd               =   1.0634866156871E+00
(PID.TID 0000.0001) %MON seaice_heff_del2             =   3.3364802973267E-03
(PID.TID 0000.0001) %MON seaice_hsnow_max             =   8.2950111452676E+00
(PID.TID 0000.0001) %MON seaice_hsnow_min             =   0.0000000000000E+00
(PID.TID 0000.0001) %MON seaice_hsnow_mean            =   2.4624400791725E-02
(PID.TID 0000.0001) %MON seaice_hsnow_sd              =   1.5423950873480E-01
(PID.TID 0000.0001) %MON seaice_hsnow_del2            =   1.0607558672221E-03
(PID.TID 0000.0001) // =======================================================
(PID.TID 0000.0001) // End MONITOR SEAICE statistics
(PID.TID 0000.0001) // =======================================================
 Computing Diagnostic #     86  oceQnet      Counter:       4   Parms: SM      U1      
 Computing Diagnostic #     87  oceQsw       Counter:       4   Parms: SM      U1      
 Computing Diagnostic #     84  oceFWflx     Counter:       4   Parms: SM      U1      
 Computing Diagnostic #     85  oceSflux     Counter:       4   Parms: SM      U1      
 Computing Diagnostic #     80  oceTAUX      Counter:       4   Parms: UU      U1      
           Vector  Mate for  oceTAUX      Diagnostic #     81  oceTAUY  exists 
 Computing Diagnostic #     81  oceTAUY      Counter:       4   Parms: VV      U1      
           Vector  Mate for  oceTAUY      Diagnostic #     80  oceTAUX  exists 
 Computing Diagnostic #     26  THETA        Counter:       4   Parms: SMR     MR      
 Computing Diagnostic #     27  SALT         Counter:       4   Parms: SMR     MR      
 Computing Diagnostic #     30  UVEL         Counter:       4   Parms: UUR     MR      
           Vector  Mate for  UVEL         Diagnostic #     31  VVEL     exists 
 Computing Diagnostic #     31  VVEL         Counter:       4   Parms: VVR     MR      
           Vector  Mate for  VVEL         Diagnostic #     30  UVEL     exists 
 Computing Diagnostic #    214  SIarea       Counter:       4   Parms: SM      M1      
 Computing Diagnostic #    217  SIheff       Counter:       4   Parms: SM      M1      
 Computing Diagnostic #    219  SIhsnow      Counter:       4   Parms: SM      M1      
 Computing Diagnostic #     83  sIceLoad     Counter:       4   Parms: SM      U1      
 Computing Diagnostic #    223  SIuice       Counter:       4   Parms: UU      M1      
           Vector  Mate for  SIuice       Diagnostic #    224  SIvice   exists 
 Computing Diagnostic #    224  SIvice       Counter:       4   Parms: VV      M1      
           Vector  Mate for  SIvice       Diagnostic #    223  SIuice   exists 
 Computing Diagnostic #    225  SItaux       Counter:       4   Parms: UU      U1      
           Vector  Mate for  SItaux       Diagnostic #    226  SItauy   exists 
 Computing Diagnostic #    226  SItauy       Counter:       4   Parms: VV      U1      
           Vector  Mate for  SItauy       Diagnostic #    225  SItaux   exists 
 Computing Diagnostic #    285  SIareaN      Counter:       4   Parms: SM      MX      
 Computing Diagnostic #    284  SIheffN      Counter:       4   Parms: SM      MX      
 Computing Diagnostic #    286  SIhsnowN     Counter:       4   Parms: SM      MX      
 Compute Stats, Diag. #    214  SIarea    vol(   0 ): 3.580E+14  Parms: SM      M1      
 Compute Stats, Diag. #    217  SIheff    vol(   0 ): 3.580E+14  Parms: SM      M1      
 Compute Stats, Diag. #    219  SIhsnow   vol(   0 ): 3.580E+14  Parms: SM      M1      
 Compute Stats, Diag. #     83  sIceLoad  vol(   0 ): 3.580E+14  Parms: SM      U1      
 Compute Stats, Diag. #    223  SIuice    vol(   0 ): 3.513E+14  Parms: UU      M1      
 Compute Stats, Diag. #    224  SIvice    vol(   0 ): 3.508E+14  Parms: VV      M1      
 Compute Stats, Diag. #    225  SItaux    vol(   0 ): 3.513E+14  Parms: UU      U1      
 Compute Stats, Diag. #    226  SItauy    vol(   0 ): 3.508E+14  Parms: VV      U1      
 SEAICE_LSR: Residual Initial ipass,Uice,Vice=    1  1.32884389E-02  1.47561104E-02
 SEAICE_LSR (ipass=   1) iters,dU,Resid=  1500  1.06444025E-08  8.29354239E-07
 SEAICE_LSR (ipass=   1) iters,dV,Resid=  1500  2.47860424E-07  3.85184855E-06
 SEAICE_LSR: Residual Initial ipass,Uice,Vice=    2  1.23974823E-02  1.35547467E-02
 SEAICE_LSR (ipass=   2) iters,dU,Resid=  1500  5.63944583E-09  4.37912410E-07
 SEAICE_LSR (ipass=   2) iters,dV,Resid=  1500  9.41038798E-08  1.40556231E-06
 cg2d: Sum(rhs),rhsMax =   7.89380245210048E+01  2.98033653309839E-01
 Compute Stats, Diag. #    214  SIarea    vol(   0 ): 3.580E+14  Parms: SM      M1      
 Compute Stats, Diag. #    217  SIheff    vol(   0 ): 3.580E+14  Parms: SM      M1      
 Compute Stats, Diag. #    219  SIhsnow   vol(   0 ): 3.580E+14  Parms: SM      M1      
 Compute Stats, Diag. #     83  sIceLoad  vol(   0 ): 3.580E+14  Parms: SM      U1      
 Compute Stats, Diag. #    223  SIuice    vol(   0 ): 3.513E+14  Parms: UU      M1      
 Compute Stats, Diag. #    224  SIvice    vol(   0 ): 3.508E+14  Parms: VV      M1      
 Compute Stats, Diag. #    225  SItaux    vol(   0 ): 3.513E+14  Parms: UU      U1      
 Compute Stats, Diag. #    226  SItauy    vol(   0 ): 3.508E+14  Parms: VV      U1      
 cg2d: Sum(rhs),rhsMax =   7.91915666961582E+01  2.97629342678782E-01
 Compute Stats, Diag. #    214  SIarea    vol(   0 ): 3.580E+14  Parms: SM      M1      
 Compute Stats, Diag. #    217  SIheff    vol(   0 ): 3.580E+14  Parms: SM      M1      
 Compute Stats, Diag. #    219  SIhsnow   vol(   0 ): 3.580E+14  Parms: SM      M1      
 Compute Stats, Diag. #     83  sIceLoad  vol(   0 ): 3.580E+14  Parms: SM      U1      
 Compute Stats, Diag. #    223  SIuice    vol(   0 ): 3.513E+14  Parms: UU      M1      
 Compute Stats, Diag. #    224  SIvice    vol(   0 ): 3.508E+14  Parms: VV      M1      
 Compute Stats, Diag. #    225  SItaux    vol(   0 ): 3.513E+14  Parms: UU      U1      
 Compute Stats, Diag. #    226  SItauy    vol(   0 ): 3.508E+14  Parms: VV      U1      
 cg2d: Sum(rhs),rhsMax =   7.94211812024641E+01  2.97378137615578E-01
 Compute Stats, Diag. #    214  SIarea    vol(   0 ): 3.580E+14  Parms: SM      M1      
 Compute Stats, Diag. #    217  SIheff    vol(   0 ): 3.580E+14  Parms: SM      M1      
 Compute Stats, Diag. #    219  SIhsnow   vol(   0 ): 3.580E+14  Parms: SM      M1      
 Compute Stats, Diag. #     83  sIceLoad  vol(   0 ): 3.580E+14  Parms: SM      U1      
 Compute Stats, Diag. #    223  SIuice    vol(   0 ): 3.513E+14  Parms: UU      M1      
 Compute Stats, Diag. #    224  SIvice    vol(   0 ): 3.508E+14  Parms: VV      M1      
 Compute Stats, Diag. #    225  SItaux    vol(   0 ): 3.513E+14  Parms: UU      U1      
 Compute Stats, Diag. #    226  SItauy    vol(   0 ): 3.508E+14  Parms: VV      U1      
 cg2d: Sum(rhs),rhsMax =   7.96327621397756E+01  2.97289076613303E-01
 Computing Diagnostic #     86  oceQnet      Counter:       4   Parms: SM      U1      
 Computing Diagnostic #     87  oceQsw       Counter:       4   Parms: SM      U1      
 Computing Diagnostic #     84  oceFWflx     Counter:       4   Parms: SM      U1      
 Computing Diagnostic #     85  oceSflux     Counter:       4   Parms: SM      U1      
 Computing Diagnostic #     80  oceTAUX      Counter:       4   Parms: UU      U1      
           Vector  Mate for  oceTAUX      Diagnostic #     81  oceTAUY  exists 
 Computing Diagnostic #     81  oceTAUY      Counter:       4   Parms: VV      U1      
           Vector  Mate for  oceTAUY      Diagnostic #     80  oceTAUX  exists 
 Computing Diagnostic #     26  THETA        Counter:       4   Parms: SMR     MR      
 Computing Diagnostic #     27  SALT         Counter:       4   Parms: SMR     MR      
 Computing Diagnostic #     30  UVEL         Counter:       4   Parms: UUR     MR      
           Vector  Mate for  UVEL         Diagnostic #     31  VVEL     exists 
 Computing Diagnostic #     31  VVEL         Counter:       4   Parms: VVR     MR      
           Vector  Mate for  VVEL         Diagnostic #     30  UVEL     exists 
 Computing Diagnostic #    214  SIarea       Counter:       4   Parms: SM      M1      
 Computing Diagnostic #    217  SIheff       Counter:       4   Parms: SM      M1      
 Computing Diagnostic #    219  SIhsnow      Counter:       4   Parms: SM      M1      
 Computing Diagnostic #     83  sIceLoad     Counter:       4   Parms: SM      U1      
 Computing Diagnostic #    223  SIuice       Counter:       4   Parms: UU      M1      
           Vector  Mate for  SIuice       Diagnostic #    224  SIvice   exists 
 Computing Diagnostic #    224  SIvice       Counter:       4   Parms: VV      M1      
           Vector  Mate for  SIvice       Diagnostic #    223  SIuice   exists 
 Computing Diagnostic #    225  SItaux       Counter:       4   Parms: UU      U1      
           Vector  Mate for  SItaux       Diagnostic #    226  SItauy   exists 
 Computing Diagnostic #    226  SItauy       Counter:       4   Parms: VV      U1      
           Vector  Mate for  SItauy       Diagnostic #    225  SItaux   exists 
 Computing Diagnostic #    285  SIareaN      Counter:       4   Parms: SM      MX      
 Computing Diagnostic #    284  SIheffN      Counter:       4   Parms: SM      MX      
 Computing Diagnostic #    286  SIhsnowN     Counter:       4   Parms: SM      MX      
 Compute Stats, Diag. #    214  SIarea    vol(   0 ): 3.580E+14  Parms: SM      M1      
 Compute Stats, Diag. #    217  SIheff    vol(   0 ): 3.580E+14  Parms: SM      M1      
 Compute Stats, Diag. #    219  SIhsnow   vol(   0 ): 3.580E+14  Parms: SM      M1      
 Compute Stats, Diag. #     83  sIceLoad  vol(   0 ): 3.580E+14  Parms: SM      U1      
 Compute Stats, Diag. #    223  SIuice    vol(   0 ): 3.513E+14  Parms: UU      M1      
 Compute Stats, Diag. #    224  SIvice    vol(   0 ): 3.508E+14  Parms: VV      M1      
 Compute Stats, Diag. #    225  SItaux    vol(   0 ): 3.513E+14  Parms: UU      U1      
 Compute Stats, Diag. #    226  SItauy    vol(   0 ): 3.508E+14  Parms: VV      U1      
 cg2d: Sum(rhs),rhsMax =   7.98310140478952E+01  2.97339333335150E-01
 Compute Stats, Diag. #    214  SIarea    vol(   0 ): 3.580E+14  Parms: SM      M1      
 Compute Stats, Diag. #    217  SIheff    vol(   0 ): 3.580E+14  Parms: SM      M1      
 Compute Stats, Diag. #    219  SIhsnow   vol(   0 ): 3.580E+14  Parms: SM      M1      
 Compute Stats, Diag. #     83  sIceLoad  vol(   0 ): 3.580E+14  Parms: SM      U1      
 Compute Stats, Diag. #    223  SIuice    vol(   0 ): 3.513E+14  Parms: UU      M1      
 Compute Stats, Diag. #    224  SIvice    vol(   0 ): 3.508E+14  Parms: VV      M1      
 Compute Stats, Diag. #    225  SItaux    vol(   0 ): 3.513E+14  Parms: UU      U1      
 Compute Stats, Diag. #    226  SItauy    vol(   0 ): 3.508E+14  Parms: VV      U1      
 cg2d: Sum(rhs),rhsMax =   8.00083117405936E+01  2.97509049238645E-01
 Compute Stats, Diag. #    214  SIarea    vol(   0 ): 3.580E+14  Parms: SM      M1      
 Compute Stats, Diag. #    217  SIheff    vol(   0 ): 3.580E+14  Parms: SM      M1      
 Compute Stats, Diag. #    219  SIhsnow   vol(   0 ): 3.580E+14  Parms: SM      M1      
 Compute Stats, Diag. #     83  sIceLoad  vol(   0 ): 3.580E+14  Parms: SM      U1      
 Compute Stats, Diag. #    223  SIuice    vol(   0 ): 3.513E+14  Parms: UU      M1      
 Compute Stats, Diag. #    224  SIvice    vol(   0 ): 3.508E+14  Parms: VV      M1      
 Compute Stats, Diag. #    225  SItaux    vol(   0 ): 3.513E+14  Parms: UU      U1      
 Compute Stats, Diag. #    226  SItauy    vol(   0 ): 3.508E+14  Parms: VV      U1      
 cg2d: Sum(rhs),rhsMax =   8.01703777575064E+01  2.97767871782105E-01
 Compute Stats, Diag. #    214  SIarea    vol(   0 ): 3.580E+14  Parms: SM      M1      
 Compute Stats, Diag. #    217  SIheff    vol(   0 ): 3.580E+14  Parms: SM      M1      
 Compute Stats, Diag. #    219  SIhsnow   vol(   0 ): 3.580E+14  Parms: SM      M1      
 Compute Stats, Diag. #     83  sIceLoad  vol(   0 ): 3.580E+14  Parms: SM      U1      
 Compute Stats, Diag. #    223  SIuice    vol(   0 ): 3.513E+14  Parms: UU      M1      
 Compute Stats, Diag. #    224  SIvice    vol(   0 ): 3.508E+14  Parms: VV      M1      
 Compute Stats, Diag. #    225  SItaux    vol(   0 ): 3.513E+14  Parms: UU      U1      
 Compute Stats, Diag. #    226  SItauy    vol(   0 ): 3.508E+14  Parms: VV      U1      
 cg2d: Sum(rhs),rhsMax =   8.03186102566661E+01  2.98079429735400E-01
(PID.TID 0000.0001)      cg2d_init_res =   3.98081219603408E-01
(PID.TID 0000.0001)      cg2d_iters(min,last) =      -1      31
(PID.TID 0000.0001)      cg2d_last_res =   2.31004208901516E-05
(PID.TID 0000.0001) // =======================================================
(PID.TID 0000.0001) // Begin MONITOR dynamic field statistics
(PID.TID 0000.0001) // =======================================================
(PID.TID 0000.0001) %MON time_tsnumber                =                    48
(PID.TID 0000.0001) %MON time_secondsf                =   4.3200000000000E+04
(PID.TID 0000.0001) %MON dynstat_eta_max              =   1.0838291027164E+00
(PID.TID 0000.0001) %MON dynstat_eta_min              =  -3.4031475160847E+00
(PID.TID 0000.0001) %MON dynstat_eta_mean             =  -2.5407341630390E-03
(PID.TID 0000.0001) %MON dynstat_eta_sd               =   7.1394098855362E-01
(PID.TID 0000.0001) %MON dynstat_eta_del2             =   8.3841877545651E-05
(PID.TID 0000.0001) %MON dynstat_uvel_max             =   7.5383358291763E-01
(PID.TID 0000.0001) %MON dynstat_uvel_min             =  -1.0778033071364E+00
(PID.TID 0000.0001) %MON dynstat_uvel_mean            =   1.7618305675147E-03
(PID.TID 0000.0001) %MON dynstat_uvel_sd              =   2.1697834907287E-02
(PID.TID 0000.0001) %MON dynstat_uvel_del2            =   1.2945190586774E-05
(PID.TID 0000.0001) %MON dynstat_vvel_max             =   9.6902511232321E-01
(PID.TID 0000.0001) %MON dynstat_vvel_min             =  -9.2778677390805E-01
(PID.TID 0000.0001) %MON dynstat_vvel_mean            =   1.5372715061948E-03
(PID.TID 0000.0001) %MON dynstat_vvel_sd              =   2.3108174272276E-02
(PID.TID 0000.0001) %MON dynstat_vvel_del2            =   1.3623427697639E-05
(PID.TID 0000.0001) %MON dynstat_wvel_max             =   3.3147030994824E-03
(PID.TID 0000.0001) %MON dynstat_wvel_min             =  -3.3898768850710E-03
(PID.TID 0000.0001) %MON dynstat_wvel_mean            =   6.5491667128201E-08
(PID.TID 0000.0001) %MON dynstat_wvel_sd              =   3.5339835290221E-05
(PID.TID 0000.0001) %MON dynstat_wvel_del2            =   5.3375807483704E-08
(PID.TID 0000.0001) %MON dynstat_theta_max            =   3.2662830725056E+01
(PID.TID 0000.0001) %MON dynstat_theta_min            =  -2.0419796745676E+00
(PID.TID 0000.0001) %MON dynstat_theta_mean           =   3.5905585638416E+00
(PID.TID 0000.0001) %MON dynstat_theta_sd             =   4.4364211704249E+00
(PID.TID 0000.0001) %MON dynstat_theta_del2           =   1.0624439918753E-04
(PID.TID 0000.0001) %MON dynstat_salt_max             =   4.0711522150678E+01
(PID.TID 0000.0001) %MON dynstat_salt_min             =   1.8892509739343E+01
(PID.TID 0000.0001) %MON dynstat_salt_mean            =   3.4725644826197E+01
(PID.TID 0000.0001) %MON dynstat_salt_sd              =   3.7722242699540E-01
(PID.TID 0000.0001) %MON dynstat_salt_del2            =   2.7750764123366E-05
(PID.TID 0000.0001) %MON dynstat_sst_max              =   3.2662830725056E+01
(PID.TID 0000.0001) %MON dynstat_sst_min              =  -1.9182311495055E+00
(PID.TID 0000.0001) %MON dynstat_sst_mean             =   1.8485037974871E+01
(PID.TID 0000.0001) %MON dynstat_sst_sd               =   1.0104355726189E+01
(PID.TID 0000.0001) %MON dynstat_sst_del2             =   8.5641084924018E-04
(PID.TID 0000.0001) %MON dynstat_sss_max              =   3.9473497949729E+01
(PID.TID 0000.0001) %MON dynstat_sss_min              =   1.8892509739343E+01
(PID.TID 0000.0001) %MON dynstat_sss_mean             =   3.4683476042828E+01
(PID.TID 0000.0001) %MON dynstat_sss_sd               =   1.1235665783873E+00
(PID.TID 0000.0001) %MON dynstat_sss_del2             =   5.4256108543836E-04
(PID.TID 0000.0001) %MON forcing_qnet_max             =   1.6284249267578E+03
(PID.TID 0000.0001) %MON forcing_qnet_min             =  -1.0961490013434E+03
(PID.TID 0000.0001) %MON forcing_qnet_mean            =   5.5356695161236E+01
(PID.TID 0000.0001) %MON forcing_qnet_sd              =   1.7538849610240E+02
(PID.TID 0000.0001) %MON forcing_qnet_del2            =   4.5209601266056E-01
(PID.TID 0000.0001) %MON forcing_qsw_max              =   0.0000000000000E+00
(PID.TID 0000.0001) %MON forcing_qsw_min              =  -1.1133712691590E+02
(PID.TID 0000.0001) %MON forcing_qsw_mean             =  -1.3431935862803E+01
(PID.TID 0000.0001) %MON forcing_qsw_sd               =   2.4644951775701E+01
(PID.TID 0000.0001) %MON forcing_qsw_del2             =   1.9322284523282E-02
(PID.TID 0000.0001) %MON forcing_empmr_max            =   3.0734459869564E-03
(PID.TID 0000.0001) %MON forcing_empmr_min            =  -1.3673174381256E-01
(PID.TID 0000.0001) %MON forcing_empmr_mean           =   5.3611670282725E-06
(PID.TID 0000.0001) %MON forcing_empmr_sd             =   5.1992099622634E-04
(PID.TID 0000.0001) %MON forcing_empmr_del2           =   7.9964771440834E-06
(PID.TID 0000.0001) %MON forcing_fu_max               =   1.0663222445858E+00
(PID.TID 0000.0001) %MON forcing_fu_min               =  -9.9730975536097E-01
(PID.TID 0000.0001) %MON forcing_fu_mean              =   1.1982201034895E-02
(PID.TID 0000.0001) %MON forcing_fu_sd                =   1.0981962118480E-01
(PID.TID 0000.0001) %MON forcing_fu_del2              =   1.5956837632788E-04
(PID.TID 0000.0001) %MON forcing_fv_max               =   1.1133856972293E+00
(PID.TID 0000.0001) %MON forcing_fv_min               =  -6.8156942862136E-01
(PID.TID 0000.0001) %MON forcing_fv_mean              =  -7.9282720984966E-03
(PID.TID 0000.0001) %MON forcing_fv_sd                =   1.0551003897972E-01
(PID.TID 0000.0001) %MON forcing_fv_del2              =   1.3701040436781E-04
(PID.TID 0000.0001) %MON trAdv_CFL_u_max              =   1.8814647680970E-02
(PID.TID 0000.0001) %MON trAdv_CFL_v_max              =   1.8246837429834E-02
(PID.TID 0000.0001) %MON trAdv_CFL_w_max              =   8.0684331421418E-02
(PID.TID 0000.0001) %MON advcfl_uvel_max              =   1.7832164598447E-02
(PID.TID 0000.0001) %MON advcfl_vvel_max              =   1.7200956703280E-02
(PID.TID 0000.0001) %MON advcfl_wvel_max              =   7.7918733809677E-02
(PID.TID 0000.0001) %MON advcfl_W_hf_max              =   8.2469693569486E-02
(PID.TID 0000.0001) %MON pe_b_mean                    =   6.7048444398126E-04
(PID.TID 0000.0001) %MON ke_max                       =   5.8340477226517E-01
(PID.TID 0000.0001) %MON ke_mean                      =   4.8713766145875E-04
(PID.TID 0000.0001) %MON ke_vol                       =   1.3349969690000E+18
(PID.TID 0000.0001) %MON vort_r_min                   =  -2.9990727703719E-05
(PID.TID 0000.0001) %MON vort_r_max                   =   2.9644495275868E-05
(PID.TID 0000.0001) %MON vort_a_mean                  =  -1.9727864647440E-05
(PID.TID 0000.0001) %MON vort_a_sd                    =   7.4543345675625E-05
(PID.TID 0000.0001) %MON vort_p_mean                  =  -2.1760544968082E-05
(PID.TID 0000.0001) %MON vort_p_sd                    =   9.7244830416918E-05
(PID.TID 0000.0001) %MON surfExpan_theta_mean         =  -2.3078643455065E-06
(PID.TID 0000.0001) %MON surfExpan_salt_mean          =  -2.3709887348309E-07
(PID.TID 0000.0001) // =======================================================
(PID.TID 0000.0001) // End MONITOR dynamic field statistics
(PID.TID 0000.0001) // =======================================================
(PID.TID 0000.0001) // =======================================================
(PID.TID 0000.0001) // Begin MONITOR SEAICE statistics
(PID.TID 0000.0001) // =======================================================
(PID.TID 0000.0001) %MON seaice_tsnumber              =                    48
(PID.TID 0000.0001) %MON seaice_time_sec              =   4.3200000000000E+04
(PID.TID 0000.0001) %MON seaice_uice_max              =   6.3482832181299E-01
(PID.TID 0000.0001) %MON seaice_uice_min              =  -6.4619309773276E-01
(PID.TID 0000.0001) %MON seaice_uice_mean             =  -2.7799615608623E-03
(PID.TID 0000.0001) %MON seaice_uice_sd               =   1.4423661532052E-01
(PID.TID 0000.0001) %MON seaice_uice_del2             =   2.0489675114024E-04
(PID.TID 0000.0001) %MON seaice_vice_max              =   7.3116932280864E-01
(PID.TID 0000.0001) %MON seaice_vice_min              =  -9.1251308158222E-01
(PID.TID 0000.0001) %MON seaice_vice_mean             =  -1.4065144365339E-02
(PID.TID 0000.0001) %MON seaice_vice_sd               =   1.3449674006279E-01
(PID.TID 0000.0001) %MON seaice_vice_del2             =   1.7850834110340E-04
(PID.TID 0000.0001) %MON seaice_area_max              =   1.0000000000000E+00
(PID.TID 0000.0001) %MON seaice_area_min              =   0.0000000000000E+00
(PID.TID 0000.0001) %MON seaice_area_mean             =   7.1653182762274E-02
(PID.TID 0000.0001) %MON seaice_area_sd               =   2.3725617960121E-01
(PID.TID 0000.0001) %MON seaice_area_del2             =   3.9846407262906E-04
(PID.TID 0000.0001) %MON seaice_heff_max              =   2.5110027929340E+01
(PID.TID 0000.0001) %MON seaice_heff_min              =   0.0000000000000E+00
(PID.TID 0000.0001) %MON seaice_heff_mean             =   2.1701940513214E-01
(PID.TID 0000.0001) %MON seaice_heff_sd               =   1.0635844297511E+00
(PID.TID 0000.0001) %MON seaice_heff_del2             =   3.2633190983297E-03
(PID.TID 0000.0001) %MON seaice_hsnow_max             =   8.2933452749695E+00
(PID.TID 0000.0001) %MON seaice_hsnow_min             =   0.0000000000000E+00
(PID.TID 0000.0001) %MON seaice_hsnow_mean            =   2.4615796825841E-02
(PID.TID 0000.0001) %MON seaice_hsnow_sd              =   1.5375001561551E-01
(PID.TID 0000.0001) %MON seaice_hsnow_del2            =   1.0362026149644E-03
(PID.TID 0000.0001) // =======================================================
(PID.TID 0000.0001) // End MONITOR SEAICE statistics
(PID.TID 0000.0001) // =======================================================
 Computing Diagnostic #     86  oceQnet      Counter:       4   Parms: SM      U1      
 Computing Diagnostic #     87  oceQsw       Counter:       4   Parms: SM      U1      
 Computing Diagnostic #     84  oceFWflx     Counter:       4   Parms: SM      U1      
 Computing Diagnostic #     85  oceSflux     Counter:       4   Parms: SM      U1      
 Computing Diagnostic #     80  oceTAUX      Counter:       4   Parms: UU      U1      
           Vector  Mate for  oceTAUX      Diagnostic #     81  oceTAUY  exists 
 Computing Diagnostic #     81  oceTAUY      Counter:       4   Parms: VV      U1      
           Vector  Mate for  oceTAUY      Diagnostic #     80  oceTAUX  exists 
 Computing Diagnostic #     26  THETA        Counter:       4   Parms: SMR     MR      
 Computing Diagnostic #     27  SALT         Counter:       4   Parms: SMR     MR      
 Computing Diagnostic #     30  UVEL         Counter:       4   Parms: UUR     MR      
           Vector  Mate for  UVEL         Diagnostic #     31  VVEL     exists 
 Computing Diagnostic #     31  VVEL         Counter:       4   Parms: VVR     MR      
           Vector  Mate for  VVEL         Diagnostic #     30  UVEL     exists 
 Computing Diagnostic #    214  SIarea       Counter:       4   Parms: SM      M1      
 Computing Diagnostic #    217  SIheff       Counter:       4   Parms: SM      M1      
 Computing Diagnostic #    219  SIhsnow      Counter:       4   Parms: SM      M1      
 Computing Diagnostic #     83  sIceLoad     Counter:       4   Parms: SM      U1      
 Computing Diagnostic #    223  SIuice       Counter:       4   Parms: UU      M1      
           Vector  Mate for  SIuice       Diagnostic #    224  SIvice   exists 
 Computing Diagnostic #    224  SIvice       Counter:       4   Parms: VV      M1      
           Vector  Mate for  SIvice       Diagnostic #    223  SIuice   exists 
 Computing Diagnostic #    225  SItaux       Counter:       4   Parms: UU      U1      
           Vector  Mate for  SItaux       Diagnostic #    226  SItauy   exists 
 Computing Diagnostic #    226  SItauy       Counter:       4   Parms: VV      U1      
           Vector  Mate for  SItauy       Diagnostic #    225  SItaux   exists 
 Computing Diagnostic #    285  SIareaN      Counter:       4   Parms: SM      MX      
 Computing Diagnostic #    284  SIheffN      Counter:       4   Parms: SM      MX      
 Computing Diagnostic #    286  SIhsnowN     Counter:       4   Parms: SM      MX      
 Compute Stats, Diag. #    214  SIarea    vol(   0 ): 3.580E+14  Parms: SM      M1      
 Compute Stats, Diag. #    217  SIheff    vol(   0 ): 3.580E+14  Parms: SM      M1      
 Compute Stats, Diag. #    219  SIhsnow   vol(   0 ): 3.580E+14  Parms: SM      M1      
 Compute Stats, Diag. #     83  sIceLoad  vol(   0 ): 3.580E+14  Parms: SM      U1      
 Compute Stats, Diag. #    223  SIuice    vol(   0 ): 3.513E+14  Parms: UU      M1      
 Compute Stats, Diag. #    224  SIvice    vol(   0 ): 3.508E+14  Parms: VV      M1      
 Compute Stats, Diag. #    225  SItaux    vol(   0 ): 3.513E+14  Parms: UU      U1      
 Compute Stats, Diag. #    226  SItauy    vol(   0 ): 3.508E+14  Parms: VV      U1      
 SEAICE_LSR: Residual Initial ipass,Uice,Vice=    1  1.18896564E-02  1.17723817E-02
 SEAICE_LSR (ipass=   1) iters,dU,Resid=  1500  2.09085179E-08  1.63375882E-06
 SEAICE_LSR (ipass=   1) iters,dV,Resid=  1500  4.76392495E-10  6.38802598E-09
 SEAICE_LSR: Residual Initial ipass,Uice,Vice=    2  1.02811691E-02  1.10518644E-02
 SEAICE_LSR (ipass=   2) iters,dU,Resid=  1500  1.18251922E-08  9.23205876E-07
 SEAICE_LSR (ipass=   2) iters,dV,Resid=  1500  2.58785229E-10  3.45134250E-09
 cg2d: Sum(rhs),rhsMax =   8.04451953536882E+01  2.98406048921260E-01
 Compute Stats, Diag. #    214  SIarea    vol(   0 ): 3.580E+14  Parms: SM      M1      
 Compute Stats, Diag. #    217  SIheff    vol(   0 ): 3.580E+14  Parms: SM      M1      
 Compute Stats, Diag. #    219  SIhsnow   vol(   0 ): 3.580E+14  Parms: SM      M1      
 Compute Stats, Diag. #     83  sIceLoad  vol(   0 ): 3.580E+14  Parms: SM      U1      
 Compute Stats, Diag. #    223  SIuice    vol(   0 ): 3.513E+14  Parms: UU      M1      
 Compute Stats, Diag. #    224  SIvice    vol(   0 ): 3.508E+14  Parms: VV      M1      
 Compute Stats, Diag. #    225  SItaux    vol(   0 ): 3.513E+14  Parms: UU      U1      
 Compute Stats, Diag. #    226  SItauy    vol(   0 ): 3.508E+14  Parms: VV      U1      
 cg2d: Sum(rhs),rhsMax =   8.05607879036782E+01  2.98712901666262E-01
 Compute Stats, Diag. #    214  SIarea    vol(   0 ): 3.580E+14  Parms: SM      M1      
 Compute Stats, Diag. #    217  SIheff    vol(   0 ): 3.580E+14  Parms: SM      M1      
 Compute Stats, Diag. #    219  SIhsnow   vol(   0 ): 3.580E+14  Parms: SM      M1      
 Compute Stats, Diag. #     83  sIceLoad  vol(   0 ): 3.580E+14  Parms: SM      U1      
 Compute Stats, Diag. #    223  SIuice    vol(   0 ): 3.513E+14  Parms: UU      M1      
 Compute Stats, Diag. #    224  SIvice    vol(   0 ): 3.508E+14  Parms: VV      M1      
 Compute Stats, Diag. #    225  SItaux    vol(   0 ): 3.513E+14  Parms: UU      U1      
 Compute Stats, Diag. #    226  SItauy    vol(   0 ): 3.508E+14  Parms: VV      U1      
 cg2d: Sum(rhs),rhsMax =   8.06746864869487E+01  2.98970811520385E-01
 Compute Stats, Diag. #    214  SIarea    vol(   0 ): 3.580E+14  Parms: SM      M1      
 Compute Stats, Diag. #    217  SIheff    vol(   0 ): 3.580E+14  Parms: SM      M1      
 Compute Stats, Diag. #    219  SIhsnow   vol(   0 ): 3.580E+14  Parms: SM      M1      
 Compute Stats, Diag. #     83  sIceLoad  vol(   0 ): 3.580E+14  Parms: SM      U1      
 Compute Stats, Diag. #    223  SIuice    vol(   0 ): 3.513E+14  Parms: UU      M1      
 Compute Stats, Diag. #    224  SIvice    vol(   0 ): 3.508E+14  Parms: VV      M1      
 Compute Stats, Diag. #    225  SItaux    vol(   0 ): 3.513E+14  Parms: UU      U1      
 Compute Stats, Diag. #    226  SItauy    vol(   0 ): 3.508E+14  Parms: VV      U1      
 cg2d: Sum(rhs),rhsMax =   8.07825715746632E+01  2.99161046125602E-01
 Computing Diagnostic #     86  oceQnet      Counter:       4   Parms: SM      U1      
 Computing Diagnostic #     87  oceQsw       Counter:       4   Parms: SM      U1      
 Computing Diagnostic #     84  oceFWflx     Counter:       4   Parms: SM      U1      
 Computing Diagnostic #     85  oceSflux     Counter:       4   Parms: SM      U1      
 Computing Diagnostic #     80  oceTAUX      Counter:       4   Parms: UU      U1      
           Vector  Mate for  oceTAUX      Diagnostic #     81  oceTAUY  exists 
 Computing Diagnostic #     81  oceTAUY      Counter:       4   Parms: VV      U1      
           Vector  Mate for  oceTAUY      Diagnostic #     80  oceTAUX  exists 
 Computing Diagnostic #     26  THETA        Counter:       4   Parms: SMR     MR      
 Computing Diagnostic #     27  SALT         Counter:       4   Parms: SMR     MR      
 Computing Diagnostic #     30  UVEL         Counter:       4   Parms: UUR     MR      
           Vector  Mate for  UVEL         Diagnostic #     31  VVEL     exists 
 Computing Diagnostic #     31  VVEL         Counter:       4   Parms: VVR     MR      
           Vector  Mate for  VVEL         Diagnostic #     30  UVEL     exists 
 Computing Diagnostic #    214  SIarea       Counter:       4   Parms: SM      M1      
 Computing Diagnostic #    217  SIheff       Counter:       4   Parms: SM      M1      
 Computing Diagnostic #    219  SIhsnow      Counter:       4   Parms: SM      M1      
 Computing Diagnostic #     83  sIceLoad     Counter:       4   Parms: SM      U1      
 Computing Diagnostic #    223  SIuice       Counter:       4   Parms: UU      M1      
           Vector  Mate for  SIuice       Diagnostic #    224  SIvice   exists 
 Computing Diagnostic #    224  SIvice       Counter:       4   Parms: VV      M1      
           Vector  Mate for  SIvice       Diagnostic #    223  SIuice   exists 
 Computing Diagnostic #    225  SItaux       Counter:       4   Parms: UU      U1      
           Vector  Mate for  SItaux       Diagnostic #    226  SItauy   exists 
 Computing Diagnostic #    226  SItauy       Counter:       4   Parms: VV      U1      
           Vector  Mate for  SItauy       Diagnostic #    225  SItaux   exists 
 Computing Diagnostic #    285  SIareaN      Counter:       4   Parms: SM      MX      
 Computing Diagnostic #    284  SIheffN      Counter:       4   Parms: SM      MX      
 Computing Diagnostic #    286  SIhsnowN     Counter:       4   Parms: SM      MX      
 Compute Stats, Diag. #    214  SIarea    vol(   0 ): 3.580E+14  Parms: SM      M1      
 Compute Stats, Diag. #    217  SIheff    vol(   0 ): 3.580E+14  Parms: SM      M1      
 Compute Stats, Diag. #    219  SIhsnow   vol(   0 ): 3.580E+14  Parms: SM      M1      
 Compute Stats, Diag. #     83  sIceLoad  vol(   0 ): 3.580E+14  Parms: SM      U1      
 Compute Stats, Diag. #    223  SIuice    vol(   0 ): 3.513E+14  Parms: UU      M1      
 Compute Stats, Diag. #    224  SIvice    vol(   0 ): 3.508E+14  Parms: VV      M1      
 Compute Stats, Diag. #    225  SItaux    vol(   0 ): 3.513E+14  Parms: UU      U1      
 Compute Stats, Diag. #    226  SItauy    vol(   0 ): 3.508E+14  Parms: VV      U1      
 cg2d: Sum(rhs),rhsMax =   8.08806747770298E+01  2.99271059073513E-01
 Compute Stats, Diag. #    214  SIarea    vol(   0 ): 3.580E+14  Parms: SM      M1      
 Compute Stats, Diag. #    217  SIheff    vol(   0 ): 3.580E+14  Parms: SM      M1      
 Compute Stats, Diag. #    219  SIhsnow   vol(   0 ): 3.580E+14  Parms: SM      M1      
 Compute Stats, Diag. #     83  sIceLoad  vol(   0 ): 3.580E+14  Parms: SM      U1      
 Compute Stats, Diag. #    223  SIuice    vol(   0 ): 3.513E+14  Parms: UU      M1      
 Compute Stats, Diag. #    224  SIvice    vol(   0 ): 3.508E+14  Parms: VV      M1      
 Compute Stats, Diag. #    225  SItaux    vol(   0 ): 3.513E+14  Parms: UU      U1      
 Compute Stats, Diag. #    226  SItauy    vol(   0 ): 3.508E+14  Parms: VV      U1      
 cg2d: Sum(rhs),rhsMax =   8.09729520334532E+01  2.99298621040443E-01
 Compute Stats, Diag. #    214  SIarea    vol(   0 ): 3.580E+14  Parms: SM      M1      
 Compute Stats, Diag. #    217  SIheff    vol(   0 ): 3.580E+14  Parms: SM      M1      
 Compute Stats, Diag. #    219  SIhsnow   vol(   0 ): 3.580E+14  Parms: SM      M1      
 Compute Stats, Diag. #     83  sIceLoad  vol(   0 ): 3.580E+14  Parms: SM      U1      
 Compute Stats, Diag. #    223  SIuice    vol(   0 ): 3.513E+14  Parms: UU      M1      
 Compute Stats, Diag. #    224  SIvice    vol(   0 ): 3.508E+14  Parms: VV      M1      
 Compute Stats, Diag. #    225  SItaux    vol(   0 ): 3.513E+14  Parms: UU      U1      
 Compute Stats, Diag. #    226  SItauy    vol(   0 ): 3.508E+14  Parms: VV      U1      
 cg2d: Sum(rhs),rhsMax =   8.10526896347439E+01  2.99251761117973E-01
 Compute Stats, Diag. #    214  SIarea    vol(   0 ): 3.580E+14  Parms: SM      M1      
 Compute Stats, Diag. #    217  SIheff    vol(   0 ): 3.580E+14  Parms: SM      M1      
 Compute Stats, Diag. #    219  SIhsnow   vol(   0 ): 3.580E+14  Parms: SM      M1      
 Compute Stats, Diag. #     83  sIceLoad  vol(   0 ): 3.580E+14  Parms: SM      U1      
 Compute Stats, Diag. #    223  SIuice    vol(   0 ): 3.513E+14  Parms: UU      M1      
 Compute Stats, Diag. #    224  SIvice    vol(   0 ): 3.508E+14  Parms: VV      M1      
 Compute Stats, Diag. #    225  SItaux    vol(   0 ): 3.513E+14  Parms: UU      U1      
 Compute Stats, Diag. #    226  SItauy    vol(   0 ): 3.508E+14  Parms: VV      U1      
 cg2d: Sum(rhs),rhsMax =   8.11264837822317E+01  2.99142975631104E-01
(PID.TID 0000.0001)      cg2d_init_res =   3.68747200175449E-01
(PID.TID 0000.0001)      cg2d_iters(min,last) =      -1      32
(PID.TID 0000.0001)      cg2d_last_res =   2.58784791374125E-05
(PID.TID 0000.0001) // =======================================================
(PID.TID 0000.0001) // Begin MONITOR dynamic field statistics
(PID.TID 0000.0001) // =======================================================
(PID.TID 0000.0001) %MON time_tsnumber                =                    56
(PID.TID 0000.0001) %MON time_secondsf                =   5.0400000000000E+04
(PID.TID 0000.0001) %MON dynstat_eta_max              =   1.0898596426150E+00
(PID.TID 0000.0001) %MON dynstat_eta_min              =  -3.2383927060098E+00
(PID.TID 0000.0001) %MON dynstat_eta_mean             =  -2.5662897828295E-03
(PID.TID 0000.0001) %MON dynstat_eta_sd               =   7.0881630808295E-01
(PID.TID 0000.0001) %MON dynstat_eta_del2             =   8.3778585918142E-05
(PID.TID 0000.0001) %MON dynstat_uvel_max             =   8.8291584693622E-01
(PID.TID 0000.0001) %MON dynstat_uvel_min             =  -1.0472624429722E+00
(PID.TID 0000.0001) %MON dynstat_uvel_mean            =   1.7185832555150E-03
(PID.TID 0000.0001) %MON dynstat_uvel_sd              =   2.1651833082563E-02
(PID.TID 0000.0001) %MON dynstat_uvel_del2            =   1.2891495872904E-05
(PID.TID 0000.0001) %MON dynstat_vvel_max             =   1.0136174741487E+00
(PID.TID 0000.0001) %MON dynstat_vvel_min             =  -9.2415573505765E-01
(PID.TID 0000.0001) %MON dynstat_vvel_mean            =   1.5835399079983E-03
(PID.TID 0000.0001) %MON dynstat_vvel_sd              =   2.2959485883816E-02
(PID.TID 0000.0001) %MON dynstat_vvel_del2            =   1.3401910140525E-05
(PID.TID 0000.0001) %MON dynstat_wvel_max             =   3.7657844748044E-03
(PID.TID 0000.0001) %MON dynstat_wvel_min             =  -2.5519982690319E-03
(PID.TID 0000.0001) %MON dynstat_wvel_mean            =   7.3536912532884E-08
(PID.TID 0000.0001) %MON dynstat_wvel_sd              =   3.4501849118317E-05
(PID.TID 0000.0001) %MON dynstat_wvel_del2            =   5.3447005524537E-08
(PID.TID 0000.0001) %MON dynstat_theta_max            =   3.2643195071805E+01
(PID.TID 0000.0001) %MON dynstat_theta_min            =  -2.0419659521007E+00
(PID.TID 0000.0001) %MON dynstat_theta_mean           =   3.5905360806625E+00
(PID.TID 0000.0001) %MON dynstat_theta_sd             =   4.4363255023673E+00
(PID.TID 0000.0001) %MON dynstat_theta_del2           =   1.0559829923898E-04
(PID.TID 0000.0001) %MON dynstat_salt_max             =   4.0711521723857E+01
(PID.TID 0000.0001) %MON dynstat_salt_min             =   1.8897152303388E+01
(PID.TID 0000.0001) %MON dynstat_salt_mean            =   3.4725636167190E+01
(PID.TID 0000.0001) %MON dynstat_salt_sd              =   3.7718348292368E-01
(PID.TID 0000.0001) %MON dynstat_salt_del2            =   2.8407299825974E-05
(PID.TID 0000.0001) %MON dynstat_sst_max              =   3.2632377437352E+01
(PID.TID 0000.0001) %MON dynstat_sst_min              =  -1.9011535180914E+00
(PID.TID 0000.0001) %MON dynstat_sst_mean             =   1.8480999893237E+01
(PID.TID 0000.0001) %MON dynstat_sst_sd               =   1.0104724055343E+01
(PID.TID 0000.0001) %MON dynstat_sst_del2             =   8.5172850732141E-04
(PID.TID 0000.0001) %MON dynstat_sss_max              =   3.9446285846537E+01
(PID.TID 0000.0001) %MON dynstat_sss_min              =   1.8897152303388E+01
(PID.TID 0000.0001) %MON dynstat_sss_mean             =   3.4683921191620E+01
(PID.TID 0000.0001) %MON dynstat_sss_sd               =   1.1240554194187E+00
(PID.TID 0000.0001) %MON dynstat_sss_del2             =   6.0347568482040E-04
(PID.TID 0000.0001) %MON forcing_qnet_max             =   1.2227474268220E+03
(PID.TID 0000.0001) %MON forcing_qnet_min             =  -9.1769567871094E+02
(PID.TID 0000.0001) %MON forcing_qnet_mean            =   4.2009259376247E+01
(PID.TID 0000.0001) %MON forcing_qnet_sd              =   1.7616387879623E+02
(PID.TID 0000.0001) %MON forcing_qnet_del2            =   3.9464167616837E-01
(PID.TID 0000.0001) %MON forcing_qsw_max              =   0.0000000000000E+00
(PID.TID 0000.0001) %MON forcing_qsw_min              =  -9.8476222846709E+01
(PID.TID 0000.0001) %MON forcing_qsw_mean             =  -1.4410443306544E+01
(PID.TID 0000.0001) %MON forcing_qsw_sd               =   2.4131615948108E+01
(PID.TID 0000.0001) %MON forcing_qsw_del2             =   2.0890799782867E-02
(PID.TID 0000.0001) %MON forcing_empmr_max            =   3.1004503834993E-03
(PID.TID 0000.0001) %MON forcing_empmr_min            =  -1.1468544602394E-01
(PID.TID 0000.0001) %MON forcing_empmr_mean           =   2.6689339560043E-06
(PID.TID 0000.0001) %MON forcing_empmr_sd             =   4.2502976871463E-04
(PID.TID 0000.0001) %MON forcing_empmr_del2           =   6.2805520878094E-06
(PID.TID 0000.0001) %MON forcing_fu_max               =   1.0746974499400E+00
(PID.TID 0000.0001) %MON forcing_fu_min               =  -1.6835277300235E+00
(PID.TID 0000.0001) %MON forcing_fu_mean              =   1.1194491033194E-02
(PID.TID 0000.0001) %MON forcing_fu_sd                =   1.0879409103512E-01
(PID.TID 0000.0001) %MON forcing_fu_del2              =   1.6019591531033E-04
(PID.TID 0000.0001) %MON forcing_fv_max               =   1.8524571487742E+00
(PID.TID 0000.0001) %MON forcing_fv_min               =  -6.8695026383328E-01
(PID.TID 0000.0001) %MON forcing_fv_mean              =  -7.8938017592649E-03
(PID.TID 0000.0001) %MON forcing_fv_sd                =   1.0444991461351E-01
(PID.TID 0000.0001) %MON forcing_fv_del2              =   1.3791406468157E-04
(PID.TID 0000.0001) %MON trAdv_CFL_u_max              =   2.0377136034164E-02
(PID.TID 0000.0001) %MON trAdv_CFL_v_max              =   1.9066103768801E-02
(PID.TID 0000.0001) %MON trAdv_CFL_w_max              =   8.2950687069962E-02
(PID.TID 0000.0001) %MON advcfl_uvel_max              =   1.7326868582794E-02
(PID.TID 0000.0001) %MON advcfl_vvel_max              =   1.7992506143334E-02
(PID.TID 0000.0001) %MON advcfl_wvel_max              =   8.6436670286367E-02
(PID.TID 0000.0001) %MON advcfl_W_hf_max              =   9.1858920191083E-02
(PID.TID 0000.0001) %MON pe_b_mean                    =   6.6089379074116E-04
(PID.TID 0000.0001) %MON ke_max                       =   6.2973480598039E-01
(PID.TID 0000.0001) %MON ke_mean                      =   4.8286984635630E-04
(PID.TID 0000.0001) %MON ke_vol                       =   1.3349969590077E+18
(PID.TID 0000.0001) %MON vort_r_min                   =  -2.9209096103315E-05
(PID.TID 0000.0001) %MON vort_r_max                   =   3.0040764121295E-05
(PID.TID 0000.0001) %MON vort_a_mean                  =  -1.9727864647440E-05
(PID.TID 0000.0001) %MON vort_a_sd                    =   7.4543346213275E-05
(PID.TID 0000.0001) %MON vort_p_mean                  =  -2.1760545217048E-05
(PID.TID 0000.0001) %MON vort_p_sd                    =   9.7245215827790E-05
(PID.TID 0000.0001) %MON surfExpan_theta_mean         =  -2.7505104383523E-06
(PID.TID 0000.0001) %MON surfExpan_salt_mean          =  -2.5757123853948E-07
(PID.TID 0000.0001) // =======================================================
(PID.TID 0000.0001) // End MONITOR dynamic field statistics
(PID.TID 0000.0001) // =======================================================
(PID.TID 0000.0001) // =======================================================
(PID.TID 0000.0001) // Begin MONITOR SEAICE statistics
(PID.TID 0000.0001) // =======================================================
(PID.TID 0000.0001) %MON seaice_tsnumber              =                    56
(PID.TID 0000.0001) %MON seaice_time_sec              =   5.0400000000000E+04
(PID.TID 0000.0001) %MON seaice_uice_max              =   6.2322198249508E-01
(PID.TID 0000.0001) %MON seaice_uice_min              =  -6.2722157953827E-01
(PID.TID 0000.0001) %MON seaice_uice_mean             =  -1.3595986420752E-03
(PID.TID 0000.0001) %MON seaice_uice_sd               =   1.4264969828219E-01
(PID.TID 0000.0001) %MON seaice_uice_del2             =   2.0279984977233E-04
(PID.TID 0000.0001) %MON seaice_vice_max              =   7.7634123453560E-01
(PID.TID 0000.0001) %MON seaice_vice_min              =  -9.1024053696036E-01
(PID.TID 0000.0001) %MON seaice_vice_mean             =  -1.6381380490418E-02
(PID.TID 0000.0001) %MON seaice_vice_sd               =   1.3346530471279E-01
(PID.TID 0000.0001) %MON seaice_vice_del2             =   1.7603666104938E-04
(PID.TID 0000.0001) %MON seaice_area_max              =   1.0000000000000E+00
(PID.TID 0000.0001) %MON seaice_area_min              =   0.0000000000000E+00
(PID.TID 0000.0001) %MON seaice_area_mean             =   7.1487852915924E-02
(PID.TID 0000.0001) %MON seaice_area_sd               =   2.3714376995754E-01
(PID.TID 0000.0001) %MON seaice_area_del2             =   3.8964153828181E-04
(PID.TID 0000.0001) %MON seaice_heff_max              =   2.5105497030639E+01
(PID.TID 0000.0001) %MON seaice_heff_min              =   0.0000000000000E+00
(PID.TID 0000.0001) %MON seaice_heff_mean             =   2.1706259905912E-01
(PID.TID 0000.0001) %MON seaice_heff_sd               =   1.0635677532681E+00
(PID.TID 0000.0001) %MON seaice_heff_del2             =   3.1995018266073E-03
(PID.TID 0000.0001) %MON seaice_hsnow_max             =   8.2918527689021E+00
(PID.TID 0000.0001) %MON seaice_hsnow_min             =   0.0000000000000E+00
(PID.TID 0000.0001) %MON seaice_hsnow_mean            =   2.4606623716934E-02
(PID.TID 0000.0001) %MON seaice_hsnow_sd              =   1.5331665171503E-01
(PID.TID 0000.0001) %MON seaice_hsnow_del2            =   1.0149532820333E-03
(PID.TID 0000.0001) // =======================================================
(PID.TID 0000.0001) // End MONITOR SEAICE statistics
(PID.TID 0000.0001) // =======================================================
 Computing Diagnostic #     86  oceQnet      Counter:       4   Parms: SM      U1      
 Computing Diagnostic #     87  oceQsw       Counter:       4   Parms: SM      U1      
 Computing Diagnostic #     84  oceFWflx     Counter:       4   Parms: SM      U1      
 Computing Diagnostic #     85  oceSflux     Counter:       4   Parms: SM      U1      
 Computing Diagnostic #     80  oceTAUX      Counter:       4   Parms: UU      U1      
           Vector  Mate for  oceTAUX      Diagnostic #     81  oceTAUY  exists 
 Computing Diagnostic #     81  oceTAUY      Counter:       4   Parms: VV      U1      
           Vector  Mate for  oceTAUY      Diagnostic #     80  oceTAUX  exists 
 Computing Diagnostic #     26  THETA        Counter:       4   Parms: SMR     MR      
 Computing Diagnostic #     27  SALT         Counter:       4   Parms: SMR     MR      
 Computing Diagnostic #     30  UVEL         Counter:       4   Parms: UUR     MR      
           Vector  Mate for  UVEL         Diagnostic #     31  VVEL     exists 
 Computing Diagnostic #     31  VVEL         Counter:       4   Parms: VVR     MR      
           Vector  Mate for  VVEL         Diagnostic #     30  UVEL     exists 
 Computing Diagnostic #    214  SIarea       Counter:       4   Parms: SM      M1      
 Computing Diagnostic #    217  SIheff       Counter:       4   Parms: SM      M1      
 Computing Diagnostic #    219  SIhsnow      Counter:       4   Parms: SM      M1      
 Computing Diagnostic #     83  sIceLoad     Counter:       4   Parms: SM      U1      
 Computing Diagnostic #    223  SIuice       Counter:       4   Parms: UU      M1      
           Vector  Mate for  SIuice       Diagnostic #    224  SIvice   exists 
 Computing Diagnostic #    224  SIvice       Counter:       4   Parms: VV      M1      
           Vector  Mate for  SIvice       Diagnostic #    223  SIuice   exists 
 Computing Diagnostic #    225  SItaux       Counter:       4   Parms: UU      U1      
           Vector  Mate for  SItaux       Diagnostic #    226  SItauy   exists 
 Computing Diagnostic #    226  SItauy       Counter:       4   Parms: VV      U1      
           Vector  Mate for  SItauy       Diagnostic #    225  SItaux   exists 
 Computing Diagnostic #    285  SIareaN      Counter:       4   Parms: SM      MX      
 Computing Diagnostic #    284  SIheffN      Counter:       4   Parms: SM      MX      
 Computing Diagnostic #    286  SIhsnowN     Counter:       4   Parms: SM      MX      
 Compute Stats, Diag. #    214  SIarea    vol(   0 ): 3.580E+14  Parms: SM      M1      
 Compute Stats, Diag. #    217  SIheff    vol(   0 ): 3.580E+14  Parms: SM      M1      
 Compute Stats, Diag. #    219  SIhsnow   vol(   0 ): 3.580E+14  Parms: SM      M1      
 Compute Stats, Diag. #     83  sIceLoad  vol(   0 ): 3.580E+14  Parms: SM      U1      
 Compute Stats, Diag. #    223  SIuice    vol(   0 ): 3.513E+14  Parms: UU      M1      
 Compute Stats, Diag. #    224  SIvice    vol(   0 ): 3.508E+14  Parms: VV      M1      
 Compute Stats, Diag. #    225  SItaux    vol(   0 ): 3.513E+14  Parms: UU      U1      
 Compute Stats, Diag. #    226  SItauy    vol(   0 ): 3.508E+14  Parms: VV      U1      
 SEAICE_LSR: Residual Initial ipass,Uice,Vice=    1  9.19081771E-03  8.86341795E-03
 SEAICE_LSR (ipass=   1) iters,dU,Resid=  1500  9.53587556E-10  1.89408313E-08
 SEAICE_LSR (ipass=   1) iters,dV,Resid=  1500  4.79092101E-09  5.76121592E-08
 SEAICE_LSR: Residual Initial ipass,Uice,Vice=    2  7.86151449E-03  8.12797343E-03
 SEAICE_LSR (ipass=   2) iters,dU,Resid=  1500  7.47597872E-10  1.48254631E-08
 SEAICE_LSR (ipass=   2) iters,dV,Resid=  1500  2.55949355E-09  3.06660755E-08
 cg2d: Sum(rhs),rhsMax =   8.11935917167015E+01  2.98993800736024E-01
 Compute Stats, Diag. #    214  SIarea    vol(   0 ): 3.580E+14  Parms: SM      M1      
 Compute Stats, Diag. #    217  SIheff    vol(   0 ): 3.580E+14  Parms: SM      M1      
 Compute Stats, Diag. #    219  SIhsnow   vol(   0 ): 3.580E+14  Parms: SM      M1      
 Compute Stats, Diag. #     83  sIceLoad  vol(   0 ): 3.580E+14  Parms: SM      U1      
 Compute Stats, Diag. #    223  SIuice    vol(   0 ): 3.513E+14  Parms: UU      M1      
 Compute Stats, Diag. #    224  SIvice    vol(   0 ): 3.508E+14  Parms: VV      M1      
 Compute Stats, Diag. #    225  SItaux    vol(   0 ): 3.513E+14  Parms: UU      U1      
 Compute Stats, Diag. #    226  SItauy    vol(   0 ): 3.508E+14  Parms: VV      U1      
 cg2d: Sum(rhs),rhsMax =   8.12506304954001E+01  2.98828153146426E-01
 Compute Stats, Diag. #    214  SIarea    vol(   0 ): 3.580E+14  Parms: SM      M1      
 Compute Stats, Diag. #    217  SIheff    vol(   0 ): 3.580E+14  Parms: SM      M1      
 Compute Stats, Diag. #    219  SIhsnow   vol(   0 ): 3.580E+14  Parms: SM      M1      
 Compute Stats, Diag. #     83  sIceLoad  vol(   0 ): 3.580E+14  Parms: SM      U1      
 Compute Stats, Diag. #    223  SIuice    vol(   0 ): 3.513E+14  Parms: UU      M1      
 Compute Stats, Diag. #    224  SIvice    vol(   0 ): 3.508E+14  Parms: VV      M1      
 Compute Stats, Diag. #    225  SItaux    vol(   0 ): 3.513E+14  Parms: UU      U1      
 Compute Stats, Diag. #    226  SItauy    vol(   0 ): 3.508E+14  Parms: VV      U1      
 cg2d: Sum(rhs),rhsMax =   8.13032452983904E+01  2.98669656293746E-01
 Compute Stats, Diag. #    214  SIarea    vol(   0 ): 3.580E+14  Parms: SM      M1      
 Compute Stats, Diag. #    217  SIheff    vol(   0 ): 3.580E+14  Parms: SM      M1      
 Compute Stats, Diag. #    219  SIhsnow   vol(   0 ): 3.580E+14  Parms: SM      M1      
 Compute Stats, Diag. #     83  sIceLoad  vol(   0 ): 3.580E+14  Parms: SM      U1      
 Compute Stats, Diag. #    223  SIuice    vol(   0 ): 3.513E+14  Parms: UU      M1      
 Compute Stats, Diag. #    224  SIvice    vol(   0 ): 3.508E+14  Parms: VV      M1      
 Compute Stats, Diag. #    225  SItaux    vol(   0 ): 3.513E+14  Parms: UU      U1      
 Compute Stats, Diag. #    226  SItauy    vol(   0 ): 3.508E+14  Parms: VV      U1      
 cg2d: Sum(rhs),rhsMax =   8.13436341977358E+01  2.98541815639657E-01
 Computing Diagnostic #     86  oceQnet      Counter:       4   Parms: SM      U1      
 Computing Diagnostic #     87  oceQsw       Counter:       4   Parms: SM      U1      
 Computing Diagnostic #     84  oceFWflx     Counter:       4   Parms: SM      U1      
 Computing Diagnostic #     85  oceSflux     Counter:       4   Parms: SM      U1      
 Computing Diagnostic #     80  oceTAUX      Counter:       4   Parms: UU      U1      
           Vector  Mate for  oceTAUX      Diagnostic #     81  oceTAUY  exists 
 Computing Diagnostic #     81  oceTAUY      Counter:       4   Parms: VV      U1      
           Vector  Mate for  oceTAUY      Diagnostic #     80  oceTAUX  exists 
 Computing Diagnostic #     26  THETA        Counter:       4   Parms: SMR     MR      
 Computing Diagnostic #     27  SALT         Counter:       4   Parms: SMR     MR      
 Computing Diagnostic #     30  UVEL         Counter:       4   Parms: UUR     MR      
           Vector  Mate for  UVEL         Diagnostic #     31  VVEL     exists 
 Computing Diagnostic #     31  VVEL         Counter:       4   Parms: VVR     MR      
           Vector  Mate for  VVEL         Diagnostic #     30  UVEL     exists 
 Computing Diagnostic #    214  SIarea       Counter:       4   Parms: SM      M1      
 Computing Diagnostic #    217  SIheff       Counter:       4   Parms: SM      M1      
 Computing Diagnostic #    219  SIhsnow      Counter:       4   Parms: SM      M1      
 Computing Diagnostic #     83  sIceLoad     Counter:       4   Parms: SM      U1      
 Computing Diagnostic #    223  SIuice       Counter:       4   Parms: UU      M1      
           Vector  Mate for  SIuice       Diagnostic #    224  SIvice   exists 
 Computing Diagnostic #    224  SIvice       Counter:       4   Parms: VV      M1      
           Vector  Mate for  SIvice       Diagnostic #    223  SIuice   exists 
 Computing Diagnostic #    225  SItaux       Counter:       4   Parms: UU      U1      
           Vector  Mate for  SItaux       Diagnostic #    226  SItauy   exists 
 Computing Diagnostic #    226  SItauy       Counter:       4   Parms: VV      U1      
           Vector  Mate for  SItauy       Diagnostic #    225  SItaux   exists 
 Computing Diagnostic #    285  SIareaN      Counter:       4   Parms: SM      MX      
 Computing Diagnostic #    284  SIheffN      Counter:       4   Parms: SM      MX      
 Computing Diagnostic #    286  SIhsnowN     Counter:       4   Parms: SM      MX      
 Compute Stats, Diag. #    214  SIarea    vol(   0 ): 3.580E+14  Parms: SM      M1      
 Compute Stats, Diag. #    217  SIheff    vol(   0 ): 3.580E+14  Parms: SM      M1      
 Compute Stats, Diag. #    219  SIhsnow   vol(   0 ): 3.580E+14  Parms: SM      M1      
 Compute Stats, Diag. #     83  sIceLoad  vol(   0 ): 3.580E+14  Parms: SM      U1      
 Compute Stats, Diag. #    223  SIuice    vol(   0 ): 3.513E+14  Parms: UU      M1      
 Compute Stats, Diag. #    224  SIvice    vol(   0 ): 3.508E+14  Parms: VV      M1      
 Compute Stats, Diag. #    225  SItaux    vol(   0 ): 3.513E+14  Parms: UU      U1      
 Compute Stats, Diag. #    226  SItauy    vol(   0 ): 3.508E+14  Parms: VV      U1      
 cg2d: Sum(rhs),rhsMax =   8.13778304287896E+01  2.98464671997084E-01
 Compute Stats, Diag. #    214  SIarea    vol(   0 ): 3.580E+14  Parms: SM      M1      
 Compute Stats, Diag. #    217  SIheff    vol(   0 ): 3.580E+14  Parms: SM      M1      
 Compute Stats, Diag. #    219  SIhsnow   vol(   0 ): 3.580E+14  Parms: SM      M1      
 Compute Stats, Diag. #     83  sIceLoad  vol(   0 ): 3.580E+14  Parms: SM      U1      
 Compute Stats, Diag. #    223  SIuice    vol(   0 ): 3.513E+14  Parms: UU      M1      
 Compute Stats, Diag. #    224  SIvice    vol(   0 ): 3.508E+14  Parms: VV      M1      
 Compute Stats, Diag. #    225  SItaux    vol(   0 ): 3.513E+14  Parms: UU      U1      
 Compute Stats, Diag. #    226  SItauy    vol(   0 ): 3.508E+14  Parms: VV      U1      
 cg2d: Sum(rhs),rhsMax =   8.14098821291932E+01  2.98453481882485E-01
 Compute Stats, Diag. #    214  SIarea    vol(   0 ): 3.580E+14  Parms: SM      M1      
 Compute Stats, Diag. #    217  SIheff    vol(   0 ): 3.580E+14  Parms: SM      M1      
 Compute Stats, Diag. #    219  SIhsnow   vol(   0 ): 3.580E+14  Parms: SM      M1      
 Compute Stats, Diag. #     83  sIceLoad  vol(   0 ): 3.580E+14  Parms: SM      U1      
 Compute Stats, Diag. #    223  SIuice    vol(   0 ): 3.513E+14  Parms: UU      M1      
 Compute Stats, Diag. #    224  SIvice    vol(   0 ): 3.508E+14  Parms: VV      M1      
 Compute Stats, Diag. #    225  SItaux    vol(   0 ): 3.513E+14  Parms: UU      U1      
 Compute Stats, Diag. #    226  SItauy    vol(   0 ): 3.508E+14  Parms: VV      U1      
 cg2d: Sum(rhs),rhsMax =   8.14352724076929E+01  2.98518950775268E-01
 Compute Stats, Diag. #    214  SIarea    vol(   0 ): 3.580E+14  Parms: SM      M1      
 Compute Stats, Diag. #    217  SIheff    vol(   0 ): 3.580E+14  Parms: SM      M1      
 Compute Stats, Diag. #    219  SIhsnow   vol(   0 ): 3.580E+14  Parms: SM      M1      
 Compute Stats, Diag. #     83  sIceLoad  vol(   0 ): 3.580E+14  Parms: SM      U1      
 Compute Stats, Diag. #    223  SIuice    vol(   0 ): 3.513E+14  Parms: UU      M1      
 Compute Stats, Diag. #    224  SIvice    vol(   0 ): 3.508E+14  Parms: VV      M1      
 Compute Stats, Diag. #    225  SItaux    vol(   0 ): 3.513E+14  Parms: UU      U1      
 Compute Stats, Diag. #    226  SItauy    vol(   0 ): 3.508E+14  Parms: VV      U1      
 cg2d: Sum(rhs),rhsMax =   8.14565076140969E+01  2.98664828291486E-01
(PID.TID 0000.0001)      cg2d_init_res =   3.45722679832894E-01
(PID.TID 0000.0001)      cg2d_iters(min,last) =      -1      32
(PID.TID 0000.0001)      cg2d_last_res =   2.79250778901520E-05
(PID.TID 0000.0001) // =======================================================
(PID.TID 0000.0001) // Begin MONITOR dynamic field statistics
(PID.TID 0000.0001) // =======================================================
(PID.TID 0000.0001) %MON time_tsnumber                =                    64
(PID.TID 0000.0001) %MON time_secondsf                =   5.7600000000000E+04
(PID.TID 0000.0001) %MON dynstat_eta_max              =   1.0910086675930E+00
(PID.TID 0000.0001) %MON dynstat_eta_min              =  -3.1071653016777E+00
(PID.TID 0000.0001) %MON dynstat_eta_mean             =  -2.5767294906575E-03
(PID.TID 0000.0001) %MON dynstat_eta_sd               =   7.0320341203860E-01
(PID.TID 0000.0001) %MON dynstat_eta_del2             =   8.1847541472091E-05
(PID.TID 0000.0001) %MON dynstat_uvel_max             =   9.3305744339213E-01
(PID.TID 0000.0001) %MON dynstat_uvel_min             =  -1.0238755976613E+00
(PID.TID 0000.0001) %MON dynstat_uvel_mean            =   1.6140634653032E-03
(PID.TID 0000.0001) %MON dynstat_uvel_sd              =   2.1581177273342E-02
(PID.TID 0000.0001) %MON dynstat_uvel_del2            =   1.2871396952340E-05
(PID.TID 0000.0001) %MON dynstat_vvel_max             =   1.0216271104325E+00
(PID.TID 0000.0001) %MON dynstat_vvel_min             =  -9.1986678366132E-01
(PID.TID 0000.0001) %MON dynstat_vvel_mean            =   1.6253418877550E-03
(PID.TID 0000.0001) %MON dynstat_vvel_sd              =   2.2843015992408E-02
(PID.TID 0000.0001) %MON dynstat_vvel_del2            =   1.3201029907204E-05
(PID.TID 0000.0001) %MON dynstat_wvel_max             =   4.1938308787767E-03
(PID.TID 0000.0001) %MON dynstat_wvel_min             =  -2.5353729092998E-03
(PID.TID 0000.0001) %MON dynstat_wvel_mean            =   7.6208459620755E-08
(PID.TID 0000.0001) %MON dynstat_wvel_sd              =   3.3568725973627E-05
(PID.TID 0000.0001) %MON dynstat_wvel_del2            =   5.2987492349215E-08
(PID.TID 0000.0001) %MON dynstat_theta_max            =   3.2638866125997E+01
(PID.TID 0000.0001) %MON dynstat_theta_min            =  -2.0419539884741E+00
(PID.TID 0000.0001) %MON dynstat_theta_mean           =   3.5905205174767E+00
(PID.TID 0000.0001) %MON dynstat_theta_sd             =   4.4362555281233E+00
(PID.TID 0000.0001) %MON dynstat_theta_del2           =   1.0498926071479E-04
(PID.TID 0000.0001) %MON dynstat_salt_max             =   4.0711521306218E+01
(PID.TID 0000.0001) %MON dynstat_salt_min             =   1.8901116910974E+01
(PID.TID 0000.0001) %MON dynstat_salt_mean            =   3.4725629550538E+01
(PID.TID 0000.0001) %MON dynstat_salt_sd              =   3.7715412091312E-01
(PID.TID 0000.0001) %MON dynstat_salt_del2            =   2.8793242799578E-05
(PID.TID 0000.0001) %MON dynstat_sst_max              =   3.2608348998539E+01
(PID.TID 0000.0001) %MON dynstat_sst_min              =  -1.8950369801965E+00
(PID.TID 0000.0001) %MON dynstat_sst_mean             =   1.8479760846461E+01
(PID.TID 0000.0001) %MON dynstat_sst_sd               =   1.0105338241661E+01
(PID.TID 0000.0001) %MON dynstat_sst_del2             =   8.4724006023098E-04
(PID.TID 0000.0001) %MON dynstat_sss_max              =   3.9421439554628E+01
(PID.TID 0000.0001) %MON dynstat_sss_min              =   1.8901116910974E+01
(PID.TID 0000.0001) %MON dynstat_sss_mean             =   3.4684722793816E+01
(PID.TID 0000.0001) %MON dynstat_sss_sd               =   1.1250227834513E+00
(PID.TID 0000.0001) %MON dynstat_sss_del2             =   6.4036414514071E-04
(PID.TID 0000.0001) %MON forcing_qnet_max             =   9.5523864746094E+02
(PID.TID 0000.0001) %MON forcing_qnet_min             =  -7.9072315992712E+02
(PID.TID 0000.0001) %MON forcing_qnet_mean            =   2.7160428526135E+01
(PID.TID 0000.0001) %MON forcing_qnet_sd              =   1.9402801035140E+02
(PID.TID 0000.0001) %MON forcing_qnet_del2            =   3.7772961360709E-01
(PID.TID 0000.0001) %MON forcing_qsw_max              =   0.0000000000000E+00
(PID.TID 0000.0001) %MON forcing_qsw_min              =  -1.0357197749842E+02
(PID.TID 0000.0001) %MON forcing_qsw_mean             =  -1.5608361272725E+01
(PID.TID 0000.0001) %MON forcing_qsw_sd               =   2.7117754356921E+01
(PID.TID 0000.0001) %MON forcing_qsw_del2             =   2.1894788199533E-02
(PID.TID 0000.0001) %MON forcing_empmr_max            =   2.1506077609956E-03
(PID.TID 0000.0001) %MON forcing_empmr_min            =  -8.4680601954460E-02
(PID.TID 0000.0001) %MON forcing_empmr_mean           =   7.6801975989925E-07
(PID.TID 0000.0001) %MON forcing_empmr_sd             =   3.6638125891564E-04
(PID.TID 0000.0001) %MON forcing_empmr_del2           =   4.6118260642825E-06
(PID.TID 0000.0001) %MON forcing_fu_max               =   1.0252413324318E+00
(PID.TID 0000.0001) %MON forcing_fu_min               =  -9.4738805239693E-01
(PID.TID 0000.0001) %MON forcing_fu_mean              =   1.0334649292418E-02
(PID.TID 0000.0001) %MON forcing_fu_sd                =   1.0698821134209E-01
(PID.TID 0000.0001) %MON forcing_fu_del2              =   1.5271080829169E-04
(PID.TID 0000.0001) %MON forcing_fv_max               =   9.6789435434797E-01
(PID.TID 0000.0001) %MON forcing_fv_min               =  -7.0123312799370E-01
(PID.TID 0000.0001) %MON forcing_fv_mean              =  -7.5226536980876E-03
(PID.TID 0000.0001) %MON forcing_fv_sd                =   1.0365852527973E-01
(PID.TID 0000.0001) %MON forcing_fv_del2              =   1.3080053950519E-04
(PID.TID 0000.0001) %MON trAdv_CFL_u_max              =   2.1279145806865E-02
(PID.TID 0000.0001) %MON trAdv_CFL_v_max              =   1.9281832183473E-02
(PID.TID 0000.0001) %MON trAdv_CFL_w_max              =   8.0307528501651E-02
(PID.TID 0000.0001) %MON advcfl_uvel_max              =   1.6939935204263E-02
(PID.TID 0000.0001) %MON advcfl_vvel_max              =   1.8134683477207E-02
(PID.TID 0000.0001) %MON advcfl_wvel_max              =   8.3696195661607E-02
(PID.TID 0000.0001) %MON advcfl_W_hf_max              =   8.9046615765600E-02
(PID.TID 0000.0001) %MON pe_b_mean                    =   6.5046861685453E-04
(PID.TID 0000.0001) %MON ke_max                       =   6.4095252628638E-01
(PID.TID 0000.0001) %MON ke_mean                      =   4.7872114040811E-04
(PID.TID 0000.0001) %MON ke_vol                       =   1.3349969546749E+18
(PID.TID 0000.0001) %MON vort_r_min                   =  -2.8587804409344E-05
(PID.TID 0000.0001) %MON vort_r_max                   =   3.1757492584666E-05
(PID.TID 0000.0001) %MON vort_a_mean                  =  -1.9727864647440E-05
(PID.TID 0000.0001) %MON vort_a_sd                    =   7.4543334419714E-05
(PID.TID 0000.0001) %MON vort_p_mean                  =  -2.1760545149484E-05
(PID.TID 0000.0001) %MON vort_p_sd                    =   9.7245574055497E-05
(PID.TID 0000.0001) %MON surfExpan_theta_mean         =  -2.6877232359530E-06
(PID.TID 0000.0001) %MON surfExpan_salt_mean          =  -2.4138236148800E-07
(PID.TID 0000.0001) // =======================================================
(PID.TID 0000.0001) // End MONITOR dynamic field statistics
(PID.TID 0000.0001) // =======================================================
(PID.TID 0000.0001) // =======================================================
(PID.TID 0000.0001) // Begin MONITOR SEAICE statistics
(PID.TID 0000.0001) // =======================================================
(PID.TID 0000.0001) %MON seaice_tsnumber              =                    64
(PID.TID 0000.0001) %MON seaice_time_sec              =   5.7600000000000E+04
(PID.TID 0000.0001) %MON seaice_uice_max              =   6.3008848835869E-01
(PID.TID 0000.0001) %MON seaice_uice_min              =  -6.1022072721302E-01
(PID.TID 0000.0001) %MON seaice_uice_mean             =  -2.8147882518391E-04
(PID.TID 0000.0001) %MON seaice_uice_sd               =   1.4269827788929E-01
(PID.TID 0000.0001) %MON seaice_uice_del2             =   2.0193961010105E-04
(PID.TID 0000.0001) %MON seaice_vice_max              =   8.1798264911106E-01
(PID.TID 0000.0001) %MON seaice_vice_min              =  -9.1033716579720E-01
(PID.TID 0000.0001) %MON seaice_vice_mean             =  -1.8208729174376E-02
(PID.TID 0000.0001) %MON seaice_vice_sd               =   1.3217962887859E-01
(PID.TID 0000.0001) %MON seaice_vice_del2             =   1.7318865278901E-04
(PID.TID 0000.0001) %MON seaice_area_max              =   1.0000000000000E+00
(PID.TID 0000.0001) %MON seaice_area_min              =   0.0000000000000E+00
(PID.TID 0000.0001) %MON seaice_area_mean             =   7.1343522904513E-02
(PID.TID 0000.0001) %MON seaice_area_sd               =   2.3702856939296E-01
(PID.TID 0000.0001) %MON seaice_area_del2             =   3.8126357884505E-04
(PID.TID 0000.0001) %MON seaice_heff_max              =   2.5101324952585E+01
(PID.TID 0000.0001) %MON seaice_heff_min              =   0.0000000000000E+00
(PID.TID 0000.0001) %MON seaice_heff_mean             =   2.1708409755961E-01
(PID.TID 0000.0001) %MON seaice_heff_sd               =   1.0634249761829E+00
(PID.TID 0000.0001) %MON seaice_heff_del2             =   3.1392671819140E-03
(PID.TID 0000.0001) %MON seaice_hsnow_max             =   8.2904807188698E+00
(PID.TID 0000.0001) %MON seaice_hsnow_min             =   0.0000000000000E+00
(PID.TID 0000.0001) %MON seaice_hsnow_mean            =   2.4597619044018E-02
(PID.TID 0000.0001) %MON seaice_hsnow_sd              =   1.5289743538533E-01
(PID.TID 0000.0001) %MON seaice_hsnow_del2            =   9.9498575644253E-04
(PID.TID 0000.0001) // =======================================================
(PID.TID 0000.0001) // End MONITOR SEAICE statistics
(PID.TID 0000.0001) // =======================================================
 Computing Diagnostic #     86  oceQnet      Counter:       4   Parms: SM      U1      
 Computing Diagnostic #     87  oceQsw       Counter:       4   Parms: SM      U1      
 Computing Diagnostic #     84  oceFWflx     Counter:       4   Parms: SM      U1      
 Computing Diagnostic #     85  oceSflux     Counter:       4   Parms: SM      U1      
 Computing Diagnostic #     80  oceTAUX      Counter:       4   Parms: UU      U1      
           Vector  Mate for  oceTAUX      Diagnostic #     81  oceTAUY  exists 
 Computing Diagnostic #     81  oceTAUY      Counter:       4   Parms: VV      U1      
           Vector  Mate for  oceTAUY      Diagnostic #     80  oceTAUX  exists 
 Computing Diagnostic #     26  THETA        Counter:       4   Parms: SMR     MR      
 Computing Diagnostic #     27  SALT         Counter:       4   Parms: SMR     MR      
 Computing Diagnostic #     30  UVEL         Counter:       4   Parms: UUR     MR      
           Vector  Mate for  UVEL         Diagnostic #     31  VVEL     exists 
 Computing Diagnostic #     31  VVEL         Counter:       4   Parms: VVR     MR      
           Vector  Mate for  VVEL         Diagnostic #     30  UVEL     exists 
 Computing Diagnostic #    214  SIarea       Counter:       4   Parms: SM      M1      
 Computing Diagnostic #    217  SIheff       Counter:       4   Parms: SM      M1      
 Computing Diagnostic #    219  SIhsnow      Counter:       4   Parms: SM      M1      
 Computing Diagnostic #     83  sIceLoad     Counter:       4   Parms: SM      U1      
 Computing Diagnostic #    223  SIuice       Counter:       4   Parms: UU      M1      
           Vector  Mate for  SIuice       Diagnostic #    224  SIvice   exists 
 Computing Diagnostic #    224  SIvice       Counter:       4   Parms: VV      M1      
           Vector  Mate for  SIvice       Diagnostic #    223  SIuice   exists 
 Computing Diagnostic #    225  SItaux       Counter:       4   Parms: UU      U1      
           Vector  Mate for  SItaux       Diagnostic #    226  SItauy   exists 
 Computing Diagnostic #    226  SItauy       Counter:       4   Parms: VV      U1      
           Vector  Mate for  SItauy       Diagnostic #    225  SItaux   exists 
 Computing Diagnostic #    285  SIareaN      Counter:       4   Parms: SM      MX      
 Computing Diagnostic #    284  SIheffN      Counter:       4   Parms: SM      MX      
 Computing Diagnostic #    286  SIhsnowN     Counter:       4   Parms: SM      MX      
 Compute Stats, Diag. #    214  SIarea    vol(   0 ): 3.580E+14  Parms: SM      M1      
 Compute Stats, Diag. #    217  SIheff    vol(   0 ): 3.580E+14  Parms: SM      M1      
 Compute Stats, Diag. #    219  SIhsnow   vol(   0 ): 3.580E+14  Parms: SM      M1      
 Compute Stats, Diag. #     83  sIceLoad  vol(   0 ): 3.580E+14  Parms: SM      U1      
 Compute Stats, Diag. #    223  SIuice    vol(   0 ): 3.513E+14  Parms: UU      M1      
 Compute Stats, Diag. #    224  SIvice    vol(   0 ): 3.508E+14  Parms: VV      M1      
 Compute Stats, Diag. #    225  SItaux    vol(   0 ): 3.513E+14  Parms: UU      U1      
 Compute Stats, Diag. #    226  SItauy    vol(   0 ): 3.508E+14  Parms: VV      U1      
 SEAICE_LSR: Residual Initial ipass,Uice,Vice=    1  7.99123141E-03  7.13012021E-03
 SEAICE_LSR (ipass=   1) iters,dU,Resid=  1500  2.35223123E-08  5.56811087E-07
 SEAICE_LSR (ipass=   1) iters,dV,Resid=  1500  3.28938165E-09  4.25132215E-08
 SEAICE_LSR: Residual Initial ipass,Uice,Vice=    2  7.25923487E-03  6.25577649E-03
 SEAICE_LSR (ipass=   2) iters,dU,Resid=  1500  1.32157113E-08  3.17104551E-07
 SEAICE_LSR (ipass=   2) iters,dV,Resid=  1500  1.73532286E-09  2.23154707E-08
 cg2d: Sum(rhs),rhsMax =   8.14739567097718E+01  2.98891007341774E-01
 Compute Stats, Diag. #    214  SIarea    vol(   0 ): 3.580E+14  Parms: SM      M1      
 Compute Stats, Diag. #    217  SIheff    vol(   0 ): 3.580E+14  Parms: SM      M1      
 Compute Stats, Diag. #    219  SIhsnow   vol(   0 ): 3.580E+14  Parms: SM      M1      
 Compute Stats, Diag. #     83  sIceLoad  vol(   0 ): 3.580E+14  Parms: SM      U1      
 Compute Stats, Diag. #    223  SIuice    vol(   0 ): 3.513E+14  Parms: UU      M1      
 Compute Stats, Diag. #    224  SIvice    vol(   0 ): 3.508E+14  Parms: VV      M1      
 Compute Stats, Diag. #    225  SItaux    vol(   0 ): 3.513E+14  Parms: UU      U1      
 Compute Stats, Diag. #    226  SItauy    vol(   0 ): 3.508E+14  Parms: VV      U1      
 cg2d: Sum(rhs),rhsMax =   8.14856060436309E+01  2.99191131578278E-01
 Compute Stats, Diag. #    214  SIarea    vol(   0 ): 3.580E+14  Parms: SM      M1      
 Compute Stats, Diag. #    217  SIheff    vol(   0 ): 3.580E+14  Parms: SM      M1      
 Compute Stats, Diag. #    219  SIhsnow   vol(   0 ): 3.580E+14  Parms: SM      M1      
 Compute Stats, Diag. #     83  sIceLoad  vol(   0 ): 3.580E+14  Parms: SM      U1      
 Compute Stats, Diag. #    223  SIuice    vol(   0 ): 3.513E+14  Parms: UU      M1      
 Compute Stats, Diag. #    224  SIvice    vol(   0 ): 3.508E+14  Parms: VV      M1      
 Compute Stats, Diag. #    225  SItaux    vol(   0 ): 3.513E+14  Parms: UU      U1      
 Compute Stats, Diag. #    226  SItauy    vol(   0 ): 3.508E+14  Parms: VV      U1      
 cg2d: Sum(rhs),rhsMax =   8.14922139038871E+01  2.99555009597633E-01
 Compute Stats, Diag. #    214  SIarea    vol(   0 ): 3.580E+14  Parms: SM      M1      
 Compute Stats, Diag. #    217  SIheff    vol(   0 ): 3.580E+14  Parms: SM      M1      
 Compute Stats, Diag. #    219  SIhsnow   vol(   0 ): 3.580E+14  Parms: SM      M1      
 Compute Stats, Diag. #     83  sIceLoad  vol(   0 ): 3.580E+14  Parms: SM      U1      
 Compute Stats, Diag. #    223  SIuice    vol(   0 ): 3.513E+14  Parms: UU      M1      
 Compute Stats, Diag. #    224  SIvice    vol(   0 ): 3.508E+14  Parms: VV      M1      
 Compute Stats, Diag. #    225  SItaux    vol(   0 ): 3.513E+14  Parms: UU      U1      
 Compute Stats, Diag. #    226  SItauy    vol(   0 ): 3.508E+14  Parms: VV      U1      
 cg2d: Sum(rhs),rhsMax =   8.14868297733251E+01  2.99969576365502E-01
 Computing Diagnostic #     86  oceQnet      Counter:       4   Parms: SM      U1      
 Computing Diagnostic #     87  oceQsw       Counter:       4   Parms: SM      U1      
 Computing Diagnostic #     84  oceFWflx     Counter:       4   Parms: SM      U1      
 Computing Diagnostic #     85  oceSflux     Counter:       4   Parms: SM      U1      
 Computing Diagnostic #     80  oceTAUX      Counter:       4   Parms: UU      U1      
           Vector  Mate for  oceTAUX      Diagnostic #     81  oceTAUY  exists 
 Computing Diagnostic #     81  oceTAUY      Counter:       4   Parms: VV      U1      
           Vector  Mate for  oceTAUY      Diagnostic #     80  oceTAUX  exists 
 Computing Diagnostic #     26  THETA        Counter:       4   Parms: SMR     MR      
 Computing Diagnostic #     27  SALT         Counter:       4   Parms: SMR     MR      
 Computing Diagnostic #     30  UVEL         Counter:       4   Parms: UUR     MR      
           Vector  Mate for  UVEL         Diagnostic #     31  VVEL     exists 
 Computing Diagnostic #     31  VVEL         Counter:       4   Parms: VVR     MR      
           Vector  Mate for  VVEL         Diagnostic #     30  UVEL     exists 
 Computing Diagnostic #    214  SIarea       Counter:       4   Parms: SM      M1      
 Computing Diagnostic #    217  SIheff       Counter:       4   Parms: SM      M1      
 Computing Diagnostic #    219  SIhsnow      Counter:       4   Parms: SM      M1      
 Computing Diagnostic #     83  sIceLoad     Counter:       4   Parms: SM      U1      
 Computing Diagnostic #    223  SIuice       Counter:       4   Parms: UU      M1      
           Vector  Mate for  SIuice       Diagnostic #    224  SIvice   exists 
 Computing Diagnostic #    224  SIvice       Counter:       4   Parms: VV      M1      
           Vector  Mate for  SIvice       Diagnostic #    223  SIuice   exists 
 Computing Diagnostic #    225  SItaux       Counter:       4   Parms: UU      U1      
           Vector  Mate for  SItaux       Diagnostic #    226  SItauy   exists 
 Computing Diagnostic #    226  SItauy       Counter:       4   Parms: VV      U1      
           Vector  Mate for  SItauy       Diagnostic #    225  SItaux   exists 
 Computing Diagnostic #    285  SIareaN      Counter:       4   Parms: SM      MX      
 Computing Diagnostic #    284  SIheffN      Counter:       4   Parms: SM      MX      
 Computing Diagnostic #    286  SIhsnowN     Counter:       4   Parms: SM      MX      
 Compute Stats, Diag. #    214  SIarea    vol(   0 ): 3.580E+14  Parms: SM      M1      
 Compute Stats, Diag. #    217  SIheff    vol(   0 ): 3.580E+14  Parms: SM      M1      
 Compute Stats, Diag. #    219  SIhsnow   vol(   0 ): 3.580E+14  Parms: SM      M1      
 Compute Stats, Diag. #     83  sIceLoad  vol(   0 ): 3.580E+14  Parms: SM      U1      
 Compute Stats, Diag. #    223  SIuice    vol(   0 ): 3.513E+14  Parms: UU      M1      
 Compute Stats, Diag. #    224  SIvice    vol(   0 ): 3.508E+14  Parms: VV      M1      
 Compute Stats, Diag. #    225  SItaux    vol(   0 ): 3.513E+14  Parms: UU      U1      
 Compute Stats, Diag. #    226  SItauy    vol(   0 ): 3.508E+14  Parms: VV      U1      
 cg2d: Sum(rhs),rhsMax =   8.14743862012350E+01  3.00419498989927E-01
 Compute Stats, Diag. #    214  SIarea    vol(   0 ): 3.580E+14  Parms: SM      M1      
 Compute Stats, Diag. #    217  SIheff    vol(   0 ): 3.580E+14  Parms: SM      M1      
 Compute Stats, Diag. #    219  SIhsnow   vol(   0 ): 3.580E+14  Parms: SM      M1      
 Compute Stats, Diag. #     83  sIceLoad  vol(   0 ): 3.580E+14  Parms: SM      U1      
 Compute Stats, Diag. #    223  SIuice    vol(   0 ): 3.513E+14  Parms: UU      M1      
 Compute Stats, Diag. #    224  SIvice    vol(   0 ): 3.508E+14  Parms: VV      M1      
 Compute Stats, Diag. #    225  SItaux    vol(   0 ): 3.513E+14  Parms: UU      U1      
 Compute Stats, Diag. #    226  SItauy    vol(   0 ): 3.508E+14  Parms: VV      U1      
 cg2d: Sum(rhs),rhsMax =   8.14554048033903E+01  3.00888776262988E-01
 Compute Stats, Diag. #    214  SIarea    vol(   0 ): 3.580E+14  Parms: SM      M1      
 Compute Stats, Diag. #    217  SIheff    vol(   0 ): 3.580E+14  Parms: SM      M1      
 Compute Stats, Diag. #    219  SIhsnow   vol(   0 ): 3.580E+14  Parms: SM      M1      
 Compute Stats, Diag. #     83  sIceLoad  vol(   0 ): 3.580E+14  Parms: SM      U1      
 Compute Stats, Diag. #    223  SIuice    vol(   0 ): 3.513E+14  Parms: UU      M1      
 Compute Stats, Diag. #    224  SIvice    vol(   0 ): 3.508E+14  Parms: VV      M1      
 Compute Stats, Diag. #    225  SItaux    vol(   0 ): 3.513E+14  Parms: UU      U1      
 Compute Stats, Diag. #    226  SItauy    vol(   0 ): 3.508E+14  Parms: VV      U1      
 cg2d: Sum(rhs),rhsMax =   8.14321480484329E+01  3.01361614631238E-01
 Compute Stats, Diag. #    214  SIarea    vol(   0 ): 3.580E+14  Parms: SM      M1      
 Compute Stats, Diag. #    217  SIheff    vol(   0 ): 3.580E+14  Parms: SM      M1      
 Compute Stats, Diag. #    219  SIhsnow   vol(   0 ): 3.580E+14  Parms: SM      M1      
 Compute Stats, Diag. #     83  sIceLoad  vol(   0 ): 3.580E+14  Parms: SM      U1      
 Compute Stats, Diag. #    223  SIuice    vol(   0 ): 3.513E+14  Parms: UU      M1      
 Compute Stats, Diag. #    224  SIvice    vol(   0 ): 3.508E+14  Parms: VV      M1      
 Compute Stats, Diag. #    225  SItaux    vol(   0 ): 3.513E+14  Parms: UU      U1      
 Compute Stats, Diag. #    226  SItauy    vol(   0 ): 3.508E+14  Parms: VV      U1      
 cg2d: Sum(rhs),rhsMax =   8.14042620934514E+01  3.01823254758411E-01
(PID.TID 0000.0001)      cg2d_init_res =   3.22662725916940E-01
(PID.TID 0000.0001)      cg2d_iters(min,last) =      -1      32
(PID.TID 0000.0001)      cg2d_last_res =   2.28250591262746E-05
(PID.TID 0000.0001) // =======================================================
(PID.TID 0000.0001) // Begin MONITOR dynamic field statistics
(PID.TID 0000.0001) // =======================================================
(PID.TID 0000.0001) %MON time_tsnumber                =                    72
(PID.TID 0000.0001) %MON time_secondsf                =   6.4800000000000E+04
(PID.TID 0000.0001) %MON dynstat_eta_max              =   1.0821487224244E+00
(PID.TID 0000.0001) %MON dynstat_eta_min              =  -2.9534922410968E+00
(PID.TID 0000.0001) %MON dynstat_eta_mean             =  -2.5750767979784E-03
(PID.TID 0000.0001) %MON dynstat_eta_sd               =   6.9760406812629E-01
(PID.TID 0000.0001) %MON dynstat_eta_del2             =   7.9876303436329E-05
(PID.TID 0000.0001) %MON dynstat_uvel_max             =   9.1352254925502E-01
(PID.TID 0000.0001) %MON dynstat_uvel_min             =  -1.0055899867139E+00
(PID.TID 0000.0001) %MON dynstat_uvel_mean            =   1.4165757606619E-03
(PID.TID 0000.0001) %MON dynstat_uvel_sd              =   2.1451289867615E-02
(PID.TID 0000.0001) %MON dynstat_uvel_del2            =   1.2845553100567E-05
(PID.TID 0000.0001) %MON dynstat_vvel_max             =   1.0022744342223E+00
(PID.TID 0000.0001) %MON dynstat_vvel_min             =  -9.1619582938989E-01
(PID.TID 0000.0001) %MON dynstat_vvel_mean            =   1.6763789389303E-03
(PID.TID 0000.0001) %MON dynstat_vvel_sd              =   2.2746982863130E-02
(PID.TID 0000.0001) %MON dynstat_vvel_del2            =   1.2980060967914E-05
(PID.TID 0000.0001) %MON dynstat_wvel_max             =   4.0758671932408E-03
(PID.TID 0000.0001) %MON dynstat_wvel_min             =  -2.4809879483002E-03
(PID.TID 0000.0001) %MON dynstat_wvel_mean            =   5.5594035392015E-08
(PID.TID 0000.0001) %MON dynstat_wvel_sd              =   3.2728051371969E-05
(PID.TID 0000.0001) %MON dynstat_wvel_del2            =   5.2134576057403E-08
(PID.TID 0000.0001) %MON dynstat_theta_max            =   3.2633355960547E+01
(PID.TID 0000.0001) %MON dynstat_theta_min            =  -2.0419403358433E+00
(PID.TID 0000.0001) %MON dynstat_theta_mean           =   3.5905118811973E+00
(PID.TID 0000.0001) %MON dynstat_theta_sd             =   4.4362156818657E+00
(PID.TID 0000.0001) %MON dynstat_theta_del2           =   1.0442599001037E-04
(PID.TID 0000.0001) %MON dynstat_salt_max             =   4.0711520901198E+01
(PID.TID 0000.0001) %MON dynstat_salt_min             =   1.8904596308004E+01
(PID.TID 0000.0001) %MON dynstat_salt_mean            =   3.4725624295057E+01
(PID.TID 0000.0001) %MON dynstat_salt_sd              =   3.7713179874627E-01
(PID.TID 0000.0001) %MON dynstat_salt_del2            =   2.8964190369179E-05
(PID.TID 0000.0001) %MON dynstat_sst_max              =   3.2584912926973E+01
(PID.TID 0000.0001) %MON dynstat_sst_min              =  -1.8866054483547E+00
(PID.TID 0000.0001) %MON dynstat_sst_mean             =   1.8480707551977E+01
(PID.TID 0000.0001) %MON dynstat_sst_sd               =   1.0106656476239E+01
(PID.TID 0000.0001) %MON dynstat_sst_del2             =   8.4345578193463E-04
(PID.TID 0000.0001) %MON dynstat_sss_max              =   3.9398343305801E+01
(PID.TID 0000.0001) %MON dynstat_sss_min              =   1.8904596308004E+01
(PID.TID 0000.0001) %MON dynstat_sss_mean             =   3.4685622273015E+01
(PID.TID 0000.0001) %MON dynstat_sss_sd               =   1.1261513661188E+00
(PID.TID 0000.0001) %MON dynstat_sss_del2             =   6.6108254953150E-04
(PID.TID 0000.0001) %MON forcing_qnet_max             =   8.3708172607422E+02
(PID.TID 0000.0001) %MON forcing_qnet_min             =  -1.0957786865234E+03
(PID.TID 0000.0001) %MON forcing_qnet_mean            =   1.2525360219894E+01
(PID.TID 0000.0001) %MON forcing_qnet_sd              =   2.0462543357211E+02
(PID.TID 0000.0001) %MON forcing_qnet_del2            =   3.5892801274851E-01
(PID.TID 0000.0001) %MON forcing_qsw_max              =   0.0000000000000E+00
(PID.TID 0000.0001) %MON forcing_qsw_min              =  -1.0951874259733E+02
(PID.TID 0000.0001) %MON forcing_qsw_mean             =  -1.7121169713401E+01
(PID.TID 0000.0001) %MON forcing_qsw_sd               =   2.9004447577296E+01
(PID.TID 0000.0001) %MON forcing_qsw_del2             =   2.1675061625878E-02
(PID.TID 0000.0001) %MON forcing_empmr_max            =   2.2573601454496E-03
(PID.TID 0000.0001) %MON forcing_empmr_min            =  -9.8321408033371E-02
(PID.TID 0000.0001) %MON forcing_empmr_mean           =  -1.0085592784754E-06
(PID.TID 0000.0001) %MON forcing_empmr_sd             =   3.9376837347347E-04
(PID.TID 0000.0001) %MON forcing_empmr_del2           =   4.2277057698757E-06
(PID.TID 0000.0001) %MON forcing_fu_max               =   9.7822193217388E-01
(PID.TID 0000.0001) %MON forcing_fu_min               =  -8.3490935052129E-01
(PID.TID 0000.0001) %MON forcing_fu_mean              =   9.9499122278800E-03
(PID.TID 0000.0001) %MON forcing_fu_sd                =   1.0552575923150E-01
(PID.TID 0000.0001) %MON forcing_fu_del2              =   1.4980837268604E-04
(PID.TID 0000.0001) %MON forcing_fv_max               =   9.2019910852200E-01
(PID.TID 0000.0001) %MON forcing_fv_min               =  -7.4707409001667E-01
(PID.TID 0000.0001) %MON forcing_fv_mean              =  -7.5291151222337E-03
(PID.TID 0000.0001) %MON forcing_fv_sd                =   1.0342038368532E-01
(PID.TID 0000.0001) %MON forcing_fv_del2              =   1.2892321656954E-04
(PID.TID 0000.0001) %MON trAdv_CFL_u_max              =   2.2100031596729E-02
(PID.TID 0000.0001) %MON trAdv_CFL_v_max              =   1.8885318826990E-02
(PID.TID 0000.0001) %MON trAdv_CFL_w_max              =   9.0238574125867E-02
(PID.TID 0000.0001) %MON advcfl_uvel_max              =   1.9231791976561E-02
(PID.TID 0000.0001) %MON advcfl_vvel_max              =   1.7791277433686E-02
(PID.TID 0000.0001) %MON advcfl_wvel_max              =   9.3929405766533E-02
(PID.TID 0000.0001) %MON advcfl_W_hf_max              =   9.9166365045392E-02
(PID.TID 0000.0001) %MON pe_b_mean                    =   6.4015111287146E-04
(PID.TID 0000.0001) %MON ke_max                       =   6.2121139476931E-01
(PID.TID 0000.0001) %MON ke_mean                      =   4.7370766627673E-04
(PID.TID 0000.0001) %MON ke_vol                       =   1.3349969547103E+18
(PID.TID 0000.0001) %MON vort_r_min                   =  -2.8139756114323E-05
(PID.TID 0000.0001) %MON vort_r_max                   =   3.5495743308176E-05
(PID.TID 0000.0001) %MON vort_a_mean                  =  -1.9727864647440E-05
(PID.TID 0000.0001) %MON vort_a_sd                    =   7.4543308423571E-05
(PID.TID 0000.0001) %MON vort_p_mean                  =  -2.1760544859339E-05
(PID.TID 0000.0001) %MON vort_p_sd                    =   9.7245811809978E-05
(PID.TID 0000.0001) %MON surfExpan_theta_mean         =  -2.3551333601157E-06
(PID.TID 0000.0001) %MON surfExpan_salt_mean          =  -1.3977455080111E-07
(PID.TID 0000.0001) // =======================================================
(PID.TID 0000.0001) // End MONITOR dynamic field statistics
(PID.TID 0000.0001) // =======================================================
(PID.TID 0000.0001) // =======================================================
(PID.TID 0000.0001) // Begin MONITOR SEAICE statistics
(PID.TID 0000.0001) // =======================================================
(PID.TID 0000.0001) %MON seaice_tsnumber              =                    72
(PID.TID 0000.0001) %MON seaice_time_sec              =   6.4800000000000E+04
(PID.TID 0000.0001) %MON seaice_uice_max              =   6.6240371662260E-01
(PID.TID 0000.0001) %MON seaice_uice_min              =  -6.1246968417094E-01
(PID.TID 0000.0001) %MON seaice_uice_mean             =   1.1885842538977E-04
(PID.TID 0000.0001) %MON seaice_uice_sd               =   1.4281743295180E-01
(PID.TID 0000.0001) %MON seaice_uice_del2             =   2.0121120245111E-04
(PID.TID 0000.0001) %MON seaice_vice_max              =   8.4105545201238E-01
(PID.TID 0000.0001) %MON seaice_vice_min              =  -9.1659702418380E-01
(PID.TID 0000.0001) %MON seaice_vice_mean             =  -1.9367656467835E-02
(PID.TID 0000.0001) %MON seaice_vice_sd               =   1.3101828340485E-01
(PID.TID 0000.0001) %MON seaice_vice_del2             =   1.7128941637833E-04
(PID.TID 0000.0001) %MON seaice_area_max              =   1.0000000000000E+00
(PID.TID 0000.0001) %MON seaice_area_min              =   0.0000000000000E+00
(PID.TID 0000.0001) %MON seaice_area_mean             =   7.1220183808559E-02
(PID.TID 0000.0001) %MON seaice_area_sd               =   2.3691294030017E-01
(PID.TID 0000.0001) %MON seaice_area_del2             =   3.7371751458070E-04
(PID.TID 0000.0001) %MON seaice_heff_max              =   2.5097398652137E+01
(PID.TID 0000.0001) %MON seaice_heff_min              =   0.0000000000000E+00
(PID.TID 0000.0001) %MON seaice_heff_mean             =   2.1708970363109E-01
(PID.TID 0000.0001) %MON seaice_heff_sd               =   1.0631975754986E+00
(PID.TID 0000.0001) %MON seaice_heff_del2             =   3.0830916246075E-03
(PID.TID 0000.0001) %MON seaice_hsnow_max             =   8.2891908033042E+00
(PID.TID 0000.0001) %MON seaice_hsnow_min             =   0.0000000000000E+00
(PID.TID 0000.0001) %MON seaice_hsnow_mean            =   2.4588414712766E-02
(PID.TID 0000.0001) %MON seaice_hsnow_sd              =   1.5249742743939E-01
(PID.TID 0000.0001) %MON seaice_hsnow_del2            =   9.7627270348279E-04
(PID.TID 0000.0001) // =======================================================
(PID.TID 0000.0001) // End MONITOR SEAICE statistics
(PID.TID 0000.0001) // =======================================================
 Computing Diagnostic #     86  oceQnet      Counter:       4   Parms: SM      U1      
 Computing Diagnostic #     87  oceQsw       Counter:       4   Parms: SM      U1      
 Computing Diagnostic #     84  oceFWflx     Counter:       4   Parms: SM      U1      
 Computing Diagnostic #     85  oceSflux     Counter:       4   Parms: SM      U1      
 Computing Diagnostic #     80  oceTAUX      Counter:       4   Parms: UU      U1      
           Vector  Mate for  oceTAUX      Diagnostic #     81  oceTAUY  exists 
 Computing Diagnostic #     81  oceTAUY      Counter:       4   Parms: VV      U1      
           Vector  Mate for  oceTAUY      Diagnostic #     80  oceTAUX  exists 
 Computing Diagnostic #     26  THETA        Counter:       4   Parms: SMR     MR      
 Computing Diagnostic #     27  SALT         Counter:       4   Parms: SMR     MR      
 Computing Diagnostic #     30  UVEL         Counter:       4   Parms: UUR     MR      
           Vector  Mate for  UVEL         Diagnostic #     31  VVEL     exists 
 Computing Diagnostic #     31  VVEL         Counter:       4   Parms: VVR     MR      
           Vector  Mate for  VVEL         Diagnostic #     30  UVEL     exists 
 Computing Diagnostic #    214  SIarea       Counter:       4   Parms: SM      M1      
 Computing Diagnostic #    217  SIheff       Counter:       4   Parms: SM      M1      
 Computing Diagnostic #    219  SIhsnow      Counter:       4   Parms: SM      M1      
 Computing Diagnostic #     83  sIceLoad     Counter:       4   Parms: SM      U1      
 Computing Diagnostic #    223  SIuice       Counter:       4   Parms: UU      M1      
           Vector  Mate for  SIuice       Diagnostic #    224  SIvice   exists 
 Computing Diagnostic #    224  SIvice       Counter:       4   Parms: VV      M1      
           Vector  Mate for  SIvice       Diagnostic #    223  SIuice   exists 
 Computing Diagnostic #    225  SItaux       Counter:       4   Parms: UU      U1      
           Vector  Mate for  SItaux       Diagnostic #    226  SItauy   exists 
 Computing Diagnostic #    226  SItauy       Counter:       4   Parms: VV      U1      
           Vector  Mate for  SItauy       Diagnostic #    225  SItaux   exists 
 Computing Diagnostic #    285  SIareaN      Counter:       4   Parms: SM      MX      
 Computing Diagnostic #    284  SIheffN      Counter:       4   Parms: SM      MX      
 Computing Diagnostic #    286  SIhsnowN     Counter:       4   Parms: SM      MX      
 Compute Stats, Diag. #    214  SIarea    vol(   0 ): 3.580E+14  Parms: SM      M1      
 Compute Stats, Diag. #    217  SIheff    vol(   0 ): 3.580E+14  Parms: SM      M1      
 Compute Stats, Diag. #    219  SIhsnow   vol(   0 ): 3.580E+14  Parms: SM      M1      
 Compute Stats, Diag. #     83  sIceLoad  vol(   0 ): 3.580E+14  Parms: SM      U1      
 Compute Stats, Diag. #    223  SIuice    vol(   0 ): 3.513E+14  Parms: UU      M1      
 Compute Stats, Diag. #    224  SIvice    vol(   0 ): 3.508E+14  Parms: VV      M1      
 Compute Stats, Diag. #    225  SItaux    vol(   0 ): 3.513E+14  Parms: UU      U1      
 Compute Stats, Diag. #    226  SItauy    vol(   0 ): 3.508E+14  Parms: VV      U1      
 SEAICE_LSR: Residual Initial ipass,Uice,Vice=    1  8.71772396E-03  7.66724321E-03
 SEAICE_LSR (ipass=   1) iters,dU,Resid=  1500  9.59425621E-09  2.82054381E-07
 SEAICE_LSR (ipass=   1) iters,dV,Resid=  1500  1.69241982E-11  3.07803363E-09
 SEAICE_LSR: Residual Initial ipass,Uice,Vice=    2  7.75275493E-03  6.72157139E-03
 SEAICE_LSR (ipass=   2) iters,dU,Resid=  1500  5.97273764E-09  1.76955873E-07
 SEAICE_LSR (ipass=   2) iters,dV,Resid=  1500  1.00908171E-11  2.67021876E-09
 cg2d: Sum(rhs),rhsMax =   8.13675339600170E+01  3.02260640322671E-01
 Compute Stats, Diag. #    214  SIarea    vol(   0 ): 3.580E+14  Parms: SM      M1      
 Compute Stats, Diag. #    217  SIheff    vol(   0 ): 3.580E+14  Parms: SM      M1      
 Compute Stats, Diag. #    219  SIhsnow   vol(   0 ): 3.580E+14  Parms: SM      M1      
 Compute Stats, Diag. #     83  sIceLoad  vol(   0 ): 3.580E+14  Parms: SM      U1      
 Compute Stats, Diag. #    223  SIuice    vol(   0 ): 3.513E+14  Parms: UU      M1      
 Compute Stats, Diag. #    224  SIvice    vol(   0 ): 3.508E+14  Parms: VV      M1      
 Compute Stats, Diag. #    225  SItaux    vol(   0 ): 3.513E+14  Parms: UU      U1      
 Compute Stats, Diag. #    226  SItauy    vol(   0 ): 3.508E+14  Parms: VV      U1      
 cg2d: Sum(rhs),rhsMax =   8.13222822410251E+01  3.02662285100117E-01
 Compute Stats, Diag. #    214  SIarea    vol(   0 ): 3.580E+14  Parms: SM      M1      
 Compute Stats, Diag. #    217  SIheff    vol(   0 ): 3.580E+14  Parms: SM      M1      
 Compute Stats, Diag. #    219  SIhsnow   vol(   0 ): 3.580E+14  Parms: SM      M1      
 Compute Stats, Diag. #     83  sIceLoad  vol(   0 ): 3.580E+14  Parms: SM      U1      
 Compute Stats, Diag. #    223  SIuice    vol(   0 ): 3.513E+14  Parms: UU      M1      
 Compute Stats, Diag. #    224  SIvice    vol(   0 ): 3.508E+14  Parms: VV      M1      
 Compute Stats, Diag. #    225  SItaux    vol(   0 ): 3.513E+14  Parms: UU      U1      
 Compute Stats, Diag. #    226  SItauy    vol(   0 ): 3.508E+14  Parms: VV      U1      
 cg2d: Sum(rhs),rhsMax =   8.12769626842295E+01  3.03019153878828E-01
 Compute Stats, Diag. #    214  SIarea    vol(   0 ): 3.580E+14  Parms: SM      M1      
 Compute Stats, Diag. #    217  SIheff    vol(   0 ): 3.580E+14  Parms: SM      M1      
 Compute Stats, Diag. #    219  SIhsnow   vol(   0 ): 3.580E+14  Parms: SM      M1      
 Compute Stats, Diag. #     83  sIceLoad  vol(   0 ): 3.580E+14  Parms: SM      U1      
 Compute Stats, Diag. #    223  SIuice    vol(   0 ): 3.513E+14  Parms: UU      M1      
 Compute Stats, Diag. #    224  SIvice    vol(   0 ): 3.508E+14  Parms: VV      M1      
 Compute Stats, Diag. #    225  SItaux    vol(   0 ): 3.513E+14  Parms: UU      U1      
 Compute Stats, Diag. #    226  SItauy    vol(   0 ): 3.508E+14  Parms: VV      U1      
 cg2d: Sum(rhs),rhsMax =   8.12320478857503E+01  3.03324334716361E-01
 Computing Diagnostic #     86  oceQnet      Counter:       4   Parms: SM      U1      
 Computing Diagnostic #     87  oceQsw       Counter:       4   Parms: SM      U1      
 Computing Diagnostic #     84  oceFWflx     Counter:       4   Parms: SM      U1      
 Computing Diagnostic #     85  oceSflux     Counter:       4   Parms: SM      U1      
 Computing Diagnostic #     80  oceTAUX      Counter:       4   Parms: UU      U1      
           Vector  Mate for  oceTAUX      Diagnostic #     81  oceTAUY  exists 
 Computing Diagnostic #     81  oceTAUY      Counter:       4   Parms: VV      U1      
           Vector  Mate for  oceTAUY      Diagnostic #     80  oceTAUX  exists 
 Computing Diagnostic #     26  THETA        Counter:       4   Parms: SMR     MR      
 Computing Diagnostic #     27  SALT         Counter:       4   Parms: SMR     MR      
 Computing Diagnostic #     30  UVEL         Counter:       4   Parms: UUR     MR      
           Vector  Mate for  UVEL         Diagnostic #     31  VVEL     exists 
 Computing Diagnostic #     31  VVEL         Counter:       4   Parms: VVR     MR      
           Vector  Mate for  VVEL         Diagnostic #     30  UVEL     exists 
 Computing Diagnostic #    214  SIarea       Counter:       4   Parms: SM      M1      
 Computing Diagnostic #    217  SIheff       Counter:       4   Parms: SM      M1      
 Computing Diagnostic #    219  SIhsnow      Counter:       4   Parms: SM      M1      
 Computing Diagnostic #     83  sIceLoad     Counter:       4   Parms: SM      U1      
 Computing Diagnostic #    223  SIuice       Counter:       4   Parms: UU      M1      
           Vector  Mate for  SIuice       Diagnostic #    224  SIvice   exists 
 Computing Diagnostic #    224  SIvice       Counter:       4   Parms: VV      M1      
           Vector  Mate for  SIvice       Diagnostic #    223  SIuice   exists 
 Computing Diagnostic #    225  SItaux       Counter:       4   Parms: UU      U1      
           Vector  Mate for  SItaux       Diagnostic #    226  SItauy   exists 
 Computing Diagnostic #    226  SItauy       Counter:       4   Parms: VV      U1      
           Vector  Mate for  SItauy       Diagnostic #    225  SItaux   exists 
 Computing Diagnostic #    285  SIareaN      Counter:       4   Parms: SM      MX      
 Computing Diagnostic #    284  SIheffN      Counter:       4   Parms: SM      MX      
 Computing Diagnostic #    286  SIhsnowN     Counter:       4   Parms: SM      MX      
 Compute Stats, Diag. #    214  SIarea    vol(   0 ): 3.580E+14  Parms: SM      M1      
 Compute Stats, Diag. #    217  SIheff    vol(   0 ): 3.580E+14  Parms: SM      M1      
 Compute Stats, Diag. #    219  SIhsnow   vol(   0 ): 3.580E+14  Parms: SM      M1      
 Compute Stats, Diag. #     83  sIceLoad  vol(   0 ): 3.580E+14  Parms: SM      U1      
 Compute Stats, Diag. #    223  SIuice    vol(   0 ): 3.513E+14  Parms: UU      M1      
 Compute Stats, Diag. #    224  SIvice    vol(   0 ): 3.508E+14  Parms: VV      M1      
 Compute Stats, Diag. #    225  SItaux    vol(   0 ): 3.513E+14  Parms: UU      U1      
 Compute Stats, Diag. #    226  SItauy    vol(   0 ): 3.508E+14  Parms: VV      U1      
 cg2d: Sum(rhs),rhsMax =   8.11802384098014E+01  3.03572101057731E-01
 Compute Stats, Diag. #    214  SIarea    vol(   0 ): 3.580E+14  Parms: SM      M1      
 Compute Stats, Diag. #    217  SIheff    vol(   0 ): 3.580E+14  Parms: SM      M1      
 Compute Stats, Diag. #    219  SIhsnow   vol(   0 ): 3.580E+14  Parms: SM      M1      
 Compute Stats, Diag. #     83  sIceLoad  vol(   0 ): 3.580E+14  Parms: SM      U1      
 Compute Stats, Diag. #    223  SIuice    vol(   0 ): 3.513E+14  Parms: UU      M1      
 Compute Stats, Diag. #    224  SIvice    vol(   0 ): 3.508E+14  Parms: VV      M1      
 Compute Stats, Diag. #    225  SItaux    vol(   0 ): 3.513E+14  Parms: UU      U1      
 Compute Stats, Diag. #    226  SItauy    vol(   0 ): 3.508E+14  Parms: VV      U1      
 cg2d: Sum(rhs),rhsMax =   8.11210163035047E+01  3.03759143241127E-01
 Compute Stats, Diag. #    214  SIarea    vol(   0 ): 3.580E+14  Parms: SM      M1      
 Compute Stats, Diag. #    217  SIheff    vol(   0 ): 3.580E+14  Parms: SM      M1      
 Compute Stats, Diag. #    219  SIhsnow   vol(   0 ): 3.580E+14  Parms: SM      M1      
 Compute Stats, Diag. #     83  sIceLoad  vol(   0 ): 3.580E+14  Parms: SM      U1      
 Compute Stats, Diag. #    223  SIuice    vol(   0 ): 3.513E+14  Parms: UU      M1      
 Compute Stats, Diag. #    224  SIvice    vol(   0 ): 3.508E+14  Parms: VV      M1      
 Compute Stats, Diag. #    225  SItaux    vol(   0 ): 3.513E+14  Parms: UU      U1      
 Compute Stats, Diag. #    226  SItauy    vol(   0 ): 3.508E+14  Parms: VV      U1      
 cg2d: Sum(rhs),rhsMax =   8.10579482809489E+01  3.03883004086870E-01
 Compute Stats, Diag. #    214  SIarea    vol(   0 ): 3.580E+14  Parms: SM      M1      
 Compute Stats, Diag. #    217  SIheff    vol(   0 ): 3.580E+14  Parms: SM      M1      
 Compute Stats, Diag. #    219  SIhsnow   vol(   0 ): 3.580E+14  Parms: SM      M1      
 Compute Stats, Diag. #     83  sIceLoad  vol(   0 ): 3.580E+14  Parms: SM      U1      
 Compute Stats, Diag. #    223  SIuice    vol(   0 ): 3.513E+14  Parms: UU      M1      
 Compute Stats, Diag. #    224  SIvice    vol(   0 ): 3.508E+14  Parms: VV      M1      
 Compute Stats, Diag. #    225  SItaux    vol(   0 ): 3.513E+14  Parms: UU      U1      
 Compute Stats, Diag. #    226  SItauy    vol(   0 ): 3.508E+14  Parms: VV      U1      
 cg2d: Sum(rhs),rhsMax =   8.09874788982315E+01  3.03942377665477E-01
(PID.TID 0000.0001)      cg2d_init_res =   3.05041602814451E-01
(PID.TID 0000.0001)      cg2d_iters(min,last) =      -1      31
(PID.TID 0000.0001)      cg2d_last_res =   2.20403763817283E-05
(PID.TID 0000.0001) // =======================================================
(PID.TID 0000.0001) // Begin MONITOR dynamic field statistics
(PID.TID 0000.0001) // =======================================================
(PID.TID 0000.0001) %MON time_tsnumber                =                    80
(PID.TID 0000.0001) %MON time_secondsf                =   7.2000000000000E+04
(PID.TID 0000.0001) %MON dynstat_eta_max              =   1.0795097905236E+00
(PID.TID 0000.0001) %MON dynstat_eta_min              =  -2.8136532555412E+00
(PID.TID 0000.0001) %MON dynstat_eta_mean             =  -2.5618926143965E-03
(PID.TID 0000.0001) %MON dynstat_eta_sd               =   6.9290851179049E-01
(PID.TID 0000.0001) %MON dynstat_eta_del2             =   7.8132657368797E-05
(PID.TID 0000.0001) %MON dynstat_uvel_max             =   8.8676372594994E-01
(PID.TID 0000.0001) %MON dynstat_uvel_min             =  -9.6712893623265E-01
(PID.TID 0000.0001) %MON dynstat_uvel_mean            =   1.1671662499573E-03
(PID.TID 0000.0001) %MON dynstat_uvel_sd              =   2.1269770792186E-02
(PID.TID 0000.0001) %MON dynstat_uvel_del2            =   1.2803653213828E-05
(PID.TID 0000.0001) %MON dynstat_vvel_max             =   1.0030461158738E+00
(PID.TID 0000.0001) %MON dynstat_vvel_min             =  -9.1316775242307E-01
(PID.TID 0000.0001) %MON dynstat_vvel_mean            =   1.6880429392601E-03
(PID.TID 0000.0001) %MON dynstat_vvel_sd              =   2.2613753313291E-02
(PID.TID 0000.0001) %MON dynstat_vvel_del2            =   1.2734085459075E-05
(PID.TID 0000.0001) %MON dynstat_wvel_max             =   3.7139342312351E-03
(PID.TID 0000.0001) %MON dynstat_wvel_min             =  -2.3194260476548E-03
(PID.TID 0000.0001) %MON dynstat_wvel_mean            =   3.5719511666767E-08
(PID.TID 0000.0001) %MON dynstat_wvel_sd              =   3.2072954877243E-05
(PID.TID 0000.0001) %MON dynstat_wvel_del2            =   5.1018143770087E-08
(PID.TID 0000.0001) %MON dynstat_theta_max            =   3.2626206749542E+01
(PID.TID 0000.0001) %MON dynstat_theta_min            =  -2.0419260591211E+00
(PID.TID 0000.0001) %MON dynstat_theta_mean           =   3.5905090820487E+00
(PID.TID 0000.0001) %MON dynstat_theta_sd             =   4.4362043149414E+00
(PID.TID 0000.0001) %MON dynstat_theta_del2           =   1.0390430539668E-04
(PID.TID 0000.0001) %MON dynstat_salt_max             =   4.0711520507093E+01
(PID.TID 0000.0001) %MON dynstat_salt_min             =   1.8907802189505E+01
(PID.TID 0000.0001) %MON dynstat_salt_mean            =   3.4725619835304E+01
(PID.TID 0000.0001) %MON dynstat_salt_sd              =   3.7711407227022E-01
(PID.TID 0000.0001) %MON dynstat_salt_del2            =   2.9028162408536E-05
(PID.TID 0000.0001) %MON dynstat_sst_max              =   3.2561136766699E+01
(PID.TID 0000.0001) %MON dynstat_sst_min              =  -1.8803402807141E+00
(PID.TID 0000.0001) %MON dynstat_sst_mean             =   1.8483067583545E+01
(PID.TID 0000.0001) %MON dynstat_sst_sd               =   1.0109027878600E+01
(PID.TID 0000.0001) %MON dynstat_sst_del2             =   8.4029613665040E-04
(PID.TID 0000.0001) %MON dynstat_sss_max              =   3.9376225786650E+01
(PID.TID 0000.0001) %MON dynstat_sss_min              =   1.8907802189505E+01
(PID.TID 0000.0001) %MON dynstat_sss_mean             =   3.4686488680372E+01
(PID.TID 0000.0001) %MON dynstat_sss_sd               =   1.1273179714367E+00
(PID.TID 0000.0001) %MON dynstat_sss_del2             =   6.7439714167662E-04
(PID.TID 0000.0001) %MON forcing_qnet_max             =   1.4870909423828E+03
(PID.TID 0000.0001) %MON forcing_qnet_min             =  -8.1812644808585E+02
(PID.TID 0000.0001) %MON forcing_qnet_mean            =   2.4054351872120E+00
(PID.TID 0000.0001) %MON forcing_qnet_sd              =   1.9348582046950E+02
(PID.TID 0000.0001) %MON forcing_qnet_del2            =   3.5674974497211E-01
(PID.TID 0000.0001) %MON forcing_qsw_max              =   0.0000000000000E+00
(PID.TID 0000.0001) %MON forcing_qsw_min              =  -1.0967057980343E+02
(PID.TID 0000.0001) %MON forcing_qsw_mean             =  -1.8663211372521E+01
(PID.TID 0000.0001) %MON forcing_qsw_sd               =   2.8382641129048E+01
(PID.TID 0000.0001) %MON forcing_qsw_del2             =   2.1199447961328E-02
(PID.TID 0000.0001) %MON forcing_empmr_max            =   1.6676161903888E-03
(PID.TID 0000.0001) %MON forcing_empmr_min            =  -1.1711453646421E-01
(PID.TID 0000.0001) %MON forcing_empmr_mean           =  -2.5486862413836E-06
(PID.TID 0000.0001) %MON forcing_empmr_sd             =   4.5445838235289E-04
(PID.TID 0000.0001) %MON forcing_empmr_del2           =   4.7699108464822E-06
(PID.TID 0000.0001) %MON forcing_fu_max               =   9.0550239824490E-01
(PID.TID 0000.0001) %MON forcing_fu_min               =  -7.5137486964759E-01
(PID.TID 0000.0001) %MON forcing_fu_mean              =   9.7538090188797E-03
(PID.TID 0000.0001) %MON forcing_fu_sd                =   1.0383744748948E-01
(PID.TID 0000.0001) %MON forcing_fu_del2              =   1.4551784778943E-04
(PID.TID 0000.0001) %MON forcing_fv_max               =   9.7032977324407E-01
(PID.TID 0000.0001) %MON forcing_fv_min               =  -7.6274537767129E-01
(PID.TID 0000.0001) %MON forcing_fv_mean              =  -8.0575851063849E-03
(PID.TID 0000.0001) %MON forcing_fv_sd                =   1.0272095939402E-01
(PID.TID 0000.0001) %MON forcing_fv_del2              =   1.2608518292010E-04
(PID.TID 0000.0001) %MON trAdv_CFL_u_max              =   2.2740556986136E-02
(PID.TID 0000.0001) %MON trAdv_CFL_v_max              =   1.8319703400009E-02
(PID.TID 0000.0001) %MON trAdv_CFL_w_max              =   1.0409530390184E-01
(PID.TID 0000.0001) %MON advcfl_uvel_max              =   2.0889584621723E-02
(PID.TID 0000.0001) %MON advcfl_vvel_max              =   1.7804975480731E-02
(PID.TID 0000.0001) %MON advcfl_wvel_max              =   1.0837438657641E-01
(PID.TID 0000.0001) %MON advcfl_W_hf_max              =   1.1441592877531E-01
(PID.TID 0000.0001) %MON pe_b_mean                    =   6.3156245778669E-04
(PID.TID 0000.0001) %MON ke_max                       =   5.9476067823748E-01
(PID.TID 0000.0001) %MON ke_mean                      =   4.6676275700581E-04
(PID.TID 0000.0001) %MON ke_vol                       =   1.3349969589482E+18
(PID.TID 0000.0001) %MON vort_r_min                   =  -2.7048287630381E-05
(PID.TID 0000.0001) %MON vort_r_max                   =   3.7389607248893E-05
(PID.TID 0000.0001) %MON vort_a_mean                  =  -1.9727864647440E-05
(PID.TID 0000.0001) %MON vort_a_sd                    =   7.4543267304037E-05
(PID.TID 0000.0001) %MON vort_p_mean                  =  -2.1760544430018E-05
(PID.TID 0000.0001) %MON vort_p_sd                    =   9.7245912758256E-05
(PID.TID 0000.0001) %MON surfExpan_theta_mean         =  -2.0689946726079E-06
(PID.TID 0000.0001) %MON surfExpan_salt_mean          =  -8.5080870838926E-08
(PID.TID 0000.0001) // =======================================================
(PID.TID 0000.0001) // End MONITOR dynamic field statistics
(PID.TID 0000.0001) // =======================================================
(PID.TID 0000.0001) // =======================================================
(PID.TID 0000.0001) // Begin MONITOR SEAICE statistics
(PID.TID 0000.0001) // =======================================================
(PID.TID 0000.0001) %MON seaice_tsnumber              =                    80
(PID.TID 0000.0001) %MON seaice_time_sec              =   7.2000000000000E+04
(PID.TID 0000.0001) %MON seaice_uice_max              =   6.6315745743371E-01
(PID.TID 0000.0001) %MON seaice_uice_min              =  -6.3133582076916E-01
(PID.TID 0000.0001) %MON seaice_uice_mean             =  -3.2901509579609E-04
(PID.TID 0000.0001) %MON seaice_uice_sd               =   1.4187501099076E-01
(PID.TID 0000.0001) %MON seaice_uice_del2             =   1.9997262308870E-04
(PID.TID 0000.0001) %MON seaice_vice_max              =   8.5088798174425E-01
(PID.TID 0000.0001) %MON seaice_vice_min              =  -9.1357161183979E-01
(PID.TID 0000.0001) %MON seaice_vice_mean             =  -2.1183885017735E-02
(PID.TID 0000.0001) %MON seaice_vice_sd               =   1.3074740732742E-01
(PID.TID 0000.0001) %MON seaice_vice_del2             =   1.6955781353745E-04
(PID.TID 0000.0001) %MON seaice_area_max              =   1.0000000000000E+00
(PID.TID 0000.0001) %MON seaice_area_min              =   0.0000000000000E+00
(PID.TID 0000.0001) %MON seaice_area_mean             =   7.1115818586028E-02
(PID.TID 0000.0001) %MON seaice_area_sd               =   2.3679993617745E-01
(PID.TID 0000.0001) %MON seaice_area_del2             =   3.6716242610536E-04
(PID.TID 0000.0001) %MON seaice_heff_max              =   2.5093642151470E+01
(PID.TID 0000.0001) %MON seaice_heff_min              =   0.0000000000000E+00
(PID.TID 0000.0001) %MON seaice_heff_mean             =   2.1708394577992E-01
(PID.TID 0000.0001) %MON seaice_heff_sd               =   1.0629415791590E+00
(PID.TID 0000.0001) %MON seaice_heff_del2             =   3.0323473597919E-03
(PID.TID 0000.0001) %MON seaice_hsnow_max             =   8.2879557492719E+00
(PID.TID 0000.0001) %MON seaice_hsnow_min             =   0.0000000000000E+00
(PID.TID 0000.0001) %MON seaice_hsnow_mean            =   2.4579055335871E-02
(PID.TID 0000.0001) %MON seaice_hsnow_sd              =   1.5213863848719E-01
(PID.TID 0000.0001) %MON seaice_hsnow_del2            =   9.5922747017819E-04
(PID.TID 0000.0001) // =======================================================
(PID.TID 0000.0001) // End MONITOR SEAICE statistics
(PID.TID 0000.0001) // =======================================================
 Computing Diagnostic #     86  oceQnet      Counter:       4   Parms: SM      U1      
 Computing Diagnostic #     87  oceQsw       Counter:       4   Parms: SM      U1      
 Computing Diagnostic #     84  oceFWflx     Counter:       4   Parms: SM      U1      
 Computing Diagnostic #     85  oceSflux     Counter:       4   Parms: SM      U1      
 Computing Diagnostic #     80  oceTAUX      Counter:       4   Parms: UU      U1      
           Vector  Mate for  oceTAUX      Diagnostic #     81  oceTAUY  exists 
 Computing Diagnostic #     81  oceTAUY      Counter:       4   Parms: VV      U1      
           Vector  Mate for  oceTAUY      Diagnostic #     80  oceTAUX  exists 
 Computing Diagnostic #     26  THETA        Counter:       4   Parms: SMR     MR      
 Computing Diagnostic #     27  SALT         Counter:       4   Parms: SMR     MR      
 Computing Diagnostic #     30  UVEL         Counter:       4   Parms: UUR     MR      
           Vector  Mate for  UVEL         Diagnostic #     31  VVEL     exists 
 Computing Diagnostic #     31  VVEL         Counter:       4   Parms: VVR     MR      
           Vector  Mate for  VVEL         Diagnostic #     30  UVEL     exists 
 Computing Diagnostic #    214  SIarea       Counter:       4   Parms: SM      M1      
 Computing Diagnostic #    217  SIheff       Counter:       4   Parms: SM      M1      
 Computing Diagnostic #    219  SIhsnow      Counter:       4   Parms: SM      M1      
 Computing Diagnostic #     83  sIceLoad     Counter:       4   Parms: SM      U1      
 Computing Diagnostic #    223  SIuice       Counter:       4   Parms: UU      M1      
           Vector  Mate for  SIuice       Diagnostic #    224  SIvice   exists 
 Computing Diagnostic #    224  SIvice       Counter:       4   Parms: VV      M1      
           Vector  Mate for  SIvice       Diagnostic #    223  SIuice   exists 
 Computing Diagnostic #    225  SItaux       Counter:       4   Parms: UU      U1      
           Vector  Mate for  SItaux       Diagnostic #    226  SItauy   exists 
 Computing Diagnostic #    226  SItauy       Counter:       4   Parms: VV      U1      
           Vector  Mate for  SItauy       Diagnostic #    225  SItaux   exists 
 Computing Diagnostic #    285  SIareaN      Counter:       4   Parms: SM      MX      
 Computing Diagnostic #    284  SIheffN      Counter:       4   Parms: SM      MX      
 Computing Diagnostic #    286  SIhsnowN     Counter:       4   Parms: SM      MX      
 Compute Stats, Diag. #    214  SIarea    vol(   0 ): 3.580E+14  Parms: SM      M1      
 Compute Stats, Diag. #    217  SIheff    vol(   0 ): 3.580E+14  Parms: SM      M1      
 Compute Stats, Diag. #    219  SIhsnow   vol(   0 ): 3.580E+14  Parms: SM      M1      
 Compute Stats, Diag. #     83  sIceLoad  vol(   0 ): 3.580E+14  Parms: SM      U1      
 Compute Stats, Diag. #    223  SIuice    vol(   0 ): 3.513E+14  Parms: UU      M1      
 Compute Stats, Diag. #    224  SIvice    vol(   0 ): 3.508E+14  Parms: VV      M1      
 Compute Stats, Diag. #    225  SItaux    vol(   0 ): 3.513E+14  Parms: UU      U1      
 Compute Stats, Diag. #    226  SItauy    vol(   0 ): 3.508E+14  Parms: VV      U1      
 SEAICE_LSR: Residual Initial ipass,Uice,Vice=    1  7.45189608E-03  6.77464241E-03
 SEAICE_LSR (ipass=   1) iters,dU,Resid=  1500  4.17280776E-08  1.23248248E-06
 SEAICE_LSR (ipass=   1) iters,dV,Resid=  1500  7.71771258E-09  1.15579690E-08
 SEAICE_LSR: Residual Initial ipass,Uice,Vice=    2  6.31879822E-03  6.08732403E-03
 SEAICE_LSR (ipass=   2) iters,dU,Resid=  1500  2.23450466E-08  6.56367019E-07
 SEAICE_LSR (ipass=   2) iters,dV,Resid=  1500  2.80248730E-09  4.42422177E-09
 cg2d: Sum(rhs),rhsMax =   8.09250529027258E+01  3.03936860886967E-01
 Compute Stats, Diag. #    214  SIarea    vol(   0 ): 3.580E+14  Parms: SM      M1      
 Compute Stats, Diag. #    217  SIheff    vol(   0 ): 3.580E+14  Parms: SM      M1      
 Compute Stats, Diag. #    219  SIhsnow   vol(   0 ): 3.580E+14  Parms: SM      M1      
 Compute Stats, Diag. #     83  sIceLoad  vol(   0 ): 3.580E+14  Parms: SM      U1      
 Compute Stats, Diag. #    223  SIuice    vol(   0 ): 3.513E+14  Parms: UU      M1      
 Compute Stats, Diag. #    224  SIvice    vol(   0 ): 3.508E+14  Parms: VV      M1      
 Compute Stats, Diag. #    225  SItaux    vol(   0 ): 3.513E+14  Parms: UU      U1      
 Compute Stats, Diag. #    226  SItauy    vol(   0 ): 3.508E+14  Parms: VV      U1      
 cg2d: Sum(rhs),rhsMax =   8.08659400246875E+01  3.03865952097395E-01
 Compute Stats, Diag. #    214  SIarea    vol(   0 ): 3.580E+14  Parms: SM      M1      
 Compute Stats, Diag. #    217  SIheff    vol(   0 ): 3.580E+14  Parms: SM      M1      
 Compute Stats, Diag. #    219  SIhsnow   vol(   0 ): 3.580E+14  Parms: SM      M1      
 Compute Stats, Diag. #     83  sIceLoad  vol(   0 ): 3.580E+14  Parms: SM      U1      
 Compute Stats, Diag. #    223  SIuice    vol(   0 ): 3.513E+14  Parms: UU      M1      
 Compute Stats, Diag. #    224  SIvice    vol(   0 ): 3.508E+14  Parms: VV      M1      
 Compute Stats, Diag. #    225  SItaux    vol(   0 ): 3.513E+14  Parms: UU      U1      
 Compute Stats, Diag. #    226  SItauy    vol(   0 ): 3.508E+14  Parms: VV      U1      
 cg2d: Sum(rhs),rhsMax =   8.07992900243421E+01  3.03730283641121E-01
 Compute Stats, Diag. #    214  SIarea    vol(   0 ): 3.580E+14  Parms: SM      M1      
 Compute Stats, Diag. #    217  SIheff    vol(   0 ): 3.580E+14  Parms: SM      M1      
 Compute Stats, Diag. #    219  SIhsnow   vol(   0 ): 3.580E+14  Parms: SM      M1      
 Compute Stats, Diag. #     83  sIceLoad  vol(   0 ): 3.580E+14  Parms: SM      U1      
 Compute Stats, Diag. #    223  SIuice    vol(   0 ): 3.513E+14  Parms: UU      M1      
 Compute Stats, Diag. #    224  SIvice    vol(   0 ): 3.508E+14  Parms: VV      M1      
 Compute Stats, Diag. #    225  SItaux    vol(   0 ): 3.513E+14  Parms: UU      U1      
 Compute Stats, Diag. #    226  SItauy    vol(   0 ): 3.508E+14  Parms: VV      U1      
 cg2d: Sum(rhs),rhsMax =   8.07327298540797E+01  3.03715045442855E-01
 Computing Diagnostic #     86  oceQnet      Counter:       4   Parms: SM      U1      
 Computing Diagnostic #     87  oceQsw       Counter:       4   Parms: SM      U1      
 Computing Diagnostic #     84  oceFWflx     Counter:       4   Parms: SM      U1      
 Computing Diagnostic #     85  oceSflux     Counter:       4   Parms: SM      U1      
 Computing Diagnostic #     80  oceTAUX      Counter:       4   Parms: UU      U1      
           Vector  Mate for  oceTAUX      Diagnostic #     81  oceTAUY  exists 
 Computing Diagnostic #     81  oceTAUY      Counter:       4   Parms: VV      U1      
           Vector  Mate for  oceTAUY      Diagnostic #     80  oceTAUX  exists 
 Computing Diagnostic #     26  THETA        Counter:       4   Parms: SMR     MR      
 Computing Diagnostic #     27  SALT         Counter:       4   Parms: SMR     MR      
 Computing Diagnostic #     30  UVEL         Counter:       4   Parms: UUR     MR      
           Vector  Mate for  UVEL         Diagnostic #     31  VVEL     exists 
 Computing Diagnostic #     31  VVEL         Counter:       4   Parms: VVR     MR      
           Vector  Mate for  VVEL         Diagnostic #     30  UVEL     exists 
 Computing Diagnostic #    214  SIarea       Counter:       4   Parms: SM      M1      
 Computing Diagnostic #    217  SIheff       Counter:       4   Parms: SM      M1      
 Computing Diagnostic #    219  SIhsnow      Counter:       4   Parms: SM      M1      
 Computing Diagnostic #     83  sIceLoad     Counter:       4   Parms: SM      U1      
 Computing Diagnostic #    223  SIuice       Counter:       4   Parms: UU      M1      
           Vector  Mate for  SIuice       Diagnostic #    224  SIvice   exists 
 Computing Diagnostic #    224  SIvice       Counter:       4   Parms: VV      M1      
           Vector  Mate for  SIvice       Diagnostic #    223  SIuice   exists 
 Computing Diagnostic #    225  SItaux       Counter:       4   Parms: UU      U1      
           Vector  Mate for  SItaux       Diagnostic #    226  SItauy   exists 
 Computing Diagnostic #    226  SItauy       Counter:       4   Parms: VV      U1      
           Vector  Mate for  SItauy       Diagnostic #    225  SItaux   exists 
 Computing Diagnostic #    285  SIareaN      Counter:       4   Parms: SM      MX      
 Computing Diagnostic #    284  SIheffN      Counter:       4   Parms: SM      MX      
 Computing Diagnostic #    286  SIhsnowN     Counter:       4   Parms: SM      MX      
 Compute Stats, Diag. #    214  SIarea    vol(   0 ): 3.580E+14  Parms: SM      M1      
 Compute Stats, Diag. #    217  SIheff    vol(   0 ): 3.580E+14  Parms: SM      M1      
 Compute Stats, Diag. #    219  SIhsnow   vol(   0 ): 3.580E+14  Parms: SM      M1      
 Compute Stats, Diag. #     83  sIceLoad  vol(   0 ): 3.580E+14  Parms: SM      U1      
 Compute Stats, Diag. #    223  SIuice    vol(   0 ): 3.513E+14  Parms: UU      M1      
 Compute Stats, Diag. #    224  SIvice    vol(   0 ): 3.508E+14  Parms: VV      M1      
 Compute Stats, Diag. #    225  SItaux    vol(   0 ): 3.513E+14  Parms: UU      U1      
 Compute Stats, Diag. #    226  SItauy    vol(   0 ): 3.508E+14  Parms: VV      U1      
 cg2d: Sum(rhs),rhsMax =   8.06578478075547E+01  3.03640130601745E-01
 Compute Stats, Diag. #    214  SIarea    vol(   0 ): 3.580E+14  Parms: SM      M1      
 Compute Stats, Diag. #    217  SIheff    vol(   0 ): 3.580E+14  Parms: SM      M1      
 Compute Stats, Diag. #    219  SIhsnow   vol(   0 ): 3.580E+14  Parms: SM      M1      
 Compute Stats, Diag. #     83  sIceLoad  vol(   0 ): 3.580E+14  Parms: SM      U1      
 Compute Stats, Diag. #    223  SIuice    vol(   0 ): 3.513E+14  Parms: UU      M1      
 Compute Stats, Diag. #    224  SIvice    vol(   0 ): 3.508E+14  Parms: VV      M1      
 Compute Stats, Diag. #    225  SItaux    vol(   0 ): 3.513E+14  Parms: UU      U1      
 Compute Stats, Diag. #    226  SItauy    vol(   0 ): 3.508E+14  Parms: VV      U1      
 cg2d: Sum(rhs),rhsMax =   8.05746348237348E+01  3.03494748640277E-01
 Compute Stats, Diag. #    214  SIarea    vol(   0 ): 3.580E+14  Parms: SM      M1      
 Compute Stats, Diag. #    217  SIheff    vol(   0 ): 3.580E+14  Parms: SM      M1      
 Compute Stats, Diag. #    219  SIhsnow   vol(   0 ): 3.580E+14  Parms: SM      M1      
 Compute Stats, Diag. #     83  sIceLoad  vol(   0 ): 3.580E+14  Parms: SM      U1      
 Compute Stats, Diag. #    223  SIuice    vol(   0 ): 3.513E+14  Parms: UU      M1      
 Compute Stats, Diag. #    224  SIvice    vol(   0 ): 3.508E+14  Parms: VV      M1      
 Compute Stats, Diag. #    225  SItaux    vol(   0 ): 3.513E+14  Parms: UU      U1      
 Compute Stats, Diag. #    226  SItauy    vol(   0 ): 3.508E+14  Parms: VV      U1      
 cg2d: Sum(rhs),rhsMax =   8.05044183531357E+01  3.03280630128817E-01
 Compute Stats, Diag. #    214  SIarea    vol(   0 ): 3.580E+14  Parms: SM      M1      
 Compute Stats, Diag. #    217  SIheff    vol(   0 ): 3.580E+14  Parms: SM      M1      
 Compute Stats, Diag. #    219  SIhsnow   vol(   0 ): 3.580E+14  Parms: SM      M1      
 Compute Stats, Diag. #     83  sIceLoad  vol(   0 ): 3.580E+14  Parms: SM      U1      
 Compute Stats, Diag. #    223  SIuice    vol(   0 ): 3.513E+14  Parms: UU      M1      
 Compute Stats, Diag. #    224  SIvice    vol(   0 ): 3.508E+14  Parms: VV      M1      
 Compute Stats, Diag. #    225  SItaux    vol(   0 ): 3.513E+14  Parms: UU      U1      
 Compute Stats, Diag. #    226  SItauy    vol(   0 ): 3.508E+14  Parms: VV      U1      
 cg2d: Sum(rhs),rhsMax =   8.04286191013384E+01  3.02996919145806E-01
(PID.TID 0000.0001)      cg2d_init_res =   2.79322382241608E-01
(PID.TID 0000.0001)      cg2d_iters(min,last) =      -1      31
(PID.TID 0000.0001)      cg2d_last_res =   2.52382354045551E-05
(PID.TID 0000.0001) // =======================================================
(PID.TID 0000.0001) // Begin MONITOR dynamic field statistics
(PID.TID 0000.0001) // =======================================================
(PID.TID 0000.0001) %MON time_tsnumber                =                    88
(PID.TID 0000.0001) %MON time_secondsf                =   7.9200000000000E+04
(PID.TID 0000.0001) %MON dynstat_eta_max              =   1.0845261575850E+00
(PID.TID 0000.0001) %MON dynstat_eta_min              =  -2.6842810559055E+00
(PID.TID 0000.0001) %MON dynstat_eta_mean             =  -2.5442140941411E-03
(PID.TID 0000.0001) %MON dynstat_eta_sd               =   6.8914993811244E-01
(PID.TID 0000.0001) %MON dynstat_eta_del2             =   7.6926876479161E-05
(PID.TID 0000.0001) %MON dynstat_uvel_max             =   9.2068970350503E-01
(PID.TID 0000.0001) %MON dynstat_uvel_min             =  -9.3202124619818E-01
(PID.TID 0000.0001) %MON dynstat_uvel_mean            =   9.6631529603657E-04
(PID.TID 0000.0001) %MON dynstat_uvel_sd              =   2.1077352062206E-02
(PID.TID 0000.0001) %MON dynstat_uvel_del2            =   1.2722897650473E-05
(PID.TID 0000.0001) %MON dynstat_vvel_max             =   9.9607349103026E-01
(PID.TID 0000.0001) %MON dynstat_vvel_min             =  -9.0928989586183E-01
(PID.TID 0000.0001) %MON dynstat_vvel_mean            =   1.6304704794966E-03
(PID.TID 0000.0001) %MON dynstat_vvel_sd              =   2.2422313626298E-02
(PID.TID 0000.0001) %MON dynstat_vvel_del2            =   1.2478418886118E-05
(PID.TID 0000.0001) %MON dynstat_wvel_max             =   3.6576367853551E-03
(PID.TID 0000.0001) %MON dynstat_wvel_min             =  -2.0504437498566E-03
(PID.TID 0000.0001) %MON dynstat_wvel_mean            =   3.4676845813582E-08
(PID.TID 0000.0001) %MON dynstat_wvel_sd              =   3.1457653753773E-05
(PID.TID 0000.0001) %MON dynstat_wvel_del2            =   4.9683852425652E-08
(PID.TID 0000.0001) %MON dynstat_theta_max            =   3.2616245896382E+01
(PID.TID 0000.0001) %MON dynstat_theta_min            =  -2.0419108961901E+00
(PID.TID 0000.0001) %MON dynstat_theta_mean           =   3.5905101962321E+00
(PID.TID 0000.0001) %MON dynstat_theta_sd             =   4.4362122750205E+00
(PID.TID 0000.0001) %MON dynstat_theta_del2           =   1.0340844540078E-04
(PID.TID 0000.0001) %MON dynstat_salt_max             =   4.0711520115354E+01
(PID.TID 0000.0001) %MON dynstat_salt_min             =   1.8428072831863E+01
(PID.TID 0000.0001) %MON dynstat_salt_mean            =   3.4725615941018E+01
(PID.TID 0000.0001) %MON dynstat_salt_sd              =   3.7709967206667E-01
(PID.TID 0000.0001) %MON dynstat_salt_del2            =   2.9114345910274E-05
(PID.TID 0000.0001) %MON dynstat_sst_max              =   3.2537318939224E+01
(PID.TID 0000.0001) %MON dynstat_sst_min              =  -1.8748226265410E+00
(PID.TID 0000.0001) %MON dynstat_sst_mean             =   1.8485307199648E+01
(PID.TID 0000.0001) %MON dynstat_sst_sd               =   1.0111723169104E+01
(PID.TID 0000.0001) %MON dynstat_sst_del2             =   8.3694113532419E-04
(PID.TID 0000.0001) %MON dynstat_sss_max              =   3.9355675030360E+01
(PID.TID 0000.0001) %MON dynstat_sss_min              =   1.8428072831863E+01
(PID.TID 0000.0001) %MON dynstat_sss_mean             =   3.4687229613335E+01
(PID.TID 0000.0001) %MON dynstat_sss_sd               =   1.1284379307374E+00
(PID.TID 0000.0001) %MON dynstat_sss_del2             =   6.8879898392884E-04
(PID.TID 0000.0001) %MON forcing_qnet_max             =   1.3212824707031E+03
(PID.TID 0000.0001) %MON forcing_qnet_min             =  -8.5319891578711E+02
(PID.TID 0000.0001) %MON forcing_qnet_mean            =  -5.7169158306711E+00
(PID.TID 0000.0001) %MON forcing_qnet_sd              =   1.8442606772882E+02
(PID.TID 0000.0001) %MON forcing_qnet_del2            =   3.7369792293256E-01
(PID.TID 0000.0001) %MON forcing_qsw_max              =   0.0000000000000E+00
(PID.TID 0000.0001) %MON forcing_qsw_min              =  -1.0733313119258E+02
(PID.TID 0000.0001) %MON forcing_qsw_mean             =  -2.0000847723882E+01
(PID.TID 0000.0001) %MON forcing_qsw_sd               =   2.8961919426592E+01
(PID.TID 0000.0001) %MON forcing_qsw_del2             =   2.0306489067181E-02
(PID.TID 0000.0001) %MON forcing_empmr_max            =   1.5390354674309E-03
(PID.TID 0000.0001) %MON forcing_empmr_min            =  -1.2319378554821E-01
(PID.TID 0000.0001) %MON forcing_empmr_mean           =  -2.7414531347467E-06
(PID.TID 0000.0001) %MON forcing_empmr_sd             =   4.7620083907467E-04
(PID.TID 0000.0001) %MON forcing_empmr_del2           =   5.0330959852307E-06
(PID.TID 0000.0001) %MON forcing_fu_max               =   9.1946834646530E-01
(PID.TID 0000.0001) %MON forcing_fu_min               =  -8.6260051563546E-01
(PID.TID 0000.0001) %MON forcing_fu_mean              =   9.5626055013332E-03
(PID.TID 0000.0001) %MON forcing_fu_sd                =   1.0218107408373E-01
(PID.TID 0000.0001) %MON forcing_fu_del2              =   1.4225548514933E-04
(PID.TID 0000.0001) %MON forcing_fv_max               =   1.0568482406431E+00
(PID.TID 0000.0001) %MON forcing_fv_min               =  -7.6280249605165E-01
(PID.TID 0000.0001) %MON forcing_fv_mean              =  -8.7631506256861E-03
(PID.TID 0000.0001) %MON forcing_fv_sd                =   1.0256782085194E-01
(PID.TID 0000.0001) %MON forcing_fv_del2              =   1.2531323643265E-04
(PID.TID 0000.0001) %MON trAdv_CFL_u_max              =   2.2938721172184E-02
(PID.TID 0000.0001) %MON trAdv_CFL_v_max              =   1.7804066248039E-02
(PID.TID 0000.0001) %MON trAdv_CFL_w_max              =   1.1245253851230E-01
(PID.TID 0000.0001) %MON advcfl_uvel_max              =   2.1688782376742E-02
(PID.TID 0000.0001) %MON advcfl_vvel_max              =   1.7681205085321E-02
(PID.TID 0000.0001) %MON advcfl_wvel_max              =   1.1709028078122E-01
(PID.TID 0000.0001) %MON advcfl_W_hf_max              =   1.2359352410556E-01
(PID.TID 0000.0001) %MON pe_b_mean                    =   6.2472938906310E-04
(PID.TID 0000.0001) %MON ke_max                       =   5.6995845245836E-01
(PID.TID 0000.0001) %MON ke_mean                      =   4.5837768900074E-04
(PID.TID 0000.0001) %MON ke_vol                       =   1.3349969652169E+18
(PID.TID 0000.0001) %MON vort_r_min                   =  -2.5838448596648E-05
(PID.TID 0000.0001) %MON vort_r_max                   =   3.7578164901274E-05
(PID.TID 0000.0001) %MON vort_a_mean                  =  -1.9727864647440E-05
(PID.TID 0000.0001) %MON vort_a_sd                    =   7.4543217736629E-05
(PID.TID 0000.0001) %MON vort_p_mean                  =  -2.1760543973493E-05
(PID.TID 0000.0001) %MON vort_p_sd                    =   9.7246030921423E-05
(PID.TID 0000.0001) %MON surfExpan_theta_mean         =  -1.7953232424131E-06
(PID.TID 0000.0001) %MON surfExpan_salt_mean          =  -8.8174046062960E-08
(PID.TID 0000.0001) // =======================================================
(PID.TID 0000.0001) // End MONITOR dynamic field statistics
(PID.TID 0000.0001) // =======================================================
(PID.TID 0000.0001) // =======================================================
(PID.TID 0000.0001) // Begin MONITOR SEAICE statistics
(PID.TID 0000.0001) // =======================================================
(PID.TID 0000.0001) %MON seaice_tsnumber              =                    88
(PID.TID 0000.0001) %MON seaice_time_sec              =   7.9200000000000E+04
(PID.TID 0000.0001) %MON seaice_uice_max              =   6.4047730864792E-01
(PID.TID 0000.0001) %MON seaice_uice_min              =  -7.0360985028444E-01
(PID.TID 0000.0001) %MON seaice_uice_mean             =  -1.1397008300538E-03
(PID.TID 0000.0001) %MON seaice_uice_sd               =   1.4022520966605E-01
(PID.TID 0000.0001) %MON seaice_uice_del2             =   1.9835657679228E-04
(PID.TID 0000.0001) %MON seaice_vice_max              =   8.5342778378553E-01
(PID.TID 0000.0001) %MON seaice_vice_min              =  -9.0985091523375E-01
(PID.TID 0000.0001) %MON seaice_vice_mean             =  -2.3864625685013E-02
(PID.TID 0000.0001) %MON seaice_vice_sd               =   1.3053430690577E-01
(PID.TID 0000.0001) %MON seaice_vice_del2             =   1.6758634954149E-04
(PID.TID 0000.0001) %MON seaice_area_max              =   1.0000000000000E+00
(PID.TID 0000.0001) %MON seaice_area_min              =   0.0000000000000E+00
(PID.TID 0000.0001) %MON seaice_area_mean             =   7.1026482988941E-02
(PID.TID 0000.0001) %MON seaice_area_sd               =   2.3668854960035E-01
(PID.TID 0000.0001) %MON seaice_area_del2             =   3.6153199779305E-04
(PID.TID 0000.0001) %MON seaice_heff_max              =   2.5090003987536E+01
(PID.TID 0000.0001) %MON seaice_heff_min              =   0.0000000000000E+00
(PID.TID 0000.0001) %MON seaice_heff_mean             =   2.1706928417829E-01
(PID.TID 0000.0001) %MON seaice_heff_sd               =   1.0626931610702E+00
(PID.TID 0000.0001) %MON seaice_heff_del2             =   2.9882662912198E-03
(PID.TID 0000.0001) %MON seaice_hsnow_max             =   8.2867584729655E+00
(PID.TID 0000.0001) %MON seaice_hsnow_min             =   0.0000000000000E+00
(PID.TID 0000.0001) %MON seaice_hsnow_mean            =   2.4569707604920E-02
(PID.TID 0000.0001) %MON seaice_hsnow_sd              =   1.5183616531364E-01
(PID.TID 0000.0001) %MON seaice_hsnow_del2            =   9.4435810959632E-04
(PID.TID 0000.0001) // =======================================================
(PID.TID 0000.0001) // End MONITOR SEAICE statistics
(PID.TID 0000.0001) // =======================================================
 Computing Diagnostic #     86  oceQnet      Counter:       4   Parms: SM      U1      
 Computing Diagnostic #     87  oceQsw       Counter:       4   Parms: SM      U1      
 Computing Diagnostic #     84  oceFWflx     Counter:       4   Parms: SM      U1      
 Computing Diagnostic #     85  oceSflux     Counter:       4   Parms: SM      U1      
 Computing Diagnostic #     80  oceTAUX      Counter:       4   Parms: UU      U1      
           Vector  Mate for  oceTAUX      Diagnostic #     81  oceTAUY  exists 
 Computing Diagnostic #     81  oceTAUY      Counter:       4   Parms: VV      U1      
           Vector  Mate for  oceTAUY      Diagnostic #     80  oceTAUX  exists 
 Computing Diagnostic #     26  THETA        Counter:       4   Parms: SMR     MR      
 Computing Diagnostic #     27  SALT         Counter:       4   Parms: SMR     MR      
 Computing Diagnostic #     30  UVEL         Counter:       4   Parms: UUR     MR      
           Vector  Mate for  UVEL         Diagnostic #     31  VVEL     exists 
 Computing Diagnostic #     31  VVEL         Counter:       4   Parms: VVR     MR      
           Vector  Mate for  VVEL         Diagnostic #     30  UVEL     exists 
 Computing Diagnostic #    214  SIarea       Counter:       4   Parms: SM      M1      
 Computing Diagnostic #    217  SIheff       Counter:       4   Parms: SM      M1      
 Computing Diagnostic #    219  SIhsnow      Counter:       4   Parms: SM      M1      
 Computing Diagnostic #     83  sIceLoad     Counter:       4   Parms: SM      U1      
 Computing Diagnostic #    223  SIuice       Counter:       4   Parms: UU      M1      
           Vector  Mate for  SIuice       Diagnostic #    224  SIvice   exists 
 Computing Diagnostic #    224  SIvice       Counter:       4   Parms: VV      M1      
           Vector  Mate for  SIvice       Diagnostic #    223  SIuice   exists 
 Computing Diagnostic #    225  SItaux       Counter:       4   Parms: UU      U1      
           Vector  Mate for  SItaux       Diagnostic #    226  SItauy   exists 
 Computing Diagnostic #    226  SItauy       Counter:       4   Parms: VV      U1      
           Vector  Mate for  SItauy       Diagnostic #    225  SItaux   exists 
 Computing Diagnostic #    285  SIareaN      Counter:       4   Parms: SM      MX      
 Computing Diagnostic #    284  SIheffN      Counter:       4   Parms: SM      MX      
 Computing Diagnostic #    286  SIhsnowN     Counter:       4   Parms: SM      MX      
 Compute Stats, Diag. #    214  SIarea    vol(   0 ): 3.580E+14  Parms: SM      M1      
 Compute Stats, Diag. #    217  SIheff    vol(   0 ): 3.580E+14  Parms: SM      M1      
 Compute Stats, Diag. #    219  SIhsnow   vol(   0 ): 3.580E+14  Parms: SM      M1      
 Compute Stats, Diag. #     83  sIceLoad  vol(   0 ): 3.580E+14  Parms: SM      U1      
 Compute Stats, Diag. #    223  SIuice    vol(   0 ): 3.513E+14  Parms: UU      M1      
 Compute Stats, Diag. #    224  SIvice    vol(   0 ): 3.508E+14  Parms: VV      M1      
 Compute Stats, Diag. #    225  SItaux    vol(   0 ): 3.513E+14  Parms: UU      U1      
 Compute Stats, Diag. #    226  SItauy    vol(   0 ): 3.508E+14  Parms: VV      U1      
 SEAICE_LSR: Residual Initial ipass,Uice,Vice=    1  6.92984011E-03  6.88292272E-03
 SEAICE_LSR (ipass=   1) iters,dU,Resid=  1500  3.13031700E-08  9.03718172E-07
 SEAICE_LSR (ipass=   1) iters,dV,Resid=  1500  2.32164096E-08  4.49749965E-08
 SEAICE_LSR: Residual Initial ipass,Uice,Vice=    2  5.79998683E-03  6.21622413E-03
 SEAICE_LSR (ipass=   2) iters,dU,Resid=  1500  1.58885587E-08  4.59205808E-07
 SEAICE_LSR (ipass=   2) iters,dV,Resid=  1500  1.08987808E-08  2.11109244E-08
 cg2d: Sum(rhs),rhsMax =   8.03419547521421E+01  3.02645970721375E-01
 Compute Stats, Diag. #    214  SIarea    vol(   0 ): 3.580E+14  Parms: SM      M1      
 Compute Stats, Diag. #    217  SIheff    vol(   0 ): 3.580E+14  Parms: SM      M1      
 Compute Stats, Diag. #    219  SIhsnow   vol(   0 ): 3.580E+14  Parms: SM      M1      
 Compute Stats, Diag. #     83  sIceLoad  vol(   0 ): 3.580E+14  Parms: SM      U1      
 Compute Stats, Diag. #    223  SIuice    vol(   0 ): 3.513E+14  Parms: UU      M1      
 Compute Stats, Diag. #    224  SIvice    vol(   0 ): 3.508E+14  Parms: VV      M1      
 Compute Stats, Diag. #    225  SItaux    vol(   0 ): 3.513E+14  Parms: UU      U1      
 Compute Stats, Diag. #    226  SItauy    vol(   0 ): 3.508E+14  Parms: VV      U1      
 cg2d: Sum(rhs),rhsMax =   8.02628556829758E+01  3.02230265868846E-01
 Compute Stats, Diag. #    214  SIarea    vol(   0 ): 3.580E+14  Parms: SM      M1      
 Compute Stats, Diag. #    217  SIheff    vol(   0 ): 3.580E+14  Parms: SM      M1      
 Compute Stats, Diag. #    219  SIhsnow   vol(   0 ): 3.580E+14  Parms: SM      M1      
 Compute Stats, Diag. #     83  sIceLoad  vol(   0 ): 3.580E+14  Parms: SM      U1      
 Compute Stats, Diag. #    223  SIuice    vol(   0 ): 3.513E+14  Parms: UU      M1      
 Compute Stats, Diag. #    224  SIvice    vol(   0 ): 3.508E+14  Parms: VV      M1      
 Compute Stats, Diag. #    225  SItaux    vol(   0 ): 3.513E+14  Parms: UU      U1      
 Compute Stats, Diag. #    226  SItauy    vol(   0 ): 3.508E+14  Parms: VV      U1      
 cg2d: Sum(rhs),rhsMax =   8.02010518528853E+01  3.01751423311710E-01
 Compute Stats, Diag. #    214  SIarea    vol(   0 ): 3.580E+14  Parms: SM      M1      
 Compute Stats, Diag. #    217  SIheff    vol(   0 ): 3.580E+14  Parms: SM      M1      
 Compute Stats, Diag. #    219  SIhsnow   vol(   0 ): 3.580E+14  Parms: SM      M1      
 Compute Stats, Diag. #     83  sIceLoad  vol(   0 ): 3.580E+14  Parms: SM      U1      
 Compute Stats, Diag. #    223  SIuice    vol(   0 ): 3.513E+14  Parms: UU      M1      
 Compute Stats, Diag. #    224  SIvice    vol(   0 ): 3.508E+14  Parms: VV      M1      
 Compute Stats, Diag. #    225  SItaux    vol(   0 ): 3.513E+14  Parms: UU      U1      
 Compute Stats, Diag. #    226  SItauy    vol(   0 ): 3.508E+14  Parms: VV      U1      
 cg2d: Sum(rhs),rhsMax =   8.01262463501390E+01  3.01214689250038E-01
 Computing Diagnostic #     86  oceQnet      Counter:       4   Parms: SM      U1      
 Computing Diagnostic #     87  oceQsw       Counter:       4   Parms: SM      U1      
 Computing Diagnostic #     84  oceFWflx     Counter:       4   Parms: SM      U1      
 Computing Diagnostic #     85  oceSflux     Counter:       4   Parms: SM      U1      
 Computing Diagnostic #     80  oceTAUX      Counter:       4   Parms: UU      U1      
           Vector  Mate for  oceTAUX      Diagnostic #     81  oceTAUY  exists 
 Computing Diagnostic #     81  oceTAUY      Counter:       4   Parms: VV      U1      
           Vector  Mate for  oceTAUY      Diagnostic #     80  oceTAUX  exists 
 Computing Diagnostic #     26  THETA        Counter:       4   Parms: SMR     MR      
 Computing Diagnostic #     27  SALT         Counter:       4   Parms: SMR     MR      
 Computing Diagnostic #     30  UVEL         Counter:       4   Parms: UUR     MR      
           Vector  Mate for  UVEL         Diagnostic #     31  VVEL     exists 
 Computing Diagnostic #     31  VVEL         Counter:       4   Parms: VVR     MR      
           Vector  Mate for  VVEL         Diagnostic #     30  UVEL     exists 
 Computing Diagnostic #    214  SIarea       Counter:       4   Parms: SM      M1      
 Computing Diagnostic #    217  SIheff       Counter:       4   Parms: SM      M1      
 Computing Diagnostic #    219  SIhsnow      Counter:       4   Parms: SM      M1      
 Computing Diagnostic #     83  sIceLoad     Counter:       4   Parms: SM      U1      
 Computing Diagnostic #    223  SIuice       Counter:       4   Parms: UU      M1      
           Vector  Mate for  SIuice       Diagnostic #    224  SIvice   exists 
 Computing Diagnostic #    224  SIvice       Counter:       4   Parms: VV      M1      
           Vector  Mate for  SIvice       Diagnostic #    223  SIuice   exists 
 Computing Diagnostic #    225  SItaux       Counter:       4   Parms: UU      U1      
           Vector  Mate for  SItaux       Diagnostic #    226  SItauy   exists 
 Computing Diagnostic #    226  SItauy       Counter:       4   Parms: VV      U1      
           Vector  Mate for  SItauy       Diagnostic #    225  SItaux   exists 
 Computing Diagnostic #    285  SIareaN      Counter:       4   Parms: SM      MX      
 Computing Diagnostic #    284  SIheffN      Counter:       4   Parms: SM      MX      
 Computing Diagnostic #    286  SIhsnowN     Counter:       4   Parms: SM      MX      
 Compute Stats, Diag. #    214  SIarea    vol(   0 ): 3.580E+14  Parms: SM      M1      
 Compute Stats, Diag. #    217  SIheff    vol(   0 ): 3.580E+14  Parms: SM      M1      
 Compute Stats, Diag. #    219  SIhsnow   vol(   0 ): 3.580E+14  Parms: SM      M1      
 Compute Stats, Diag. #     83  sIceLoad  vol(   0 ): 3.580E+14  Parms: SM      U1      
 Compute Stats, Diag. #    223  SIuice    vol(   0 ): 3.513E+14  Parms: UU      M1      
 Compute Stats, Diag. #    224  SIvice    vol(   0 ): 3.508E+14  Parms: VV      M1      
 Compute Stats, Diag. #    225  SItaux    vol(   0 ): 3.513E+14  Parms: UU      U1      
 Compute Stats, Diag. #    226  SItauy    vol(   0 ): 3.508E+14  Parms: VV      U1      
 cg2d: Sum(rhs),rhsMax =   8.00648578709442E+01  3.00624074138251E-01
 Compute Stats, Diag. #    214  SIarea    vol(   0 ): 3.580E+14  Parms: SM      M1      
 Compute Stats, Diag. #    217  SIheff    vol(   0 ): 3.580E+14  Parms: SM      M1      
 Compute Stats, Diag. #    219  SIhsnow   vol(   0 ): 3.580E+14  Parms: SM      M1      
 Compute Stats, Diag. #     83  sIceLoad  vol(   0 ): 3.580E+14  Parms: SM      U1      
 Compute Stats, Diag. #    223  SIuice    vol(   0 ): 3.513E+14  Parms: UU      M1      
 Compute Stats, Diag. #    224  SIvice    vol(   0 ): 3.508E+14  Parms: VV      M1      
 Compute Stats, Diag. #    225  SItaux    vol(   0 ): 3.513E+14  Parms: UU      U1      
 Compute Stats, Diag. #    226  SItauy    vol(   0 ): 3.508E+14  Parms: VV      U1      
 cg2d: Sum(rhs),rhsMax =   7.99983523737928E+01  2.99986958397677E-01
 Compute Stats, Diag. #    214  SIarea    vol(   0 ): 3.580E+14  Parms: SM      M1      
 Compute Stats, Diag. #    217  SIheff    vol(   0 ): 3.580E+14  Parms: SM      M1      
 Compute Stats, Diag. #    219  SIhsnow   vol(   0 ): 3.580E+14  Parms: SM      M1      
 Compute Stats, Diag. #     83  sIceLoad  vol(   0 ): 3.580E+14  Parms: SM      U1      
 Compute Stats, Diag. #    223  SIuice    vol(   0 ): 3.513E+14  Parms: UU      M1      
 Compute Stats, Diag. #    224  SIvice    vol(   0 ): 3.508E+14  Parms: VV      M1      
 Compute Stats, Diag. #    225  SItaux    vol(   0 ): 3.513E+14  Parms: UU      U1      
 Compute Stats, Diag. #    226  SItauy    vol(   0 ): 3.508E+14  Parms: VV      U1      
 cg2d: Sum(rhs),rhsMax =   7.99283397605202E+01  2.99308153686011E-01
 Compute Stats, Diag. #    214  SIarea    vol(   0 ): 3.580E+14  Parms: SM      M1      
 Compute Stats, Diag. #    217  SIheff    vol(   0 ): 3.580E+14  Parms: SM      M1      
 Compute Stats, Diag. #    219  SIhsnow   vol(   0 ): 3.580E+14  Parms: SM      M1      
 Compute Stats, Diag. #     83  sIceLoad  vol(   0 ): 3.580E+14  Parms: SM      U1      
 Compute Stats, Diag. #    223  SIuice    vol(   0 ): 3.513E+14  Parms: UU      M1      
 Compute Stats, Diag. #    224  SIvice    vol(   0 ): 3.508E+14  Parms: VV      M1      
 Compute Stats, Diag. #    225  SItaux    vol(   0 ): 3.513E+14  Parms: UU      U1      
 Compute Stats, Diag. #    226  SItauy    vol(   0 ): 3.508E+14  Parms: VV      U1      
 cg2d: Sum(rhs),rhsMax =   7.98618184589076E+01  2.98597008986797E-01
(PID.TID 0000.0001)      cg2d_init_res =   2.70635883065944E-01
(PID.TID 0000.0001)      cg2d_iters(min,last) =      -1      31
(PID.TID 0000.0001)      cg2d_last_res =   2.75294591980600E-05
(PID.TID 0000.0001) // =======================================================
(PID.TID 0000.0001) // Begin MONITOR dynamic field statistics
(PID.TID 0000.0001) // =======================================================
(PID.TID 0000.0001) %MON time_tsnumber                =                    96
(PID.TID 0000.0001) %MON time_secondsf                =   8.6400000000000E+04
(PID.TID 0000.0001) %MON dynstat_eta_max              =   1.0827831401681E+00
(PID.TID 0000.0001) %MON dynstat_eta_min              =  -2.5879893551307E+00
(PID.TID 0000.0001) %MON dynstat_eta_mean             =  -2.5262843795798E-03
(PID.TID 0000.0001) %MON dynstat_eta_sd               =   6.8586320124211E-01
(PID.TID 0000.0001) %MON dynstat_eta_del2             =   7.5066573719316E-05
(PID.TID 0000.0001) %MON dynstat_uvel_max             =   9.0717428597472E-01
(PID.TID 0000.0001) %MON dynstat_uvel_min             =  -9.0447335943770E-01
(PID.TID 0000.0001) %MON dynstat_uvel_mean            =   8.6565204654911E-04
(PID.TID 0000.0001) %MON dynstat_uvel_sd              =   2.0930676327814E-02
(PID.TID 0000.0001) %MON dynstat_uvel_del2            =   1.2585468324010E-05
(PID.TID 0000.0001) %MON dynstat_vvel_max             =   9.8038997793241E-01
(PID.TID 0000.0001) %MON dynstat_vvel_min             =  -9.0400931852830E-01
(PID.TID 0000.0001) %MON dynstat_vvel_mean            =   1.5121329787054E-03
(PID.TID 0000.0001) %MON dynstat_vvel_sd              =   2.2196565554263E-02
(PID.TID 0000.0001) %MON dynstat_vvel_del2            =   1.2200220760245E-05
(PID.TID 0000.0001) %MON dynstat_wvel_max             =   3.8229871573769E-03
(PID.TID 0000.0001) %MON dynstat_wvel_min             =  -1.9185459409119E-03
(PID.TID 0000.0001) %MON dynstat_wvel_mean            =   3.4845665825226E-08
(PID.TID 0000.0001) %MON dynstat_wvel_sd              =   3.0744544690860E-05
(PID.TID 0000.0001) %MON dynstat_wvel_del2            =   4.8243102621515E-08
(PID.TID 0000.0001) %MON dynstat_theta_max            =   3.2596930045615E+01
(PID.TID 0000.0001) %MON dynstat_theta_min            =  -2.0418989859244E+00
(PID.TID 0000.0001) %MON dynstat_theta_mean           =   3.5905163864437E+00
(PID.TID 0000.0001) %MON dynstat_theta_sd             =   4.4362462382024E+00
(PID.TID 0000.0001) %MON dynstat_theta_del2           =   1.0293076806808E-04
(PID.TID 0000.0001) %MON dynstat_salt_max             =   4.0711519713012E+01
(PID.TID 0000.0001) %MON dynstat_salt_min             =   1.7362199977281E+01
(PID.TID 0000.0001) %MON dynstat_salt_mean            =   3.4725612579319E+01
(PID.TID 0000.0001) %MON dynstat_salt_sd              =   3.7708729173071E-01
(PID.TID 0000.0001) %MON dynstat_salt_del2            =   2.9182304980352E-05
(PID.TID 0000.0001) %MON dynstat_sst_max              =   3.2519174651558E+01
(PID.TID 0000.0001) %MON dynstat_sst_min              =  -1.8699000029015E+00
(PID.TID 0000.0001) %MON dynstat_sst_mean             =   1.8487479721120E+01
(PID.TID 0000.0001) %MON dynstat_sst_sd               =   1.0114504421113E+01
(PID.TID 0000.0001) %MON dynstat_sst_del2             =   8.3331508089250E-04
(PID.TID 0000.0001) %MON dynstat_sss_max              =   3.9336968307866E+01
(PID.TID 0000.0001) %MON dynstat_sss_min              =   1.7362199977281E+01
(PID.TID 0000.0001) %MON dynstat_sss_mean             =   3.4687867905345E+01
(PID.TID 0000.0001) %MON dynstat_sss_sd               =   1.1294883909603E+00
(PID.TID 0000.0001) %MON dynstat_sss_del2             =   7.0162134485561E-04
(PID.TID 0000.0001) %MON forcing_qnet_max             =   1.9760761718750E+03
(PID.TID 0000.0001) %MON forcing_qnet_min             =  -7.6819500732422E+02
(PID.TID 0000.0001) %MON forcing_qnet_mean            =  -1.9088405761870E+01
(PID.TID 0000.0001) %MON forcing_qnet_sd              =   1.9901206707898E+02
(PID.TID 0000.0001) %MON forcing_qnet_del2            =   3.7584104672432E-01
(PID.TID 0000.0001) %MON forcing_qsw_max              =   0.0000000000000E+00
(PID.TID 0000.0001) %MON forcing_qsw_min              =  -1.0572314730971E+02
(PID.TID 0000.0001) %MON forcing_qsw_mean             =  -2.1877372987687E+01
(PID.TID 0000.0001) %MON forcing_qsw_sd               =   3.0239115219637E+01
(PID.TID 0000.0001) %MON forcing_qsw_del2             =   1.9377778229571E-02
(PID.TID 0000.0001) %MON forcing_empmr_max            =   1.7283799825236E-03
(PID.TID 0000.0001) %MON forcing_empmr_min            =  -1.0137361288071E-01
(PID.TID 0000.0001) %MON forcing_empmr_mean           =  -2.4058948672126E-06
(PID.TID 0000.0001) %MON forcing_empmr_sd             =   4.0213702130034E-04
(PID.TID 0000.0001) %MON forcing_empmr_del2           =   4.1929580132488E-06
(PID.TID 0000.0001) %MON forcing_fu_max               =   9.3994236651127E-01
(PID.TID 0000.0001) %MON forcing_fu_min               =  -9.6817045211286E-01
(PID.TID 0000.0001) %MON forcing_fu_mean              =   9.1392019017986E-03
(PID.TID 0000.0001) %MON forcing_fu_sd                =   1.0136834183745E-01
(PID.TID 0000.0001) %MON forcing_fu_del2              =   1.4086528080612E-04
(PID.TID 0000.0001) %MON forcing_fv_max               =   1.0634715834857E+00
(PID.TID 0000.0001) %MON forcing_fv_min               =  -7.4433518719618E-01
(PID.TID 0000.0001) %MON forcing_fv_mean              =  -9.1335163496027E-03
(PID.TID 0000.0001) %MON forcing_fv_sd                =   1.0232437516300E-01
(PID.TID 0000.0001) %MON forcing_fv_del2              =   1.2468313993057E-04
(PID.TID 0000.0001) %MON trAdv_CFL_u_max              =   2.2772144834187E-02
(PID.TID 0000.0001) %MON trAdv_CFL_v_max              =   1.7251433914925E-02
(PID.TID 0000.0001) %MON trAdv_CFL_w_max              =   1.1702953919955E-01
(PID.TID 0000.0001) %MON advcfl_uvel_max              =   2.1370398290953E-02
(PID.TID 0000.0001) %MON advcfl_vvel_max              =   1.7402808547276E-02
(PID.TID 0000.0001) %MON advcfl_wvel_max              =   1.2186207798078E-01
(PID.TID 0000.0001) %MON advcfl_W_hf_max              =   1.2858886331059E-01
(PID.TID 0000.0001) %MON pe_b_mean                    =   6.1878456074610E-04
(PID.TID 0000.0001) %MON ke_max                       =   5.4091531072705E-01
(PID.TID 0000.0001) %MON ke_mean                      =   4.5028126475928E-04
(PID.TID 0000.0001) %MON ke_vol                       =   1.3349969717411E+18
(PID.TID 0000.0001) %MON vort_r_min                   =  -2.5861611048065E-05
(PID.TID 0000.0001) %MON vort_r_max                   =   3.5936822387317E-05
(PID.TID 0000.0001) %MON vort_a_mean                  =  -1.9727864647440E-05
(PID.TID 0000.0001) %MON vort_a_sd                    =   7.4543165318450E-05
(PID.TID 0000.0001) %MON vort_p_mean                  =  -2.1760543608024E-05
(PID.TID 0000.0001) %MON vort_p_sd                    =   9.7246256887608E-05
(PID.TID 0000.0001) %MON surfExpan_theta_mean         =  -1.6402686007742E-06
(PID.TID 0000.0001) %MON surfExpan_salt_mean          =  -8.9075188967073E-08
(PID.TID 0000.0001) // =======================================================
(PID.TID 0000.0001) // End MONITOR dynamic field statistics
(PID.TID 0000.0001) // =======================================================
(PID.TID 0000.0001) // =======================================================
(PID.TID 0000.0001) // Begin MONITOR SEAICE statistics
(PID.TID 0000.0001) // =======================================================
(PID.TID 0000.0001) %MON seaice_tsnumber              =                    96
(PID.TID 0000.0001) %MON seaice_time_sec              =   8.6400000000000E+04
(PID.TID 0000.0001) %MON seaice_uice_max              =   6.6833546573975E-01
(PID.TID 0000.0001) %MON seaice_uice_min              =  -7.2654897836241E-01
(PID.TID 0000.0001) %MON seaice_uice_mean             =  -1.4628160969811E-03
(PID.TID 0000.0001) %MON seaice_uice_sd               =   1.3913796234559E-01
(PID.TID 0000.0001) %MON seaice_uice_del2             =   1.9647386097287E-04
(PID.TID 0000.0001) %MON seaice_vice_max              =   8.4474417941791E-01
(PID.TID 0000.0001) %MON seaice_vice_min              =  -9.0473773142711E-01
(PID.TID 0000.0001) %MON seaice_vice_mean             =  -2.6284568792281E-02
(PID.TID 0000.0001) %MON seaice_vice_sd               =   1.2962231646121E-01
(PID.TID 0000.0001) %MON seaice_vice_del2             =   1.6555736826308E-04
(PID.TID 0000.0001) %MON seaice_area_max              =   1.0000000000000E+00
(PID.TID 0000.0001) %MON seaice_area_min              =   0.0000000000000E+00
(PID.TID 0000.0001) %MON seaice_area_mean             =   7.0949796173561E-02
(PID.TID 0000.0001) %MON seaice_area_sd               =   2.3657964392582E-01
(PID.TID 0000.0001) %MON seaice_area_del2             =   3.5646656957952E-04
(PID.TID 0000.0001) %MON seaice_heff_max              =   2.5086453690893E+01
(PID.TID 0000.0001) %MON seaice_heff_min              =   0.0000000000000E+00
(PID.TID 0000.0001) %MON seaice_heff_mean             =   2.1704804358789E-01
(PID.TID 0000.0001) %MON seaice_heff_sd               =   1.0624580786502E+00
(PID.TID 0000.0001) %MON seaice_heff_del2             =   2.9506280928029E-03
(PID.TID 0000.0001) %MON seaice_hsnow_max             =   8.2855912915766E+00
(PID.TID 0000.0001) %MON seaice_hsnow_min             =   0.0000000000000E+00
(PID.TID 0000.0001) %MON seaice_hsnow_mean            =   2.4560509318522E-02
(PID.TID 0000.0001) %MON seaice_hsnow_sd              =   1.5158304753177E-01
(PID.TID 0000.0001) %MON seaice_hsnow_del2            =   9.3164998215944E-04
(PID.TID 0000.0001) // =======================================================
(PID.TID 0000.0001) // End MONITOR SEAICE statistics
(PID.TID 0000.0001) // =======================================================
 Computing Diagnostic #     86  oceQnet      Counter:       4   Parms: SM      U1      
 Computing Diagnostic #     87  oceQsw       Counter:       4   Parms: SM      U1      
 Computing Diagnostic #     84  oceFWflx     Counter:       4   Parms: SM      U1      
 Computing Diagnostic #     85  oceSflux     Counter:       4   Parms: SM      U1      
 Computing Diagnostic #     80  oceTAUX      Counter:       4   Parms: UU      U1      
           Vector  Mate for  oceTAUX      Diagnostic #     81  oceTAUY  exists 
 Computing Diagnostic #     81  oceTAUY      Counter:       4   Parms: VV      U1      
           Vector  Mate for  oceTAUY      Diagnostic #     80  oceTAUX  exists 
 Computing Diagnostic #     26  THETA        Counter:       4   Parms: SMR     MR      
 Computing Diagnostic #     27  SALT         Counter:       4   Parms: SMR     MR      
 Computing Diagnostic #     30  UVEL         Counter:       4   Parms: UUR     MR      
           Vector  Mate for  UVEL         Diagnostic #     31  VVEL     exists 
 Computing Diagnostic #     31  VVEL         Counter:       4   Parms: VVR     MR      
           Vector  Mate for  VVEL         Diagnostic #     30  UVEL     exists 
 Computing Diagnostic #    214  SIarea       Counter:       4   Parms: SM      M1      
 Computing Diagnostic #    217  SIheff       Counter:       4   Parms: SM      M1      
 Computing Diagnostic #    219  SIhsnow      Counter:       4   Parms: SM      M1      
 Computing Diagnostic #     83  sIceLoad     Counter:       4   Parms: SM      U1      
 Computing Diagnostic #    223  SIuice       Counter:       4   Parms: UU      M1      
           Vector  Mate for  SIuice       Diagnostic #    224  SIvice   exists 
 Computing Diagnostic #    224  SIvice       Counter:       4   Parms: VV      M1      
           Vector  Mate for  SIvice       Diagnostic #    223  SIuice   exists 
 Computing Diagnostic #    225  SItaux       Counter:       4   Parms: UU      U1      
           Vector  Mate for  SItaux       Diagnostic #    226  SItauy   exists 
 Computing Diagnostic #    226  SItauy       Counter:       4   Parms: VV      U1      
           Vector  Mate for  SItauy       Diagnostic #    225  SItaux   exists 
 Computing Diagnostic #    285  SIareaN      Counter:       4   Parms: SM      MX      
 Computing Diagnostic #    284  SIheffN      Counter:       4   Parms: SM      MX      
 Computing Diagnostic #    286  SIhsnowN     Counter:       4   Parms: SM      MX      
 Compute Stats, Diag. #    214  SIarea    vol(   0 ): 3.580E+14  Parms: SM      M1      
 Compute Stats, Diag. #    217  SIheff    vol(   0 ): 3.580E+14  Parms: SM      M1      
 Compute Stats, Diag. #    219  SIhsnow   vol(   0 ): 3.580E+14  Parms: SM      M1      
 Compute Stats, Diag. #     83  sIceLoad  vol(   0 ): 3.580E+14  Parms: SM      U1      
 Compute Stats, Diag. #    223  SIuice    vol(   0 ): 3.513E+14  Parms: UU      M1      
 Compute Stats, Diag. #    224  SIvice    vol(   0 ): 3.508E+14  Parms: VV      M1      
 Compute Stats, Diag. #    225  SItaux    vol(   0 ): 3.513E+14  Parms: UU      U1      
 Compute Stats, Diag. #    226  SItauy    vol(   0 ): 3.508E+14  Parms: VV      U1      
(PID.TID 0000.0001) %CHECKPOINT        96 0000000096
 SEAICE_LSR: Residual Initial ipass,Uice,Vice=    1  6.62770383E-03  6.51150755E-03
 SEAICE_LSR (ipass=   1) iters,dU,Resid=  1500  3.80314385E-09  1.36487011E-07
 SEAICE_LSR (ipass=   1) iters,dV,Resid=  1500  2.23878163E-10  2.86759029E-09
 SEAICE_LSR: Residual Initial ipass,Uice,Vice=    2  5.50887465E-03  6.19816416E-03
 SEAICE_LSR (ipass=   2) iters,dU,Resid=  1500  1.13068478E-09  4.48542037E-08
 SEAICE_LSR (ipass=   2) iters,dV,Resid=  1500  1.37726927E-10  2.54912697E-09
 cg2d: Sum(rhs),rhsMax =   7.98051829426899E+01  2.97862387406410E-01
 Computing Diagnostic #     86  oceQnet      Counter:       1   Parms: SM      U1      
 Computing Diagnostic #     87  oceQsw       Counter:       1   Parms: SM      U1      
 Computing Diagnostic #     84  oceFWflx     Counter:       1   Parms: SM      U1      
 Computing Diagnostic #     85  oceSflux     Counter:       1   Parms: SM      U1      
 Computing Diagnostic #     80  oceTAUX      Counter:       1   Parms: UU      U1      
           Vector  Mate for  oceTAUX      Diagnostic #     81  oceTAUY  exists 
 Computing Diagnostic #     81  oceTAUY      Counter:       1   Parms: VV      U1      
           Vector  Mate for  oceTAUY      Diagnostic #     80  oceTAUX  exists 
 Computing Diagnostic #     26  THETA        Counter:       1   Parms: SMR     MR      
 Computing Diagnostic #     27  SALT         Counter:       1   Parms: SMR     MR      
 Computing Diagnostic #     30  UVEL         Counter:       1   Parms: UUR     MR      
           Vector  Mate for  UVEL         Diagnostic #     31  VVEL     exists 
 Computing Diagnostic #     31  VVEL         Counter:       1   Parms: VVR     MR      
           Vector  Mate for  VVEL         Diagnostic #     30  UVEL     exists 
 Computing Diagnostic #    214  SIarea       Counter:       1   Parms: SM      M1      
 Computing Diagnostic #    217  SIheff       Counter:       1   Parms: SM      M1      
 Computing Diagnostic #    219  SIhsnow      Counter:       1   Parms: SM      M1      
 Computing Diagnostic #     83  sIceLoad     Counter:       1   Parms: SM      U1      
 Computing Diagnostic #    223  SIuice       Counter:       1   Parms: UU      M1      
           Vector  Mate for  SIuice       Diagnostic #    224  SIvice   exists 
 Computing Diagnostic #    224  SIvice       Counter:       1   Parms: VV      M1      
           Vector  Mate for  SIvice       Diagnostic #    223  SIuice   exists 
 Computing Diagnostic #    225  SItaux       Counter:       1   Parms: UU      U1      
           Vector  Mate for  SItaux       Diagnostic #    226  SItauy   exists 
 Computing Diagnostic #    226  SItauy       Counter:       1   Parms: VV      U1      
           Vector  Mate for  SItauy       Diagnostic #    225  SItaux   exists 
 Computing Diagnostic #    285  SIareaN      Counter:       1   Parms: SM      MX      
 Computing Diagnostic #    284  SIheffN      Counter:       1   Parms: SM      MX      
 Computing Diagnostic #    286  SIhsnowN     Counter:       1   Parms: SM      MX      
 Compute Stats, Diag. #    214  SIarea    vol(   0 ): 3.580E+14  Parms: SM      M1      
 Compute Stats, Diag. #    217  SIheff    vol(   0 ): 3.580E+14  Parms: SM      M1      
 Compute Stats, Diag. #    219  SIhsnow   vol(   0 ): 3.580E+14  Parms: SM      M1      
 Compute Stats, Diag. #     83  sIceLoad  vol(   0 ): 3.580E+14  Parms: SM      U1      
 Compute Stats, Diag. #    223  SIuice    vol(   0 ): 3.513E+14  Parms: UU      M1      
 Compute Stats, Diag. #    224  SIvice    vol(   0 ): 3.508E+14  Parms: VV      M1      
 Compute Stats, Diag. #    225  SItaux    vol(   0 ): 3.513E+14  Parms: UU      U1      
 Compute Stats, Diag. #    226  SItauy    vol(   0 ): 3.508E+14  Parms: VV      U1      
(PID.TID 0000.0001) DIAGSTATS_CLOSE_IO: close file: iceStDiag.0000000001.txt , unit=    37
(PID.TID 0000.0001) %CHECKPOINT        97 ckptA
