(PID.TID 0000.0001) 
(PID.TID 0000.0001) // ======================================================
(PID.TID 0000.0001) //                      MITgcm UV
(PID.TID 0000.0001) //                      =========
(PID.TID 0000.0001) // ======================================================
(PID.TID 0000.0001) // execution environment starting up...
(PID.TID 0000.0001) 
(PID.TID 0000.0001) // MITgcmUV version:  checkpoint67c
(PID.TID 0000.0001) // Build user:        estrobac
(PID.TID 0000.0001) // Build host:        borgq142
(PID.TID 0000.0001) // Build date:        Thu Aug 30 11:25:48 EDT 2018
(PID.TID 0000.0001) 
(PID.TID 0000.0001) // =======================================================
(PID.TID 0000.0001) // Execution Environment parameter file "eedata"
(PID.TID 0000.0001) // =======================================================
(PID.TID 0000.0001) ># Example "eedata" file
(PID.TID 0000.0001) ># Lines beginning "#" are comments
(PID.TID 0000.0001) ># nTx - No. threads per process in X
(PID.TID 0000.0001) ># nTy - No. threads per process in Y
(PID.TID 0000.0001) > &EEPARMS
(PID.TID 0000.0001) > useCubedSphereExchange=.TRUE.,
(PID.TID 0000.0001) > nTx=1,
(PID.TID 0000.0001) > nTy=1,
(PID.TID 0000.0001) > &
(PID.TID 0000.0001) 
(PID.TID 0000.0001) // =======================================================
(PID.TID 0000.0001) // Computational Grid Specification ( see files "SIZE.h" )
(PID.TID 0000.0001) //                                  ( and "eedata"       )
(PID.TID 0000.0001) // =======================================================
(PID.TID 0000.0001)      nPx =   96 ; /* No. processes in X */
(PID.TID 0000.0001)      nPy =    1 ; /* No. processes in Y */
(PID.TID 0000.0001)      nSx =    1 ; /* No. tiles in X per process */
(PID.TID 0000.0001)      nSy =    1 ; /* No. tiles in Y per process */
(PID.TID 0000.0001)      sNx =   30 ; /* Tile size in X */
(PID.TID 0000.0001)      sNy =   30 ; /* Tile size in Y */
(PID.TID 0000.0001)      OLx =    4 ; /* Tile overlap distance in X */
(PID.TID 0000.0001)      OLy =    4 ; /* Tile overlap distance in Y */
(PID.TID 0000.0001)      nTx =    1 ; /* No. threads in X per process */
(PID.TID 0000.0001)      nTy =    1 ; /* No. threads in Y per process */
(PID.TID 0000.0001)       Nr =   50 ; /* No. levels in the vertical   */
(PID.TID 0000.0001)       Nx = 2880 ; /* Total domain size in X ( = nPx*nSx*sNx ) */
(PID.TID 0000.0001)       Ny =   30 ; /* Total domain size in Y ( = nPy*nSy*sNy ) */
(PID.TID 0000.0001)   nTiles =    1 ; /* Total no. tiles per process ( = nSx*nSy ) */
(PID.TID 0000.0001)   nProcs =   96 ; /* Total no. processes ( = nPx*nPy ) */
(PID.TID 0000.0001) nThreads =    1 ; /* Total no. threads per process ( = nTx*nTy ) */
(PID.TID 0000.0001) usingMPI =    T ; /* Flag used to control whether MPI is in use */
(PID.TID 0000.0001)                   /*  note: To execute a program with MPI calls */
(PID.TID 0000.0001)                   /*  it must be launched appropriately e.g     */
(PID.TID 0000.0001)                   /*  "mpirun -np 64 ......"                    */
(PID.TID 0000.0001) useCoupler=    F ;/* Flag used to control communications with   */
(PID.TID 0000.0001)                   /*  other model components, through a coupler */
(PID.TID 0000.0001) debugMode =    F ; /* print debug msg. (sequence of S/R calls)  */
(PID.TID 0000.0001) printMapIncludesZeros=    F ; /* print zeros in Std.Output maps */
(PID.TID 0000.0001) maxLengthPrt1D=   65 /* maxLength of 1D array printed to StdOut */
(PID.TID 0000.0001) 
(PID.TID 0000.0001) ======= Starting MPI parallel Run =========
(PID.TID 0000.0001)  My Processor Name (len: 10 ) = borg01y030
(PID.TID 0000.0001)  Located at (  0,  0) on processor grid (0: 95,0:  0)
(PID.TID 0000.0001)  Origin at  (     1,     1) on global grid (1:  2880,1:    30)
(PID.TID 0000.0001)  North neighbor = processor 0000
(PID.TID 0000.0001)  South neighbor = processor 0000
(PID.TID 0000.0001)   East neighbor = processor 0001
(PID.TID 0000.0001)   West neighbor = processor 0095
(PID.TID 0000.0001) // ======================================================
(PID.TID 0000.0001) // Mapping of tiles to threads
(PID.TID 0000.0001) // ======================================================
(PID.TID 0000.0001) // -o- Thread   1, tiles (   1:   1,   1:   1)
(PID.TID 0000.0001) 
(PID.TID 0000.0001) W2_READPARMS: opening data.exch2
(PID.TID 0000.0001)  OPEN_COPY_DATA_FILE: opening file data.exch2
(PID.TID 0000.0001) // =======================================================
(PID.TID 0000.0001) // Parameter file "data.exch2"
(PID.TID 0000.0001) // =======================================================
(PID.TID 0000.0001) ># EXCH2 Package: Wrapper-2 User Choice
(PID.TID 0000.0001) >#--------------------
(PID.TID 0000.0001) >#  preDefTopol   :: pre-defined Topology selector:
(PID.TID 0000.0001) >#                :: = 0 : topology defined from processing "data.exch2";
(PID.TID 0000.0001) >#                :: = 1 : simple, single facet topology;
(PID.TID 0000.0001) >#                :: = 2 : customized topology (w2_set_myown_facets)
(PID.TID 0000.0001) >#                :: = 3 : 6-facet Cube (3 face-dims: nRed, nGreen, nBlue).
(PID.TID 0000.0001) >#  dimsFacets    :: facet pair of dimensions (n1x,n1y, n2x,n2y ...)
(PID.TID 0000.0001) >#  facetEdgeLink :: Face-Edge connectivity map:
(PID.TID 0000.0001) >#    facetEdgeLink(i,j)=XX.1 : face(j)-edge(i) (i=1,2,3,4 <==> N,S,E,W)
(PID.TID 0000.0001) >#    is connected to Northern edge of face "XX" ; similarly,
(PID.TID 0000.0001) >#    = XX.2 : to Southern.E, XX.3 = Eastern.E, XX.4 = Western.E of face "XX"
(PID.TID 0000.0001) >#  blankList     :: List of "blank" tiles
(PID.TID 0000.0001) >#  W2_mapIO      :: global map IO selector (-1 = old type ; 0 = 1 long line in X
(PID.TID 0000.0001) >#                :: 1 = compact, mostly in Y dir)
(PID.TID 0000.0001) >#  W2_printMsg   :: option for information messages printing
(PID.TID 0000.0001) >#                :: <0 : write to log file ; =0 : minimum print ;
(PID.TID 0000.0001) >#                :: =1 : no duplicated print ; =2 : all processes do print
(PID.TID 0000.0001) >#--------------------
(PID.TID 0000.0001) > &W2_EXCH2_PARM01
(PID.TID 0000.0001) ># W2_printMsg= 0,
(PID.TID 0000.0001) >  W2_mapIO   = 1,
(PID.TID 0000.0001) >#
(PID.TID 0000.0001) >  preDefTopol=0,
(PID.TID 0000.0001) >#-- 5 facets llc_120 topology (drop facet 6 and its connection):
(PID.TID 0000.0001) >  dimsFacets(1:10) = 90, 270, 90, 270, 90, 90, 270, 90, 270, 90,
(PID.TID 0000.0001) >  facetEdgeLink(1:4,1)= 3.4, 0. , 2.4, 5.1,
(PID.TID 0000.0001) >  facetEdgeLink(1:4,2)= 3.2, 0. , 4.2, 1.3,
(PID.TID 0000.0001) >  facetEdgeLink(1:4,3)= 5.4, 2.1, 4.4, 1.1,
(PID.TID 0000.0001) >  facetEdgeLink(1:4,4)= 5.2, 2.3, 0. , 3.3,
(PID.TID 0000.0001) >  facetEdgeLink(1:4,5)= 1.4, 4.1, 0. , 3.1,
(PID.TID 0000.0001) >#-- full 6 facets llc_120 topology (equivalent to default preDefTopol=3):
(PID.TID 0000.0001) ># dimsFacets(1:12) = 120, 360, 120, 360, 120, 120, 360, 120, 360, 120, 120, 120,
(PID.TID 0000.0001) ># facetEdgeLink(1:4,1)= 3.4, 6.1, 2.4, 5.1,
(PID.TID 0000.0001) ># facetEdgeLink(1:4,2)= 3.2, 6.3, 4.2, 1.3,
(PID.TID 0000.0001) ># facetEdgeLink(1:4,3)= 5.4, 2.1, 4.4, 1.1,
(PID.TID 0000.0001) ># facetEdgeLink(1:4,4)= 5.2, 2.3, 6.2, 3.3,
(PID.TID 0000.0001) ># facetEdgeLink(1:4,5)= 1.4, 4.1, 6.4, 3.1,
(PID.TID 0000.0001) ># facetEdgeLink(1:4,6)= 1.2, 4.3, 2.2, 5.3,
(PID.TID 0000.0001) >#
(PID.TID 0000.0001) >#90x30   nprocs = 36
(PID.TID 0000.0001) ># blankList(1:3)=1,10,11,
(PID.TID 0000.0001) >#30x90
(PID.TID 0000.0001) >#
(PID.TID 0000.0001) >#45x30   nprocs = 72
(PID.TID 0000.0001) ># blankList(1:6)=1,2,19,20,21,22
(PID.TID 0000.0001) >#30x45   nprocs = 68
(PID.TID 0000.0001) ># blankList(1:10)=2,3,19,20,21,35,51,60,69,78
(PID.TID 0000.0001) >#45x45   nprocs = 48
(PID.TID 0000.0001) ># blankList(1:4)=2,13,14,23
(PID.TID 0000.0001) >#30x30   nprocs = 96
(PID.TID 0000.0001) >  blankList(1:21)=1,2,3,5,6,28,29,30,31,32,33,49,50,52,53,72,81,90,99,108,117
(PID.TID 0000.0001) >#30x30   nprocs = 112
(PID.TID 0000.0001) ># blankList(1:5)=2,3,28,29,30
(PID.TID 0000.0001) >#15x30   nprocs = 192
(PID.TID 0000.0001) ># blankList(1:42)=1,2,3,4,5,6,9,10,11,12,55,56,57,58,59,60,61,62,63,64,65,66,
(PID.TID 0000.0001) >#            97,98,99,100,103,104,105,106,143,144,
(PID.TID 0000.0001) >#            161,162,179,180,197,198,215,216,233,234
(PID.TID 0000.0001) >#15x15   nprocs = 360
(PID.TID 0000.0001) ># blankList(1:108)=1,2,3,4,5,6,7,8,9,10,11,12,14,15,16,17,18,21,22,23,24,
(PID.TID 0000.0001) >#  65,71,75,76,90,95,96,101,102,109,110,111,112,113,114,115,116,117,118,119,
(PID.TID 0000.0001) >#  120,121,122,123,124,125,126,127,128,129,130,131,132,
(PID.TID 0000.0001) >#  188,189,190,193,194,195,196,199,
(PID.TID 0000.0001) >#  200,201,202,203,205,206,207,208,209,211,212,213,214,215,216,242,247,253,
(PID.TID 0000.0001) >#  267,268,269,270,287,288,305,306,323,324,341,342,359,360,362,376,377,378,
(PID.TID 0000.0001) >#  380,381,382,395,396,400,412,413,414,430,
(PID.TID 0000.0001) >#note: it seems that 8 of the followig 9 tiles could be added to 15x15 blank
(PID.TID 0000.0001) >#  list to reach 352=22*16 cores : 431 432 440 441 448 449 450 467 468
(PID.TID 0000.0001) > &
(PID.TID 0000.0001) 
(PID.TID 0000.0001) W2_READPARMS: finished reading data.exch2
(PID.TID 0000.0001) W2_useE2ioLayOut=    T ;/* T: use Exch2 glob IO map; F: use model default */
(PID.TID 0000.0001) W2_mapIO        =   1 ; /* select option for Exch2 global-IO map */
(PID.TID 0000.0001) W2_printMsg     =  -1 ; /* select option for printing information */
(PID.TID 0000.0001) ===== Start setting W2 TOPOLOGY:
(PID.TID 0000.0001)  write to log-file: w2_tile_topology.0000.log
(PID.TID 0000.0001) =====       setting W2 TOPOLOGY: Done
(PID.TID 0000.0001) 
(PID.TID 0000.0001)  INI_PARMS: opening model parameter file "data"
(PID.TID 0000.0001)  OPEN_COPY_DATA_FILE: opening file data
(PID.TID 0000.0001) // =======================================================
(PID.TID 0000.0001) // Parameter file "data"
(PID.TID 0000.0001) // =======================================================
(PID.TID 0000.0001) ># ====================
(PID.TID 0000.0001) ># | Model parameters |
(PID.TID 0000.0001) ># ====================
(PID.TID 0000.0001) >#
(PID.TID 0000.0001) ># Continuous equation parameters
(PID.TID 0000.0001) > &PARM01
(PID.TID 0000.0001) > tRef               = 3*23.,3*22.,21.,2*20.,19.,2*18.,17.,2*16.,15.,14.,13.,
(PID.TID 0000.0001) >                      12.,11.,2*9.,8.,7.,2*6.,2*5.,3*4.,3*3.,4*2.,12*1.,
(PID.TID 0000.0001) > sRef               = 50*34.5,
(PID.TID 0000.0001) > no_slip_sides  = .TRUE.,
(PID.TID 0000.0001) > no_slip_bottom = .TRUE.,
(PID.TID 0000.0001) >#
(PID.TID 0000.0001) > viscAr=0.5E-4,
(PID.TID 0000.0001) >#
(PID.TID 0000.0001) > viscAh=1.E0,
(PID.TID 0000.0001) > viscAhGrid=2.E-2,
(PID.TID 0000.0001) ># viscAh=2.0e4,
(PID.TID 0000.0001) >#
(PID.TID 0000.0001) > diffKhT=1.E1,
(PID.TID 0000.0001) > diffKrT=1.E-5,
(PID.TID 0000.0001) > diffKhS=1.E1,
(PID.TID 0000.0001) > diffKrS=1.E-5,
(PID.TID 0000.0001) >#
(PID.TID 0000.0001) >### diffKrBL79surf=0.1E-4,
(PID.TID 0000.0001) >### diffKrBL79deep=1.0E-4,
(PID.TID 0000.0001) > bottomDragQuadratic = 0.001,
(PID.TID 0000.0001) >#when using ggl90
(PID.TID 0000.0001) > ivdc_kappa=10.,
(PID.TID 0000.0001) > implicitDiffusion=.TRUE.,
(PID.TID 0000.0001) > implicitViscosity=.TRUE.,
(PID.TID 0000.0001) > useRealFreshWaterFlux=.TRUE.,
(PID.TID 0000.0001) ># balanceThetaClimRelax=.TRUE.,
(PID.TID 0000.0001) > balanceSaltClimRelax=.TRUE.,
(PID.TID 0000.0001) ># balanceEmPmR=.TRUE.,
(PID.TID 0000.0001) ># balanceQnet=.TRUE.,
(PID.TID 0000.0001) > allowFreezing=.FALSE.,
(PID.TID 0000.0001) >### hFacInf=0.2,
(PID.TID 0000.0001) >### hFacSup=2.0,
(PID.TID 0000.0001) > hFacMin=.2,
(PID.TID 0000.0001) > hFacMinDr=5.,
(PID.TID 0000.0001) > select_rStar=2,
(PID.TID 0000.0001) > nonlinFreeSurf=4,
(PID.TID 0000.0001) > gravity=9.81,
(PID.TID 0000.0001) > rhonil=1029.,
(PID.TID 0000.0001) > rhoConst=1029.,
(PID.TID 0000.0001) > rhoConstFresh=1000.,
(PID.TID 0000.0001) > convertFW2Salt=-1.,
(PID.TID 0000.0001) > eosType='JMD95Z',
(PID.TID 0000.0001) > implicitFreeSurface=.TRUE.,
(PID.TID 0000.0001) > exactConserv=.TRUE.,
(PID.TID 0000.0001) > useSingleCpuIO=.TRUE.,
(PID.TID 0000.0001) > tempAdvScheme=77,
(PID.TID 0000.0001) > saltAdvScheme=77,
(PID.TID 0000.0001) ># tempVertAdvScheme=3,
(PID.TID 0000.0001) ># saltVertAdvScheme=3,
(PID.TID 0000.0001) ># tempImplVertAdv=.TRUE.,
(PID.TID 0000.0001) ># saltImplVertAdv=.TRUE.,
(PID.TID 0000.0001) > staggerTimeStep=.TRUE.,
(PID.TID 0000.0001) > vectorInvariantMomentum=.TRUE.,
(PID.TID 0000.0001) >#when using the cd scheme:
(PID.TID 0000.0001) ># useCDscheme=.TRUE.,
(PID.TID 0000.0001) > useJamartWetPoints=.TRUE.,
(PID.TID 0000.0001) > readBinaryPrec=32,
(PID.TID 0000.0001) > writeBinaryPrec=32,
(PID.TID 0000.0001) > debugLevel=2,
(PID.TID 0000.0001) > &
(PID.TID 0000.0001) >
(PID.TID 0000.0001) ># Elliptic solver parameters
(PID.TID 0000.0001) > &PARM02
(PID.TID 0000.0001) > cg2dMaxIters=300,
(PID.TID 0000.0001) > cg2dTargetResWunit=1.E-12,
(PID.TID 0000.0001) > &
(PID.TID 0000.0001) >
(PID.TID 0000.0001) ># Time stepping parameters
(PID.TID 0000.0001) > &PARM03
(PID.TID 0000.0001) > nIter0=1,
(PID.TID 0000.0001) >#2 lev2 for testing:
(PID.TID 0000.0001) ># nTimeSteps       = 96,
(PID.TID 0000.0001) >#20y:
(PID.TID 0000.0001) >  nTimeSteps       = 96,
(PID.TID 0000.0001) >#60 years
(PID.TID 0000.0001) ># nTimeSteps       = 96,
(PID.TID 0000.0001) >#
(PID.TID 0000.0001) > forcing_In_AB=.FALSE.,
(PID.TID 0000.0001) > momDissip_In_AB=.FALSE.,
(PID.TID 0000.0001) >#when using the cd scheme:
(PID.TID 0000.0001) ># epsAB_CD = 0.25,
(PID.TID 0000.0001) ># tauCD=172800.0,
(PID.TID 0000.0001) > deltaT = 900.,
(PID.TID 0000.0001) >#when using ab2:
(PID.TID 0000.0001) > abEps = 0.1,
(PID.TID 0000.0001) >#when using ab3:
(PID.TID 0000.0001) ># doAB_onGtGs=.FALSE.,
(PID.TID 0000.0001) ># alph_AB=0.5,
(PID.TID 0000.0001) ># beta_AB=0.281105,
(PID.TID 0000.0001) >#
(PID.TID 0000.0001) >  pChkptFreq        = 86400.0,
(PID.TID 0000.0001) >  chkptFreq        = 86400.0,
(PID.TID 0000.0001) ># taveFreq    =31536000.0,
(PID.TID 0000.0001) ># dumpFreq    =31536000.0,
(PID.TID 0000.0001) > monitorFreq = 7200.0,
(PID.TID 0000.0001) > dumpInitAndLast = .TRUE.,
(PID.TID 0000.0001) > pickupStrictlyMatch=.FALSE.,
(PID.TID 0000.0001) > &
(PID.TID 0000.0001) >
(PID.TID 0000.0001) ># Gridding parameters
(PID.TID 0000.0001) > &PARM04
(PID.TID 0000.0001) > usingCurvilinearGrid=.TRUE.,
(PID.TID 0000.0001) > delR =
(PID.TID 0000.0001) >     10.00, 10.00, 10.00, 10.00, 10.00, 10.00, 10.00, 10.01,
(PID.TID 0000.0001) >     10.03, 10.11, 10.32, 10.80, 11.76, 13.42, 16.04, 19.82, 24.85,
(PID.TID 0000.0001) >     31.10, 38.42, 46.50, 55.00, 63.50, 71.58, 78.90, 85.15, 90.18,
(PID.TID 0000.0001) >     93.96, 96.58, 98.25, 99.25,100.01,101.33,104.56,111.33,122.83,
(PID.TID 0000.0001) >     139.09,158.94,180.83,203.55,226.50,249.50,272.50,295.50,318.50,
(PID.TID 0000.0001) >     341.50,364.50,387.50,410.50,433.50,456.50,
(PID.TID 0000.0001) > &
(PID.TID 0000.0001) >
(PID.TID 0000.0001) ># Input datasets
(PID.TID 0000.0001) > &PARM05
(PID.TID 0000.0001) >#adTapeDir='tapes',
(PID.TID 0000.0001) > bathyFile      ='bathy.bin',
(PID.TID 0000.0001) > hydrogThetaFile='T_OWPv1_M_eccollc_90x50.bin',
(PID.TID 0000.0001) > hydrogSaltFile ='S_OWPv1_M_eccollc_90x50.bin',
(PID.TID 0000.0001) > viscA4Dfile    ='viscA4Dfld.bin',
(PID.TID 0000.0001) > viscA4Zfile    ='viscA4Zfld.bin',
(PID.TID 0000.0001) > geothermalFile='geothermalFlux.bin',
(PID.TID 0000.0001) >#
(PID.TID 0000.0001) > &
(PID.TID 0000.0001) 
(PID.TID 0000.0001)  INI_PARMS ; starts to read PARM01
(PID.TID 0000.0001)  INI_PARMS ; read PARM01 : OK
(PID.TID 0000.0001)  INI_PARMS ; starts to read PARM02
(PID.TID 0000.0001)  INI_PARMS ; read PARM02 : OK
(PID.TID 0000.0001)  INI_PARMS ; starts to read PARM03
(PID.TID 0000.0001)  INI_PARMS ; read PARM03 : OK
(PID.TID 0000.0001)  INI_PARMS ; starts to read PARM04
(PID.TID 0000.0001)  INI_PARMS ; read PARM04 : OK
(PID.TID 0000.0001)  INI_PARMS ; starts to read PARM05
(PID.TID 0000.0001)  INI_PARMS ; read PARM05 : OK
(PID.TID 0000.0001)  INI_PARMS: finished reading file "data"
(PID.TID 0000.0001)  PACKAGES_BOOT: opening data.pkg
(PID.TID 0000.0001)  OPEN_COPY_DATA_FILE: opening file data.pkg
(PID.TID 0000.0001) // =======================================================
(PID.TID 0000.0001) // Parameter file "data.pkg"
(PID.TID 0000.0001) // =======================================================
(PID.TID 0000.0001) ># Packages
(PID.TID 0000.0001) > &PACKAGES
(PID.TID 0000.0001) > useGMRedi          = .TRUE.,
(PID.TID 0000.0001) > useGGL90           = .TRUE.,
(PID.TID 0000.0001) > useSALT_PLUME      = .FALSE.,
(PID.TID 0000.0001) > useDiagnostics     = .TRUE.,
(PID.TID 0000.0001) > useCTRL            = .TRUE.,
(PID.TID 0000.0001) > useSEAICE          = .TRUE.,
(PID.TID 0000.0001) > &
(PID.TID 0000.0001) 
(PID.TID 0000.0001)  PACKAGES_BOOT: finished reading data.pkg
(PID.TID 0000.0001)  PACKAGES_BOOT: On/Off package Summary
 --------  pkgs with a standard "usePKG" On/Off switch in "data.pkg":  --------
 pkg/ggl90                compiled   and   used ( useGGL90                 = T )
 pkg/gmredi               compiled   and   used ( useGMRedi                = T )
 pkg/ctrl                 compiled   and   used ( useCTRL                  = T )
 pkg/seaice               compiled   and   used ( useSEAICE                = T )
 pkg/salt_plume           compiled but not used ( useSALT_PLUME            = F )
 pkg/diagnostics          compiled   and   used ( useDiagnostics           = T )
 -------- pkgs without standard "usePKG" On/Off switch in "data.pkg":  --------
 pkg/generic_advdiff      compiled   and   used ( useGAD                   = T )
 pkg/mom_common           compiled   and   used ( momStepping              = T )
 pkg/mom_vecinv           compiled   and   used ( +vectorInvariantMomentum = T )
 pkg/mom_fluxform         compiled but not used ( & not vectorInvariantMom = F )
 pkg/monitor              compiled   and   used ( monitorFreq > 0.         = T )
 pkg/debug                compiled but not used ( debugMode                = F )
 pkg/exch2                compiled   and   used
 pkg/rw                   compiled   and   used
 pkg/mdsio                compiled   and   used
(PID.TID 0000.0001)  PACKAGES_BOOT: End of package Summary
(PID.TID 0000.0001) 
(PID.TID 0000.0001)  GGL90_READPARMS: opening data.ggl90
(PID.TID 0000.0001)  OPEN_COPY_DATA_FILE: opening file data.ggl90
(PID.TID 0000.0001) // =======================================================
(PID.TID 0000.0001) // Parameter file "data.ggl90"
(PID.TID 0000.0001) // =======================================================
(PID.TID 0000.0001) ># =====================================================================
(PID.TID 0000.0001) ># | Parameters for Gaspar et al. (1990)'s TKE vertical mixing scheme  |
(PID.TID 0000.0001) ># =====================================================================
(PID.TID 0000.0001) > &GGL90_PARM01
(PID.TID 0000.0001) ># GGL90taveFreq = 345600000.,
(PID.TID 0000.0001) ># GGL90dumpFreq = 86400.,
(PID.TID 0000.0001) ># GGL90writeState=.FALSE.,
(PID.TID 0000.0001) ># GGL90diffTKEh=3.e3,
(PID.TID 0000.0001) > GGL90alpha=30.,
(PID.TID 0000.0001) ># GGL90TKEFile = 'TKE_init.bin',
(PID.TID 0000.0001) > GGL90TKEmin  = 1.e-7,
(PID.TID 0000.0001) > GGL90TKEbottom = 1.e-6,
(PID.TID 0000.0001) > mxlMaxFlag =2,
(PID.TID 0000.0001) > mxlSurfFlag=.TRUE.,
(PID.TID 0000.0001) > &
(PID.TID 0000.0001) 
(PID.TID 0000.0001)  GGL90_READPARMS ; starts to read GGL90_PARM01
(PID.TID 0000.0001)  GGL90_READPARMS: read GGL90_PARM01 : OK
(PID.TID 0000.0001)  GGL90_READPARMS: finished reading data.ggl90
(PID.TID 0000.0001) // =======================================================
(PID.TID 0000.0001) // GGL90 configuration
(PID.TID 0000.0001) // =======================================================
(PID.TID 0000.0001) GGL90dumpFreq =   /* GGL90 state write out interval ( s ). */
(PID.TID 0000.0001)                 0.000000000000000E+00
(PID.TID 0000.0001)     ;
(PID.TID 0000.0001) GGL90taveFreq =   /* GGL90 averaging interval ( s ). */
(PID.TID 0000.0001)                 0.000000000000000E+00
(PID.TID 0000.0001)     ;
(PID.TID 0000.0001) GGL90mixingMAPS =   /* GGL90 IO flag. */
(PID.TID 0000.0001)                   F
(PID.TID 0000.0001)     ;
(PID.TID 0000.0001) GGL90writeState =   /* GGL90 IO flag. */
(PID.TID 0000.0001)                   F
(PID.TID 0000.0001)     ;
(PID.TID 0000.0001) GGL90ck =   /* GGL90 viscosity parameter. */
(PID.TID 0000.0001)                 1.000000000000000E-01
(PID.TID 0000.0001)     ;
(PID.TID 0000.0001) GGL90ceps =   /* GGL90 dissipation parameter. */
(PID.TID 0000.0001)                 7.000000000000000E-01
(PID.TID 0000.0001)     ;
(PID.TID 0000.0001) GGL90alpha =   /* GGL90 TKE diffusivity parameter. */
(PID.TID 0000.0001)                 3.000000000000000E+01
(PID.TID 0000.0001)     ;
(PID.TID 0000.0001) GGL90m2 =   /* GGL90 wind stress to vertical stress ratio. */
(PID.TID 0000.0001)                 3.750000000000000E+00
(PID.TID 0000.0001)     ;
(PID.TID 0000.0001) GGL90TKEmin =   /* GGL90 minimum kinetic energy ( m^2/s^2 ). */
(PID.TID 0000.0001)                 1.000000000000000E-07
(PID.TID 0000.0001)     ;
(PID.TID 0000.0001) GGL90TKEsurfMin =   /* GGL90 minimum surface kinetic energy ( m^2/s^2 ). */
(PID.TID 0000.0001)                 1.000000000000000E-04
(PID.TID 0000.0001)     ;
(PID.TID 0000.0001) GGL90TKEbottom =   /* GGL90 bottom kinetic energy ( m^2/s^2 ). */
(PID.TID 0000.0001)                 1.000000000000000E-06
(PID.TID 0000.0001)     ;
(PID.TID 0000.0001) GGL90viscMax =   /* GGL90 upper limit for viscosity ( m^2/s ). */
(PID.TID 0000.0001)                 1.000000000000000E+02
(PID.TID 0000.0001)     ;
(PID.TID 0000.0001) GGL90diffMax =   /* GGL90 upper limit for diffusivity ( m^2/s ). */
(PID.TID 0000.0001)                 1.000000000000000E+02
(PID.TID 0000.0001)     ;
(PID.TID 0000.0001) GGL90diffTKEh =   /* GGL90 horizontal diffusivity for TKE ( m^2/s ). */
(PID.TID 0000.0001)                 0.000000000000000E+00
(PID.TID 0000.0001)     ;
(PID.TID 0000.0001) GGL90mixingLengthMin =   /* GGL90 minimum mixing length ( m ). */
(PID.TID 0000.0001)                 1.000000000000000E-08
(PID.TID 0000.0001)     ;
(PID.TID 0000.0001) mxlMaxFlag =   /* Flag for limiting mixing-length method */
(PID.TID 0000.0001)                       2
(PID.TID 0000.0001)     ;
(PID.TID 0000.0001) mxlSurfFlag =   /* GGL90 flag for near surface mixing. */
(PID.TID 0000.0001)                   T
(PID.TID 0000.0001)     ;
(PID.TID 0000.0001) calcMeanVertShear = /* calc Mean of Vert.Shear (vs shear of Mean flow) */
(PID.TID 0000.0001)                   F
(PID.TID 0000.0001)     ;
(PID.TID 0000.0001) GGL90: GGL90TKEFile =
(PID.TID 0000.0001) GGL90writeState =   /* GGL90 Boundary condition flag. */
(PID.TID 0000.0001)                   T
(PID.TID 0000.0001)     ;
(PID.TID 0000.0001) // =======================================================
(PID.TID 0000.0001) // End of GGL90 config. summary
(PID.TID 0000.0001) // =======================================================
(PID.TID 0000.0001) 
(PID.TID 0000.0001)  GM_READPARMS: opening data.gmredi
(PID.TID 0000.0001)  OPEN_COPY_DATA_FILE: opening file data.gmredi
(PID.TID 0000.0001) // =======================================================
(PID.TID 0000.0001) // Parameter file "data.gmredi"
(PID.TID 0000.0001) // =======================================================
(PID.TID 0000.0001) ># GM+Redi package parameters:
(PID.TID 0000.0001) >#     GM_Small_Number  :: epsilon used in computing the slope
(PID.TID 0000.0001) >#     GM_slopeSqCutoff :: slope^2 cut-off value
(PID.TID 0000.0001) >
(PID.TID 0000.0001) >#-from MOM :
(PID.TID 0000.0001) ># GM_background_K: 	G & Mc.W  diffusion coefficient
(PID.TID 0000.0001) ># GM_maxSlope    :	max slope of isopycnals
(PID.TID 0000.0001) ># GM_Scrit       :	transition for scaling diffusion coefficient
(PID.TID 0000.0001) ># GM_Sd          :	half width scaling for diffusion coefficient
(PID.TID 0000.0001) ># GM_taper_scheme:	slope clipping or one of the tapering schemes
(PID.TID 0000.0001) ># GM_Kmin_horiz  :	horizontal diffusion minimum value
(PID.TID 0000.0001) >
(PID.TID 0000.0001) >#-Option parameters (needs to "define" options in GMREDI_OPTIONS.h")
(PID.TID 0000.0001) ># GM_isopycK     :	isopycnal diffusion coefficient (default=GM_background_K)
(PID.TID 0000.0001) ># GM_AdvForm     :	turn on GM Advective form       (default=Skew flux form)
(PID.TID 0000.0001) >
(PID.TID 0000.0001) > &GM_PARM01
(PID.TID 0000.0001) >  GM_Small_Number  = 1.D-20,
(PID.TID 0000.0001) >  GM_slopeSqCutoff = 1.D+08,
(PID.TID 0000.0001) >  GM_AdvForm         = .TRUE.,
(PID.TID 0000.0001) >  GM_isopycK         = 1.D+3,
(PID.TID 0000.0001) >  GM_background_K    = 1.D+3,
(PID.TID 0000.0001) >  GM_maxSlope        = 4.D-3,
(PID.TID 0000.0001) >  GM_taper_scheme    = 'stableGmAdjTap',
(PID.TID 0000.0001) >  GM_Kmin_horiz      = 100.,
(PID.TID 0000.0001) >  GM_Scrit           = 4.D-3,
(PID.TID 0000.0001) >  GM_Sd              = 1.D-3,
(PID.TID 0000.0001) >#
(PID.TID 0000.0001) >###  GM_Visbeck_alpha   = 1.5D-2,
(PID.TID 0000.0001) >###  GM_Visbeck_alpha   = 0.D0,
(PID.TID 0000.0001) >###  GM_Visbeck_length  = 2.D+5,
(PID.TID 0000.0001) >###  GM_Visbeck_depth   = 1.D+3,
(PID.TID 0000.0001) >###  GM_Visbeck_maxval_K= 2.5D+3,
(PID.TID 0000.0001) > &
(PID.TID 0000.0001) >
(PID.TID 0000.0001) >
(PID.TID 0000.0001) 
(PID.TID 0000.0001)  GM_READPARMS: finished reading data.gmredi
(PID.TID 0000.0001) 
(PID.TID 0000.0001)  SEAICE_READPARMS: opening data.seaice
(PID.TID 0000.0001)  OPEN_COPY_DATA_FILE: opening file data.seaice
(PID.TID 0000.0001) // =======================================================
(PID.TID 0000.0001) // Parameter file "data.seaice"
(PID.TID 0000.0001) // =======================================================
(PID.TID 0000.0001) ># SEAICE parameters
(PID.TID 0000.0001) > &SEAICE_PARM01
(PID.TID 0000.0001) > usePW79thermodynamics= .FALSE.,
(PID.TID 0000.0001) ># SEAICEuseDYNAMICS = .FALSE.,
(PID.TID 0000.0001) ># SEAICEupdateOceanStress=.FALSE.,
(PID.TID 0000.0001) ># SEAICEadvHeff  = .FALSE.,
(PID.TID 0000.0001) ># SEAICEadvArea  = .FALSE.,
(PID.TID 0000.0001) ># SEAICEadvSnow  = .FALSE.,
(PID.TID 0000.0001) ># SEAICEadvSalt  = .FALSE.,
(PID.TID 0000.0001) >#--
(PID.TID 0000.0001) > SEAICE_strength    = 2.6780e+04,
(PID.TID 0000.0001) > OCEAN_drag         = 8.1541e-04,
(PID.TID 0000.0001) ># SEAICE_waterDrag   = 5.3508,
(PID.TID 0000.0001) >#- waterDrag no longer includes rhoConst factor:
(PID.TID 0000.0001) ># SEAICE_waterDrag   = 5.16985507246376811E-3,
(PID.TID 0000.0001) >  SEAICE_waterDrag   = 5.169855072463768E-3,
(PID.TID 0000.0001) >#- old defaults
(PID.TID 0000.0001) >  SEAICEscaleSurfStress = .FALSE.,
(PID.TID 0000.0001) >  SEAICEaddSnowMass     = .FALSE.,
(PID.TID 0000.0001) >  SEAICE_useMultDimSnow = .FALSE.,
(PID.TID 0000.0001) >  SEAICE_Olx = 0,
(PID.TID 0000.0001) >  SEAICE_Oly = 0,
(PID.TID 0000.0001) >  SEAICEetaZmethod = 0,
(PID.TID 0000.0001) >  SEAICE_drag = 2.E-3,
(PID.TID 0000.0001) >#--
(PID.TID 0000.0001) > SEAICE_no_Slip     = .FALSE.,
(PID.TID 0000.0001) > LSR_ERROR          = 1.E-4,
(PID.TID 0000.0001) > SEAICElinearIterMax=  500,
(PID.TID 0000.0001) >#LSR_mixIniGuess    = 1,
(PID.TID 0000.0001) > SEAICEadvScheme    = 77,
(PID.TID 0000.0001) > AreaFile  = 'const100.bin',
(PID.TID 0000.0001) > HeffFile  = 'const+20.bin',
(PID.TID 0000.0001) > HsnowFile = 'const_00.bin',
(PID.TID 0000.0001) > SEAICEwriteState   = .TRUE.,
(PID.TID 0000.0001) >#SEAICE_monFreq = 1800.,
(PID.TID 0000.0001) > &
(PID.TID 0000.0001) >
(PID.TID 0000.0001) > &SEAICE_PARM03
(PID.TID 0000.0001) > &
(PID.TID 0000.0001) 
(PID.TID 0000.0001)  SEAICE_READPARMS: finished reading data.seaice
(PID.TID 0000.0001) OPTIM_READPARMS: opening data.optim
(PID.TID 0000.0001)  OPEN_COPY_DATA_FILE: opening file data.optim
(PID.TID 0000.0001) // =======================================================
(PID.TID 0000.0001) // Parameter file "data.optim"
(PID.TID 0000.0001) // =======================================================
(PID.TID 0000.0001) >#
(PID.TID 0000.0001) ># ********************************
(PID.TID 0000.0001) ># Off-line optimization parameters
(PID.TID 0000.0001) ># ********************************
(PID.TID 0000.0001) > &OPTIM
(PID.TID 0000.0001) > optimcycle=12,
(PID.TID 0000.0001) > &
(PID.TID 0000.0001) 
(PID.TID 0000.0001) OPTIM_READPARMS: finished reading data.optim
(PID.TID 0000.0001) CTRL_READPARMS: opening data.ctrl
(PID.TID 0000.0001)  OPEN_COPY_DATA_FILE: opening file data.ctrl
(PID.TID 0000.0001) // =======================================================
(PID.TID 0000.0001) // Parameter file "data.ctrl"
(PID.TID 0000.0001) // =======================================================
(PID.TID 0000.0001) ># *********************
(PID.TID 0000.0001) ># ECCO control variables
(PID.TID 0000.0001) ># *********************
(PID.TID 0000.0001) > &ctrl_nml
(PID.TID 0000.0001) > doSinglePrecTapelev=.TRUE.,
(PID.TID 0000.0001) >#to start from given xx*00.data files
(PID.TID 0000.0001) >  doinitxx = .FALSE.,
(PID.TID 0000.0001) >  doMainUnpack = .FALSE.,
(PID.TID 0000.0001) >#to start from given ecco_ctrl... files
(PID.TID 0000.0001) ># doinitxx = .FALSE.,
(PID.TID 0000.0001) > &
(PID.TID 0000.0001) >#
(PID.TID 0000.0001) ># *********************
(PID.TID 0000.0001) ># names for ctrl_pack/unpack
(PID.TID 0000.0001) ># *********************
(PID.TID 0000.0001) > &ctrl_packnames
(PID.TID 0000.0001) > &
(PID.TID 0000.0001) >#
(PID.TID 0000.0001) ># *********************
(PID.TID 0000.0001) ># names for CTRL_GENARR2D,3D CTRL_GENTIM2D
(PID.TID 0000.0001) ># *********************
(PID.TID 0000.0001) > &CTRL_NML_GENARR
(PID.TID 0000.0001) >#
(PID.TID 0000.0001) > xx_genarr3d_weight(1) = 'wt_ones.data',
(PID.TID 0000.0001) > xx_genarr3d_file(1)='xx_kapgm',
(PID.TID 0000.0001) > mult_genarr3d(1) = 0.,
(PID.TID 0000.0001) >#
(PID.TID 0000.0001) > xx_genarr3d_weight(2) = 'wt_ones.data',
(PID.TID 0000.0001) > xx_genarr3d_file(2)='xx_kapredi',
(PID.TID 0000.0001) > mult_genarr3d(2) = 0.,
(PID.TID 0000.0001) >#
(PID.TID 0000.0001) > xx_genarr3d_weight(3) = 'wt_ones.data',
(PID.TID 0000.0001) > xx_genarr3d_file(3)='xx_diffkr',
(PID.TID 0000.0001) > mult_genarr3d(3) = 0.,
(PID.TID 0000.0001) >#
(PID.TID 0000.0001) > &
(PID.TID 0000.0001) 
(PID.TID 0000.0001) CTRL_READPARMS: finished reading data.ctrl
(PID.TID 0000.0001)  DIAGNOSTICS_READPARMS: opening data.diagnostics
(PID.TID 0000.0001)  OPEN_COPY_DATA_FILE: opening file data.diagnostics
(PID.TID 0000.0001) // =======================================================
(PID.TID 0000.0001) // Parameter file "data.diagnostics"
(PID.TID 0000.0001) // =======================================================
(PID.TID 0000.0001) ># Diagnostic Package Choices
(PID.TID 0000.0001) >#--------------------
(PID.TID 0000.0001) >#  dumpAtLast (logical): always write output at the end of simulation (default=F)
(PID.TID 0000.0001) >#  diag_mnc   (logical): write to NetCDF files (default=useMNC)
(PID.TID 0000.0001) >#--for each output-stream:
(PID.TID 0000.0001) >#  fileName(n) : prefix of the output file name (max 80c long) for outp.stream n
(PID.TID 0000.0001) >#  frequency(n):< 0 : write snap-shot output every |frequency| seconds
(PID.TID 0000.0001) >#               > 0 : write time-average output every frequency seconds
(PID.TID 0000.0001) >#  timePhase(n)     : write at time = timePhase + multiple of |frequency|
(PID.TID 0000.0001) >#    averagingFreq  : frequency (in s) for periodic averaging interval
(PID.TID 0000.0001) >#    averagingPhase : phase     (in s) for periodic averaging interval
(PID.TID 0000.0001) >#    repeatCycle    : number of averaging intervals in 1 cycle
(PID.TID 0000.0001) >#  levels(:,n) : list of levels to write to file (Notes: declared as REAL)
(PID.TID 0000.0001) >#                when this entry is missing, select all common levels of this list
(PID.TID 0000.0001) >#  fields(:,n) : list of selected diagnostics fields (8.c) in outp.stream n
(PID.TID 0000.0001) >#                (see "available_diagnostics.log" file for the full list of diags)
(PID.TID 0000.0001) >#  missing_value(n) : missing value for real-type fields in output file "n"
(PID.TID 0000.0001) >#  fileFlags(n)     : specific code (8c string) for output file "n"
(PID.TID 0000.0001) >#--------------------
(PID.TID 0000.0001) ># This example dumps EXF diagnostics as snapshot after 10 time-steps
(PID.TID 0000.0001) ># Note: EXF air-sea fluxes over Sea-Ice are wrong
(PID.TID 0000.0001) > &DIAGNOSTICS_LIST
(PID.TID 0000.0001) >   dumpAtLast  = .TRUE.,
(PID.TID 0000.0001) >#--
(PID.TID 0000.0001) >  fields(1:10,1)  = 'oceQnet ','oceQsw  ','oceFWflx','oceSflux',
(PID.TID 0000.0001) >                      'oceTAUX ','oceTAUY ',
(PID.TID 0000.0001) >                      'THETA   ','SALT    ','UVEL    ', 'VVEL    ',
(PID.TID 0000.0001) >  fileName(1) = 'surfDiag',
(PID.TID 0000.0001) >  frequency(1) = 3600.,
(PID.TID 0000.0001) >
(PID.TID 0000.0001) >  fields(1:8,2)  = 'SIarea  ','SIheff  ','SIhsnow ','sIceLoad',
(PID.TID 0000.0001) >                   'SIuice  ','SIvice  ','SItaux  ','SItauy  ',
(PID.TID 0000.0001) >   fileName(2) = 'iceDiag',
(PID.TID 0000.0001) >  frequency(2) =  3600.,
(PID.TID 0000.0001) >  missing_value(2) = -999.,
(PID.TID 0000.0001) >
(PID.TID 0000.0001) >  fields(1:9,3)  = 'SIarea  ','SIheff  ','SIhsnow ','sIceLoad',
(PID.TID 0000.0001) >                   'SIuice  ','SIvice  ','SItaux  ','SItauy  ',
(PID.TID 0000.0001) >                   'CPLoWGHT',
(PID.TID 0000.0001) >#  fileName(3) = 'iceInst',
(PID.TID 0000.0001) >  frequency(3) = -3600.,
(PID.TID 0000.0001) >  timePhase(3) =  0.,
(PID.TID 0000.0001) >  missing_value(3) = -999.,
(PID.TID 0000.0001) >
(PID.TID 0000.0001) >  fields(1:11,4) = 'SIareaN ','SIheffN ','SIhsnowN','SIqSnow ',
(PID.TID 0000.0001) >                   'SImeltPd','SItIces ','SIiceAge',
(PID.TID 0000.0001) >                   'SI_dArea','SI_dHeff','SI_dHsnw','SI_dQSnw',
(PID.TID 0000.0001) >#                  'SI_dMPnd',
(PID.TID 0000.0001) >#                  'SI_dTIce','SI_dIcAg',
(PID.TID 0000.0001) >  fileName(4) = 'iceNcat',
(PID.TID 0000.0001) >  frequency(4) = 3600.,
(PID.TID 0000.0001) >  timePhase(4) = 0.,
(PID.TID 0000.0001) >  fileFlags(4) = 'D       ',
(PID.TID 0000.0001) >
(PID.TID 0000.0001) >  fields(1:2,5)  = 'SIqIce  ',
(PID.TID 0000.0001) >                   'SI_dQIce',
(PID.TID 0000.0001) >  fileName(5) = 'iceEnerg',
(PID.TID 0000.0001) >  frequency(5) = -3600.,
(PID.TID 0000.0001) >  timePhase(5) =  0.,
(PID.TID 0000.0001) >
(PID.TID 0000.0001) >  fields(1:2,6)  = 'SIqSnow ',
(PID.TID 0000.0001) >                   'SI_dQSnw',
(PID.TID 0000.0001) >  fileName(6) = 'snowEnerg',
(PID.TID 0000.0001) >  frequency(6) = -3600.,
(PID.TID 0000.0001) >  timePhase(6) =  0.,
(PID.TID 0000.0001) > &
(PID.TID 0000.0001) >
(PID.TID 0000.0001) >#--------------------
(PID.TID 0000.0001) ># Parameter for Diagnostics of per level statistics:
(PID.TID 0000.0001) >#--------------------
(PID.TID 0000.0001) >#  diagSt_mnc (logical): write stat-diags to NetCDF files (default=diag_mnc)
(PID.TID 0000.0001) >#  diagSt_regMaskFile : file containing the region-mask to read-in
(PID.TID 0000.0001) >#  nSetRegMskFile   : number of region-mask sets within the region-mask file
(PID.TID 0000.0001) >#  set_regMask(i)   : region-mask set-index that identifies the region "i"
(PID.TID 0000.0001) >#  val_regMask(i)   : region "i" identifier value in the region mask
(PID.TID 0000.0001) >#--for each output-stream:
(PID.TID 0000.0001) >#  stat_fName(n) : prefix of the output file name (max 80c long) for outp.stream n
(PID.TID 0000.0001) >#  stat_freq(n):< 0 : write snap-shot output every |stat_freq| seconds
(PID.TID 0000.0001) >#               > 0 : write time-average output every stat_freq seconds
(PID.TID 0000.0001) >#  stat_phase(n)    : write at time = stat_phase + multiple of |stat_freq|
(PID.TID 0000.0001) >#  stat_region(:,n) : list of "regions" (default: 1 region only=global)
(PID.TID 0000.0001) >#  stat_fields(:,n) : list of selected diagnostics fields (8.c) in outp.stream n
(PID.TID 0000.0001) >#                (see "available_diagnostics.log" file for the full list of diags)
(PID.TID 0000.0001) >#--------------------
(PID.TID 0000.0001) > &DIAG_STATIS_PARMS
(PID.TID 0000.0001) > stat_fields(1:21,1)  = 'SIarea  ','SIheff  ','SIhsnow ','sIceLoad',
(PID.TID 0000.0001) >                        'SIuice  ','SIvice  ','SItaux  ','SItauy  ',
(PID.TID 0000.0001) >                        'SIareaN ','SIheffN ','SIhsnowN',
(PID.TID 0000.0001) >                        'SIqSnow ','SIqIce  ','SImeltPd',
(PID.TID 0000.0001) >                        'SItIces ','SIiceAge',
(PID.TID 0000.0001) >                        'SI_dArea','SI_dHeff','SI_dHsnw',
(PID.TID 0000.0001) >                        'SI_dQSnw','SI_dQIce',
(PID.TID 0000.0001) >#                       'SI_dMPnd','SI_dTIce','SI_dIcAg',
(PID.TID 0000.0001) >  stat_fName(1) = 'iceStDiag',
(PID.TID 0000.0001) >   stat_freq(1) = 3600.,
(PID.TID 0000.0001) ># stat_phase(1) = 1800.,
(PID.TID 0000.0001) > &
(PID.TID 0000.0001) 
(PID.TID 0000.0001) S/R DIAGNOSTICS_READPARMS, read namelist "diagnostics_list": start
(PID.TID 0000.0001) S/R DIAGNOSTICS_READPARMS, read namelist "diagnostics_list": OK
(PID.TID 0000.0001) S/R DIAGNOSTICS_READPARMS, read namelist "DIAG_STATIS_PARMS": start
(PID.TID 0000.0001) S/R DIAGNOSTICS_READPARMS, read namelist "DIAG_STATIS_PARMS": OK
(PID.TID 0000.0001)  DIAGNOSTICS_READPARMS: global parameter summary:
(PID.TID 0000.0001)  dumpAtLast = /* always write time-ave diags at the end */
(PID.TID 0000.0001)                   T
(PID.TID 0000.0001)     ;
(PID.TID 0000.0001)  diag_mnc =   /* write NetCDF output files */
(PID.TID 0000.0001)                   F
(PID.TID 0000.0001)     ;
(PID.TID 0000.0001)  useMissingValue = /* put MissingValue where mask = 0 */
(PID.TID 0000.0001)                   F
(PID.TID 0000.0001)     ;
(PID.TID 0000.0001)  diagCG_maxIters = /* max number of iters in diag_cg2d */
(PID.TID 0000.0001)                     300
(PID.TID 0000.0001)     ;
(PID.TID 0000.0001)  diagCG_resTarget = /* residual target for diag_cg2d */
(PID.TID 0000.0001)                 1.000000000000000E-07
(PID.TID 0000.0001)     ;
(PID.TID 0000.0001)  diagCG_pcOffDFac = /* preconditioner off-diagonal factor */
(PID.TID 0000.0001)                 9.611687812379854E-01
(PID.TID 0000.0001)     ;
(PID.TID 0000.0001) -----------------------------------------------------
(PID.TID 0000.0001)  DIAGNOSTICS_READPARMS: active diagnostics summary:
(PID.TID 0000.0001) -----------------------------------------------------
(PID.TID 0000.0001) Creating Output Stream: surfDiag
(PID.TID 0000.0001) Output Frequency:       3600.000000 ; Phase:           0.000000
(PID.TID 0000.0001)  Averaging Freq.:       3600.000000 , Phase:           0.000000 , Cycle:   1
(PID.TID 0000.0001)  missing value: -9.990000000000E+02
(PID.TID 0000.0001)  Levels:    will be set later
(PID.TID 0000.0001)  Fields:    oceQnet  oceQsw   oceFWflx oceSflux oceTAUX  oceTAUY  THETA    SALT     UVEL     VVEL
(PID.TID 0000.0001) Creating Output Stream: iceDiag
(PID.TID 0000.0001) Output Frequency:       3600.000000 ; Phase:           0.000000
(PID.TID 0000.0001)  Averaging Freq.:       3600.000000 , Phase:           0.000000 , Cycle:   1
(PID.TID 0000.0001)  missing value: -9.990000000000E+02
(PID.TID 0000.0001)  Levels:    will be set later
(PID.TID 0000.0001)  Fields:    SIarea   SIheff   SIhsnow  sIceLoad SIuice   SIvice   SItaux   SItauy
(PID.TID 0000.0001) Creating Output Stream: iceNcat
(PID.TID 0000.0001) Output Frequency:       3600.000000 ; Phase:           0.000000
(PID.TID 0000.0001)  Averaging Freq.:       3600.000000 , Phase:           0.000000 , Cycle:   1
(PID.TID 0000.0001)  missing value: -9.990000000000E+02 ; F-Flags="D       "
(PID.TID 0000.0001)  Levels:    will be set later
(PID.TID 0000.0001)  Fields:    SIareaN  SIheffN  SIhsnowN SIqSnow  SImeltPd SItIces  SIiceAge SI_dArea SI_dHeff SI_dHsnw
(PID.TID 0000.0001)  Fields:    SI_dQSnw
(PID.TID 0000.0001) Creating Output Stream: iceEnerg
(PID.TID 0000.0001) Output Frequency:      -3600.000000 ; Phase:           0.000000
(PID.TID 0000.0001)  Averaging Freq.:          0.000000 , Phase:           0.000000 , Cycle:   1
(PID.TID 0000.0001)  missing value: -9.990000000000E+02
(PID.TID 0000.0001)  Levels:    will be set later
(PID.TID 0000.0001)  Fields:    SIqIce   SI_dQIce
(PID.TID 0000.0001) Creating Output Stream: snowEnerg
(PID.TID 0000.0001) Output Frequency:      -3600.000000 ; Phase:           0.000000
(PID.TID 0000.0001)  Averaging Freq.:          0.000000 , Phase:           0.000000 , Cycle:   1
(PID.TID 0000.0001)  missing value: -9.990000000000E+02
(PID.TID 0000.0001)  Levels:    will be set later
(PID.TID 0000.0001)  Fields:    SIqSnow  SI_dQSnw
(PID.TID 0000.0001) -----------------------------------------------------
(PID.TID 0000.0001)  DIAGNOSTICS_READPARMS: statistics diags. summary:
(PID.TID 0000.0001) Creating Stats. Output Stream: iceStDiag
(PID.TID 0000.0001) Output Frequency:       3600.000000 ; Phase:           0.000000
(PID.TID 0000.0001)  Regions:   0
(PID.TID 0000.0001)  Fields:    SIarea   SIheff   SIhsnow  sIceLoad SIuice   SIvice   SItaux   SItauy   SIareaN  SIheffN
(PID.TID 0000.0001)  Fields:    SIhsnowN SIqSnow  SIqIce   SImeltPd SItIces  SIiceAge SI_dArea SI_dHeff SI_dHsnw SI_dQSnw
(PID.TID 0000.0001)  Fields:    SI_dQIce
(PID.TID 0000.0001) -----------------------------------------------------
(PID.TID 0000.0001) 
(PID.TID 0000.0001) SET_PARMS: done
(PID.TID 0000.0001) Enter INI_VERTICAL_GRID: setInterFDr=    T ; setCenterDr=    F
(PID.TID 0000.0001) tile:   4 ; Read from file tile001.mitgrid
(PID.TID 0000.0001)   => xC yC dxF dyF rA xG yG dxV dyU rAz dxC dyC rAw rAs dxG dyG
(PID.TID 0000.0001) %MON XC_max                       =   1.7997758946678E+02
(PID.TID 0000.0001) %MON XC_min                       =  -1.7998895680928E+02
(PID.TID 0000.0001) %MON XC_mean                      =  -6.8997670631350E+00
(PID.TID 0000.0001) %MON XC_sd                        =   1.0548127462941E+02
(PID.TID 0000.0001) %MON XG_max                       =   1.8000000000000E+02
(PID.TID 0000.0001) %MON XG_min                       =  -1.7999919444240E+02
(PID.TID 0000.0001) %MON XG_mean                      =  -6.3521159278861E+00
(PID.TID 0000.0001) %MON XG_sd                        =   1.0549598176576E+02
(PID.TID 0000.0001) %MON DXC_max                      =   1.1117680031365E+05
(PID.TID 0000.0001) %MON DXC_min                      =   1.3362789164732E+04
(PID.TID 0000.0001) %MON DXC_mean                     =   7.1345115143606E+04
(PID.TID 0000.0001) %MON DXC_sd                       =   2.6107013089865E+04
(PID.TID 0000.0001) %MON DXF_max                      =   1.1117680031365E+05
(PID.TID 0000.0001) %MON DXF_min                      =   1.3491575949394E+04
(PID.TID 0000.0001) %MON DXF_mean                     =   7.1334806791260E+04
(PID.TID 0000.0001) %MON DXF_sd                       =   2.6121349328995E+04
(PID.TID 0000.0001) %MON DXG_max                      =   1.1117747335204E+05
(PID.TID 0000.0001) %MON DXG_min                      =   1.0930409249570E+04
(PID.TID 0000.0001) %MON DXG_mean                     =   7.1313583950284E+04
(PID.TID 0000.0001) %MON DXG_sd                       =   2.6131714747840E+04
(PID.TID 0000.0001) %MON DXV_max                      =   1.1117747335204E+05
(PID.TID 0000.0001) %MON DXV_min                      =   9.4742518926426E+03
(PID.TID 0000.0001) %MON DXV_mean                     =   7.1323777998314E+04
(PID.TID 0000.0001) %MON DXV_sd                       =   2.6117603792432E+04
(PID.TID 0000.0001) %MON YC_max                       =   8.9739397429324E+01
(PID.TID 0000.0001) %MON YC_min                       =  -8.1637173529390E+01
(PID.TID 0000.0001) %MON YC_mean                      =  -5.9338515025079E-01
(PID.TID 0000.0001) %MON YC_sd                        =   5.1058908630085E+01
(PID.TID 0000.0001) %MON YG_max                       =   9.0000000000000E+01
(PID.TID 0000.0001) %MON YG_min                       =  -8.1805478609906E+01
(PID.TID 0000.0001) %MON YG_mean                      =  -5.7357831765458E-01
(PID.TID 0000.0001) %MON YG_sd                        =   5.1060174609345E+01
(PID.TID 0000.0001) %MON DYC_max                      =   1.1117680031365E+05
(PID.TID 0000.0001) %MON DYC_min                      =   1.3362789164732E+04
(PID.TID 0000.0001) %MON DYC_mean                     =   7.0982792089666E+04
(PID.TID 0000.0001) %MON DYC_sd                       =   2.6607387075348E+04
(PID.TID 0000.0001) %MON DYF_max                      =   1.1117680031365E+05
(PID.TID 0000.0001) %MON DYF_min                      =   1.3491575949394E+04
(PID.TID 0000.0001) %MON DYF_mean                     =   7.1000127494934E+04
(PID.TID 0000.0001) %MON DYF_sd                       =   2.6603606017547E+04
(PID.TID 0000.0001) %MON DYG_max                      =   1.1117747335204E+05
(PID.TID 0000.0001) %MON DYG_min                      =   1.0930409249570E+04
(PID.TID 0000.0001) %MON DYG_mean                     =   7.1022116512585E+04
(PID.TID 0000.0001) %MON DYG_sd                       =   2.6571715830406E+04
(PID.TID 0000.0001) %MON DYU_max                      =   1.1117747335204E+05
(PID.TID 0000.0001) %MON DYU_min                      =   9.4742518926426E+03
(PID.TID 0000.0001) %MON DYU_mean                     =   7.1004694583927E+04
(PID.TID 0000.0001) %MON DYU_sd                       =   2.6575655787476E+04
(PID.TID 0000.0001) %MON RA_max                       =   1.1896090857160E+10
(PID.TID 0000.0001) %MON RA_min                       =   2.1263387742345E+08
(PID.TID 0000.0001) %MON RA_mean                      =   5.6344293572480E+09
(PID.TID 0000.0001) %MON RA_sd                        =   3.5929461176606E+09
(PID.TID 0000.0001) %MON RAW_max                      =   1.1896090856781E+10
(PID.TID 0000.0001) %MON RAW_min                      =   1.7369571508711E+08
(PID.TID 0000.0001) %MON RAW_mean                     =   5.6355850434318E+09
(PID.TID 0000.0001) %MON RAW_sd                       =   3.5915487677190E+09
(PID.TID 0000.0001) %MON RAS_max                      =   1.1896090856781E+10
(PID.TID 0000.0001) %MON RAS_min                      =   1.7369571508711E+08
(PID.TID 0000.0001) %MON RAS_mean                     =   5.6320332286162E+09
(PID.TID 0000.0001) %MON RAS_sd                       =   3.5937184228135E+09
(PID.TID 0000.0001) %MON RAZ_max                      =   1.1891903479271E+10
(PID.TID 0000.0001) %MON RAZ_min                      =   1.0413402423292E+08
(PID.TID 0000.0001) %MON RAZ_mean                     =   5.6331824674695E+09
(PID.TID 0000.0001) %MON RAZ_sd                       =   3.5923307220197E+09
(PID.TID 0000.0001) %MON AngleCS_max                  =   1.0000000000000E+00
(PID.TID 0000.0001) %MON AngleCS_min                  =  -9.9996641938864E-01
(PID.TID 0000.0001) %MON AngleCS_mean                 =   4.0572930529500E-01
(PID.TID 0000.0001) %MON AngleCS_sd                   =   5.3874397836718E-01
(PID.TID 0000.0001) %MON AngleSN_max                  =   9.9996641938864E-01
(PID.TID 0000.0001) %MON AngleSN_min                  =  -1.0000000000000E+00
(PID.TID 0000.0001) %MON AngleSN_mean                 =  -4.9986154624599E-01
(PID.TID 0000.0001) %MON AngleSN_sd                   =   5.4339404779819E-01
(PID.TID 0000.0001)  MDS_READ_FIELD: opening global file: bathy.bin
(PID.TID 0000.0001) // =======================================================
(PID.TID 0000.0001) // Field Model R_low (ini_masks_etc)
(PID.TID 0000.0001) // CMIN =         -4.798482910156250E+03
(PID.TID 0000.0001) // CMAX =         -1.998999977111816E+01
(PID.TID 0000.0001) // CINT =          1.769812189031530E+02
(PID.TID 0000.0001) // SYMBOLS (CMIN->CMAX): -abcdefghijklmnopqrstuvwxyz+
(PID.TID 0000.0001) //                  0.0: .
(PID.TID 0000.0001) // RANGE I (Lo:Hi:Step):(    -3:    34:     1)
(PID.TID 0000.0001) // RANGE J (Lo:Hi:Step):(    34:    -3:    -1)
(PID.TID 0000.0001) // RANGE K (Lo:Hi:Step):(   1:   1:   1)
(PID.TID 0000.0001) // =======================================================
(PID.TID 0000.0001) K =   1
(PID.TID 0000.0001) //                I=6       I=16      I=26
(PID.TID 0000.0001) // |--J--|321012345|789012345|789012345|78901234
(PID.TID 0000.0001) //     34 ddccccbbbbbaaaaa--------------abdehjjh
(PID.TID 0000.0001) //     33 eddccccbbbbaaaaaaaaa---------abdefikmk
(PID.TID 0000.0001) //     32 eeddccccbbbbaaaaaaaaaaaaaa--abcfiijlnm
(PID.TID 0000.0001) //     31 eedddcccbbbbbaaaaabbaaaaaaa-bdgknm....
(PID.TID 0000.0001) //     30 feedddcccccbbbbbbbbbbbaaaaabfknpr.....
(PID.TID 0000.0001) //     29 feeddddddcccbbbcccbbbbbbbceilor.......
(PID.TID 0000.0001) //     28 gfeeeeeeddcccccdcccccbbceilnqu........
(PID.TID 0000.0001) //     27 hggfffffeeeeeddddddcccdfimpyy.........
(PID.TID 0000.0001) //     26 jihgggggffffeeeeeeddddfimsyy..........
(PID.TID 0000.0001) //     25 lkihhhgggggfeeeffeeefginuz............
(PID.TID 0000.0001) //     24 nmkjiihhghhgfffgggghjl+...............
(PID.TID 0000.0001) //     23 qonmkkjiiiiihhhihikmqz................
(PID.TID 0000.0001) //     22 tsqpnmlllmllkkkjknsxz.................
(PID.TID 0000.0001) //     21 wwvusppprrrponmlny+z..................
(PID.TID 0000.0001) //     20 yyyxxwvwwwwvusrwx.....................
(PID.TID 0000.0001) //     19 yyyyyyxxxxxxxxyyx.....................
(PID.TID 0000.0001) //     18 yyyyyyxxxwxxyyyyy.....................
(PID.TID 0000.0001) //     17 yyyyyxxxwwxxyyy.......................
(PID.TID 0000.0001) //     16 yyyxxxwwwwxyyyy.......................
(PID.TID 0000.0001) //     15 yyxxwwvvwxyyz.........................
(PID.TID 0000.0001) //     14 yxxwwvvvwyz...........................
(PID.TID 0000.0001) //     13 xxwwvuvwy.............................
(PID.TID 0000.0001) //     12 xwwvuuvx..............................
(PID.TID 0000.0001) //     11 yxvuuuw...............................
(PID.TID 0000.0001) //     10 ......................................
(PID.TID 0000.0001) //      9 ......................................
(PID.TID 0000.0001) //      8 ......................................
(PID.TID 0000.0001) //      7 ......................................
(PID.TID 0000.0001) //      6 ......................................
(PID.TID 0000.0001) //      5 ......................................
(PID.TID 0000.0001) //      4 ......................................
(PID.TID 0000.0001) //      3 ......................................
(PID.TID 0000.0001) //      2 ......................................
(PID.TID 0000.0001) //      1 ......................................
(PID.TID 0000.0001) //      0 ......................................
(PID.TID 0000.0001) //     -1 ......................................
(PID.TID 0000.0001) //     -2 ......................................
(PID.TID 0000.0001) //     -3 ......................................
(PID.TID 0000.0001) // =======================================================
(PID.TID 0000.0001) // END OF FIELD                                          =
(PID.TID 0000.0001) // =======================================================
(PID.TID 0000.0001) 
(PID.TID 0000.0001) // =======================================================
(PID.TID 0000.0001) // Field Model Ro_surf (ini_masks_etc)
(PID.TID 0000.0001) // CMIN =          1.000000000000000E+32
(PID.TID 0000.0001) // CMAX =         -1.000000000000000E+32
(PID.TID 0000.0001) // CINT =          0.000000000000000E+00
(PID.TID 0000.0001) // SYMBOLS (CMIN->CMAX): -abcdefghijklmnopqrstuvwxyz+
(PID.TID 0000.0001) //                  0.0: .
(PID.TID 0000.0001) // RANGE I (Lo:Hi:Step):(    -3:    34:     1)
(PID.TID 0000.0001) // RANGE J (Lo:Hi:Step):(    34:    -3:    -1)
(PID.TID 0000.0001) // RANGE K (Lo:Hi:Step):(   1:   1:   1)
(PID.TID 0000.0001) // =======================================================
(PID.TID 0000.0001) // =======================================================
(PID.TID 0000.0001) // END OF FIELD                                          =
(PID.TID 0000.0001) // =======================================================
(PID.TID 0000.0001) 
(PID.TID 0000.0001) // =======================================================
(PID.TID 0000.0001) // Field hFacC at iteration          0
(PID.TID 0000.0001) // CMIN =          1.000000000000000E+00
(PID.TID 0000.0001) // CMAX =          1.000000000000000E+00
(PID.TID 0000.0001) // CINT =          0.000000000000000E+00
(PID.TID 0000.0001) // SYMBOLS (CMIN->CMAX): -abcdefghijklmnopqrstuvwxyz+
(PID.TID 0000.0001) //                  0.0: .
(PID.TID 0000.0001) // RANGE I (Lo:Hi:Step):(    -3:    34:     1)
(PID.TID 0000.0001) // RANGE J (Lo:Hi:Step):(    34:    -3:    -1)
(PID.TID 0000.0001) // RANGE K (Lo:Hi:Step):(   1:   1:   1)
(PID.TID 0000.0001) // =======================================================
(PID.TID 0000.0001) // =======================================================
(PID.TID 0000.0001) // END OF FIELD                                          =
(PID.TID 0000.0001) // =======================================================
(PID.TID 0000.0001) 
(PID.TID 0000.0001) // =======================================================
(PID.TID 0000.0001) // Field hFacW at iteration          0
(PID.TID 0000.0001) // CMIN =          1.000000000000000E+00
(PID.TID 0000.0001) // CMAX =          1.000000000000000E+00
(PID.TID 0000.0001) // CINT =          0.000000000000000E+00
(PID.TID 0000.0001) // SYMBOLS (CMIN->CMAX): -abcdefghijklmnopqrstuvwxyz+
(PID.TID 0000.0001) //                  0.0: .
(PID.TID 0000.0001) // RANGE I (Lo:Hi:Step):(    -3:    34:     1)
(PID.TID 0000.0001) // RANGE J (Lo:Hi:Step):(    34:    -3:    -1)
(PID.TID 0000.0001) // RANGE K (Lo:Hi:Step):(   1:   1:   1)
(PID.TID 0000.0001) // =======================================================
(PID.TID 0000.0001) // =======================================================
(PID.TID 0000.0001) // END OF FIELD                                          =
(PID.TID 0000.0001) // =======================================================
(PID.TID 0000.0001) 
(PID.TID 0000.0001) // =======================================================
(PID.TID 0000.0001) // Field hFacS at iteration          0
(PID.TID 0000.0001) // CMIN =          1.000000000000000E+00
(PID.TID 0000.0001) // CMAX =          1.000000000000000E+00
(PID.TID 0000.0001) // CINT =          0.000000000000000E+00
(PID.TID 0000.0001) // SYMBOLS (CMIN->CMAX): -abcdefghijklmnopqrstuvwxyz+
(PID.TID 0000.0001) //                  0.0: .
(PID.TID 0000.0001) // RANGE I (Lo:Hi:Step):(    -3:    34:     1)
(PID.TID 0000.0001) // RANGE J (Lo:Hi:Step):(    34:    -3:    -1)
(PID.TID 0000.0001) // RANGE K (Lo:Hi:Step):(   1:   1:   1)
(PID.TID 0000.0001) // =======================================================
(PID.TID 0000.0001) // =======================================================
(PID.TID 0000.0001) // END OF FIELD                                          =
(PID.TID 0000.0001) // =======================================================
(PID.TID 0000.0001) 
(PID.TID 0000.0001) GAD_INIT_FIXED: GAD_OlMinSize=  2  0  2
(PID.TID 0000.0001) 
(PID.TID 0000.0001) // ===================================
(PID.TID 0000.0001) // GAD parameters :
(PID.TID 0000.0001) // ===================================
(PID.TID 0000.0001) tempAdvScheme =   /* Temp. Horiz.Advection scheme selector */
(PID.TID 0000.0001)                      77
(PID.TID 0000.0001)     ;
(PID.TID 0000.0001) tempVertAdvScheme =   /* Temp. Vert. Advection scheme selector */
(PID.TID 0000.0001)                      77
(PID.TID 0000.0001)     ;
(PID.TID 0000.0001) tempMultiDimAdvec =   /* use Muti-Dim Advec method for Temp */
(PID.TID 0000.0001)                   T
(PID.TID 0000.0001)     ;
(PID.TID 0000.0001) tempSOM_Advection = /* use 2nd Order Moment Advection for Temp */
(PID.TID 0000.0001)                   F
(PID.TID 0000.0001)     ;
(PID.TID 0000.0001) AdamsBashforthGt = /* apply Adams-Bashforth extrapolation on Gt */
(PID.TID 0000.0001)                   F
(PID.TID 0000.0001)     ;
(PID.TID 0000.0001) AdamsBashforth_T = /* apply Adams-Bashforth extrapolation on Temp */
(PID.TID 0000.0001)                   F
(PID.TID 0000.0001)     ;
(PID.TID 0000.0001) saltAdvScheme =   /* Salt. Horiz.advection scheme selector */
(PID.TID 0000.0001)                      77
(PID.TID 0000.0001)     ;
(PID.TID 0000.0001) saltVertAdvScheme =   /* Salt. Vert. Advection scheme selector */
(PID.TID 0000.0001)                      77
(PID.TID 0000.0001)     ;
(PID.TID 0000.0001) saltMultiDimAdvec =   /* use Muti-Dim Advec method for Salt */
(PID.TID 0000.0001)                   T
(PID.TID 0000.0001)     ;
(PID.TID 0000.0001) saltSOM_Advection = /* use 2nd Order Moment Advection for Salt */
(PID.TID 0000.0001)                   F
(PID.TID 0000.0001)     ;
(PID.TID 0000.0001) AdamsBashforthGs = /* apply Adams-Bashforth extrapolation on Gs */
(PID.TID 0000.0001)                   F
(PID.TID 0000.0001)     ;
(PID.TID 0000.0001) AdamsBashforth_S = /* apply Adams-Bashforth extrapolation on Salt */
(PID.TID 0000.0001)                   F
(PID.TID 0000.0001)     ;
(PID.TID 0000.0001) // ===================================
(PID.TID 0000.0001)  MDS_READ_FIELD: opening global file: viscA4Dfld.bin
(PID.TID 0000.0001)  MDS_READ_FIELD: opening global file: viscA4Zfld.bin
(PID.TID 0000.0001)  SEAICE_INIT_FIXED:  5 sea ice thickness categories
(PID.TID 0000.0001)  SEAICE_INIT_FIXED: Hlimit =   0.00  0.64  1.39  2.47  4.57 999.9
(PID.TID 0000.0001) // =======================================================
(PID.TID 0000.0001) // Seaice configuration (SEAICE_PARM01) >>> START <<<
(PID.TID 0000.0001) // =======================================================
(PID.TID 0000.0001) 
(PID.TID 0000.0001)    Seaice time stepping configuration   > START <
(PID.TID 0000.0001)    ----------------------------------------------
(PID.TID 0000.0001) SEAICE_deltaTtherm= /* thermodynamic timestep */
(PID.TID 0000.0001)                 9.000000000000000E+02
(PID.TID 0000.0001)     ;
(PID.TID 0000.0001) SEAICE_deltaTdyn  = /* dynamic timestep */
(PID.TID 0000.0001)                 9.000000000000000E+02
(PID.TID 0000.0001)     ;
(PID.TID 0000.0001) SEAICE_deltaTevp  = /* EVP timestep */
(PID.TID 0000.0001)                 1.234567000000000E+05
(PID.TID 0000.0001)     ;
(PID.TID 0000.0001) SEAICEuseBDF2  = /* use backw. differencing for mom. eq. */
(PID.TID 0000.0001)                   F
(PID.TID 0000.0001)     ;
(PID.TID 0000.0001) SEAICEupdateOceanStress= /* update Ocean surf. stress */
(PID.TID 0000.0001)                   T
(PID.TID 0000.0001)     ;
(PID.TID 0000.0001) SEAICErestoreUnderIce  = /* restore T and S under ice */
(PID.TID 0000.0001)                   F
(PID.TID 0000.0001)     ;
(PID.TID 0000.0001) 
(PID.TID 0000.0001)    Seaice dynamics configuration   > START <
(PID.TID 0000.0001)    ------------------------------------------
(PID.TID 0000.0001) SEAICEuseDYNAMICS = /* use dynamics */
(PID.TID 0000.0001)                   T
(PID.TID 0000.0001)     ;
(PID.TID 0000.0001) model grid type   = /* type of sea ice model grid */
(PID.TID 0000.0001)               'C-GRID'
(PID.TID 0000.0001)     ;
(PID.TID 0000.0001) SEAICEuseStrImpCpl = /* use strongly implicit coupling */
(PID.TID 0000.0001)                   F
(PID.TID 0000.0001)     ;
(PID.TID 0000.0001) SEAICEusePicardAsPrecon = /* Picard as preconditioner */
(PID.TID 0000.0001)                   F
(PID.TID 0000.0001)     ;
(PID.TID 0000.0001) SEAICEuseLSR      = /* use default Picard-LSR solver */
(PID.TID 0000.0001)                   T
(PID.TID 0000.0001)     ;
(PID.TID 0000.0001) SEAICEuseKrylov   = /* use Picard-Krylov solver */
(PID.TID 0000.0001)                   F
(PID.TID 0000.0001)     ;
(PID.TID 0000.0001) SEAICEuseEVP      = /* use EVP solver rather than LSR */
(PID.TID 0000.0001)                   F
(PID.TID 0000.0001)     ;
(PID.TID 0000.0001) SEAICEuseJFNK     = /* use JFNK solver */
(PID.TID 0000.0001)                   F
(PID.TID 0000.0001)     ;
(PID.TID 0000.0001) OCEAN_drag        = /* air-ocean drag coefficient */
(PID.TID 0000.0001)                 8.154100000000000E-04
(PID.TID 0000.0001)     ;
(PID.TID 0000.0001) SEAICE_drag       = /* air-ice drag coefficient */
(PID.TID 0000.0001)                 2.000000000000000E-03
(PID.TID 0000.0001)     ;
(PID.TID 0000.0001) SEAICE_drag_south      = /* Southern Ocean SEAICE_drag */
(PID.TID 0000.0001)                 2.000000000000000E-03
(PID.TID 0000.0001)     ;
(PID.TID 0000.0001) SEAICE_waterDrag  = /* water-ice drag */
(PID.TID 0000.0001)                 5.169855072463768E-03
(PID.TID 0000.0001)     ;
(PID.TID 0000.0001) SEAICE_waterDrag_south = /* Southern Ocean waterDrag */
(PID.TID 0000.0001)                 5.169855072463768E-03
(PID.TID 0000.0001)     ;
(PID.TID 0000.0001) SEAICEuseTilt     = /* include surface tilt in dyna. */
(PID.TID 0000.0001)                   T
(PID.TID 0000.0001)     ;
(PID.TID 0000.0001) SEAICEuseTEM      = /* use truncated ellipse rheology */
(PID.TID 0000.0001)                   F
(PID.TID 0000.0001)     ;
(PID.TID 0000.0001) SEAICE_strength   = /* sea-ice strength Pstar */
(PID.TID 0000.0001)                 2.678000000000000E+04
(PID.TID 0000.0001)     ;
(PID.TID 0000.0001) SEAICE_cStar      = /* sea-ice strength parameter cStar */
(PID.TID 0000.0001)                 2.000000000000000E+01
(PID.TID 0000.0001)     ;
(PID.TID 0000.0001) SEAICEpressReplFac= /* press. replacement method factor */
(PID.TID 0000.0001)                 1.000000000000000E+00
(PID.TID 0000.0001)     ;
(PID.TID 0000.0001) SEAICE_tensilFac  = /* sea-ice tensile strength factor */
(PID.TID 0000.0001)                 0.000000000000000E+00
(PID.TID 0000.0001)     ;
(PID.TID 0000.0001) SEAICE_tensilDepth= /* crit. depth for tensile strength */
(PID.TID 0000.0001)                 0.000000000000000E+00
(PID.TID 0000.0001)     ;
(PID.TID 0000.0001) SEAICEpresH0   = /* sea-ice strength Heff threshold */
(PID.TID 0000.0001)                 1.000000000000000E+00
(PID.TID 0000.0001)     ;
(PID.TID 0000.0001) SEAICEpresPow0 = /* exponent for Heff<SEAICEpresH0 */
(PID.TID 0000.0001)                       1
(PID.TID 0000.0001)     ;
(PID.TID 0000.0001) SEAICEpresPow1 = /* exponent for Heff>SEAICEpresH0 */
(PID.TID 0000.0001)                       1
(PID.TID 0000.0001)     ;
(PID.TID 0000.0001) SEAICEetaZmethod = /* method computing eta at Z-point */
(PID.TID 0000.0001)                       0
(PID.TID 0000.0001)     ;
(PID.TID 0000.0001) SEAICE_zetaMin    = /* lower bound for viscosity */
(PID.TID 0000.0001)                 0.000000000000000E+00
(PID.TID 0000.0001)     ;
(PID.TID 0000.0001) SEAICE_eccen    = /* elliptical yield curve eccent */
(PID.TID 0000.0001)                 2.000000000000000E+00
(PID.TID 0000.0001)     ;
(PID.TID 0000.0001) SEAICEstressFactor    = /* wind stress scaling factor */
(PID.TID 0000.0001)                 1.000000000000000E+00
(PID.TID 0000.0001)     ;
(PID.TID 0000.0001) SEAICE_airTurnAngle    = /* air-ice turning angle */
(PID.TID 0000.0001)                 0.000000000000000E+00
(PID.TID 0000.0001)     ;
(PID.TID 0000.0001) SEAICE_waterTurnAngle  = /* ice-water turning angle */
(PID.TID 0000.0001)                 0.000000000000000E+00
(PID.TID 0000.0001)     ;
(PID.TID 0000.0001) SEAICEuseMetricTerms = /* use metric terms */
(PID.TID 0000.0001)                   T
(PID.TID 0000.0001)     ;
(PID.TID 0000.0001) SEAICE_no_slip    = /* no slip boundary conditions */
(PID.TID 0000.0001)                   F
(PID.TID 0000.0001)     ;
(PID.TID 0000.0001) SEAICE_2ndOrderBC = /* 2nd order no slip boundary conditions */
(PID.TID 0000.0001)                   F
(PID.TID 0000.0001)     ;
(PID.TID 0000.0001) SEAICE_clipVeloctities = /* impose max. vels. */
(PID.TID 0000.0001)                   F
(PID.TID 0000.0001)     ;
(PID.TID 0000.0001) useHB87stressCoupling  = /* altern. ice-ocean stress */
(PID.TID 0000.0001)                   F
(PID.TID 0000.0001)     ;
(PID.TID 0000.0001) SEAICEscaleSurfStress  = /* scale atm. and ocean-surface stress with AREA */
(PID.TID 0000.0001)                   F
(PID.TID 0000.0001)     ;
(PID.TID 0000.0001) SEAICE_maskRHS    = /* mask RHS of solver */
(PID.TID 0000.0001)                   F
(PID.TID 0000.0001)     ;
(PID.TID 0000.0001) SEAICEaddSnowMass = /* add snow mass to seaiceMassC/U/V */
(PID.TID 0000.0001)                   F
(PID.TID 0000.0001)     ;
(PID.TID 0000.0001) LSR_mixIniGuess = /* mix free-drift sol. into LSR initial Guess */
(PID.TID 0000.0001)                      -1
(PID.TID 0000.0001)     ;
(PID.TID 0000.0001) SEAICE_LSRrelaxU  = /* LSR solver: relaxation parameter */
(PID.TID 0000.0001)                 9.500000000000000E-01
(PID.TID 0000.0001)     ;
(PID.TID 0000.0001) SEAICE_LSRrelaxV  = /* LSR solver: relaxation parameter */
(PID.TID 0000.0001)                 9.500000000000000E-01
(PID.TID 0000.0001)     ;
(PID.TID 0000.0001) LSR_ERROR         = /* sets accuracy of LSR solver */
(PID.TID 0000.0001)                 1.000000000000000E-04
(PID.TID 0000.0001)     ;
(PID.TID 0000.0001) SOLV_NCHECK       = /* test interval for LSR solver */
(PID.TID 0000.0001)                       2
(PID.TID 0000.0001)     ;
(PID.TID 0000.0001) SEAICEuseMultiTileSolver = /* use full domain tri-diag solver */
(PID.TID 0000.0001)                   F
(PID.TID 0000.0001)     ;
(PID.TID 0000.0001) SEAICE_OLx = /* overlap for LSR/preconditioner */
(PID.TID 0000.0001)                       0
(PID.TID 0000.0001)     ;
(PID.TID 0000.0001) SEAICE_OLy = /* overlap for LSR/preconditioner */
(PID.TID 0000.0001)                       0
(PID.TID 0000.0001)     ;
(PID.TID 0000.0001) SEAICEnonLinIterMax = /* max. number of nonlinear solver steps */
(PID.TID 0000.0001)                       2
(PID.TID 0000.0001)     ;
(PID.TID 0000.0001) SEAICElinearIterMax = /* max. number of linear solver steps */
(PID.TID 0000.0001)                     500
(PID.TID 0000.0001)     ;
(PID.TID 0000.0001) SEAICEnonLinTol     = /* non-linear solver tolerance */
(PID.TID 0000.0001)                 0.000000000000000E+00
(PID.TID 0000.0001)     ;
(PID.TID 0000.0001) 
(PID.TID 0000.0001)    Seaice advection diffusion config,   > START <
(PID.TID 0000.0001)    -----------------------------------------------
(PID.TID 0000.0001) SEAICEmomAdvection = /* advect sea ice momentum */
(PID.TID 0000.0001)                   F
(PID.TID 0000.0001)     ;
(PID.TID 0000.0001) SEAICEadvHeff = /* advect effective ice thickness */
(PID.TID 0000.0001)                   T
(PID.TID 0000.0001)     ;
(PID.TID 0000.0001) SEAICEadvArea = /* advect fractional ice area */
(PID.TID 0000.0001)                   T
(PID.TID 0000.0001)     ;
(PID.TID 0000.0001) SEAICEadvSnow = /* advect snow layer together with ice */
(PID.TID 0000.0001)                   T
(PID.TID 0000.0001)     ;
(PID.TID 0000.0001) SEAICEadvScheme   = /* advection scheme for ice */
(PID.TID 0000.0001)                      77
(PID.TID 0000.0001)     ;
(PID.TID 0000.0001) SEAICEadvSchArea   = /* advection scheme for area */
(PID.TID 0000.0001)                      77
(PID.TID 0000.0001)     ;
(PID.TID 0000.0001) SEAICEadvSchHeff   = /* advection scheme for thickness */
(PID.TID 0000.0001)                      77
(PID.TID 0000.0001)     ;
(PID.TID 0000.0001) SEAICEadvSchSnow   = /* advection scheme for snow */
(PID.TID 0000.0001)                      77
(PID.TID 0000.0001)     ;
(PID.TID 0000.0001) SEAICEdiffKhArea   = /* diffusivity (m^2/s) for area */
(PID.TID 0000.0001)                 0.000000000000000E+00
(PID.TID 0000.0001)     ;
(PID.TID 0000.0001) SEAICEdiffKhHeff   = /* diffusivity (m^2/s) for heff */
(PID.TID 0000.0001)                 0.000000000000000E+00
(PID.TID 0000.0001)     ;
(PID.TID 0000.0001) SEAICEdiffKhSnow   = /* diffusivity (m^2/s) for snow */
(PID.TID 0000.0001)                 0.000000000000000E+00
(PID.TID 0000.0001)     ;
(PID.TID 0000.0001) DIFF1             = /* parameter used in advect.F [m/s] */
(PID.TID 0000.0001)                 0.000000000000000E+00
(PID.TID 0000.0001)     ;
(PID.TID 0000.0001) 
(PID.TID 0000.0001)    Seaice thermodynamics configuration   > START <
(PID.TID 0000.0001)    -----------------------------------------------
(PID.TID 0000.0001) SEAICE_rhoIce     = /* density of sea ice (kg/m3) */
(PID.TID 0000.0001)                 9.100000000000000E+02
(PID.TID 0000.0001)     ;
(PID.TID 0000.0001) SEAICE_rhoSnow    = /* density of snow (kg/m3) */
(PID.TID 0000.0001)                 3.300000000000000E+02
(PID.TID 0000.0001)     ;
(PID.TID 0000.0001) SEAICE_rhoAir     = /* density of air (kg/m3) */
(PID.TID 0000.0001)                 1.300000000000000E+00
(PID.TID 0000.0001)     ;
(PID.TID 0000.0001) usePW79thermodynamics  = /* default 0-layer TD */
(PID.TID 0000.0001)                   F
(PID.TID 0000.0001)     ;
(PID.TID 0000.0001)    pkg/seaice thermodynamics is OFF
(PID.TID 0000.0001) 
(PID.TID 0000.0001)    Seaice initialization and IO config.,   > START <
(PID.TID 0000.0001)    -------------------------------------------------
(PID.TID 0000.0001) SEAICE_initialHEFF= /* initial sea-ice thickness */
(PID.TID 0000.0001)                 0.000000000000000E+00
(PID.TID 0000.0001)     ;
(PID.TID 0000.0001) AreaFile = /* Initial ice concentration File */
(PID.TID 0000.0001)               'const100.bin'
(PID.TID 0000.0001)     ;
(PID.TID 0000.0001) HeffFile = /* Initial effective ice thickness File */
(PID.TID 0000.0001)               'const+20.bin'
(PID.TID 0000.0001)     ;
(PID.TID 0000.0001) HsnowFile = /* Initial snow thickness File */
(PID.TID 0000.0001)               'const_00.bin'
(PID.TID 0000.0001)     ;
(PID.TID 0000.0001) uIceFile = /* Initial U-ice velocity File */
(PID.TID 0000.0001)               ''
(PID.TID 0000.0001)     ;
(PID.TID 0000.0001) vIceFile = /* Initial V-ice velocity File */
(PID.TID 0000.0001)               ''
(PID.TID 0000.0001)     ;
(PID.TID 0000.0001) SEAICEwriteState  = /* write sea ice state to file */
(PID.TID 0000.0001)                   T
(PID.TID 0000.0001)     ;
(PID.TID 0000.0001) SEAICE_monFreq  = /* monitor frequency */
(PID.TID 0000.0001)                 7.200000000000000E+03
(PID.TID 0000.0001)     ;
(PID.TID 0000.0001) SEAICE_dumpFreq   = /* dump frequency */
(PID.TID 0000.0001)                 0.000000000000000E+00
(PID.TID 0000.0001)     ;
(PID.TID 0000.0001) SEAICE_taveFreq   = /* time-averaging frequency */
(PID.TID 0000.0001)                 0.000000000000000E+00
(PID.TID 0000.0001)     ;
(PID.TID 0000.0001) SEAICE_mon_stdio  = /* write monitor to std-outp */
(PID.TID 0000.0001)                   T
(PID.TID 0000.0001)     ;
(PID.TID 0000.0001) SEAICE_dump_mdsio = /* write snap-shot   using MDSIO */
(PID.TID 0000.0001)                   T
(PID.TID 0000.0001)     ;
(PID.TID 0000.0001) SEAICE_tave_mdsio = /* write TimeAverage using MDSIO */
(PID.TID 0000.0001)                   T
(PID.TID 0000.0001)     ;
(PID.TID 0000.0001) 
(PID.TID 0000.0001)    Seaice regularization numbers,   > START <
(PID.TID 0000.0001)    -----------------------------------------------
(PID.TID 0000.0001) SEAICE_deltaMin   = /* reduce singularities in Delta */
(PID.TID 0000.0001)                 1.000000000000000E-10
(PID.TID 0000.0001)     ;
(PID.TID 0000.0001) SEAICE_EPS        = /* small number */
(PID.TID 0000.0001)                 1.000000000000000E-10
(PID.TID 0000.0001)     ;
(PID.TID 0000.0001) SEAICE_EPS_SQ     = /* small number squared */
(PID.TID 0000.0001)                 1.000000000000000E-20
(PID.TID 0000.0001)     ;
(PID.TID 0000.0001) SEAICE_area_reg   = /* reduce derivative singularities */
(PID.TID 0000.0001)                 1.000000000000000E-05
(PID.TID 0000.0001)     ;
(PID.TID 0000.0001) SEAICE_hice_reg   = /* reduce derivative singularities */
(PID.TID 0000.0001)                 5.000000000000000E-02
(PID.TID 0000.0001)     ;
(PID.TID 0000.0001) SEAICE_area_floor = /* reduce derivative singularities */
(PID.TID 0000.0001)                 1.000000000000000E-05
(PID.TID 0000.0001)     ;
(PID.TID 0000.0001) 
(PID.TID 0000.0001) // =======================================================
(PID.TID 0000.0001) // Seaice configuration (SEAICE_PARM01) >>> END <<<
(PID.TID 0000.0001) // =======================================================
(PID.TID 0000.0001) 
(PID.TID 0000.0001) CTRL_INIT_REC: Getting record indices for
(PID.TID 0000.0001) CTRL_INIT_REC: Record indices for :
(PID.TID 0000.0001) CTRL_INIT_REC: startrec =          1, endrec =          1
(PID.TID 0000.0001) CTRL_INIT_REC: Getting record indices for
(PID.TID 0000.0001) CTRL_INIT_REC: Record indices for :
(PID.TID 0000.0001) CTRL_INIT_REC: startrec =          1, endrec =          1
(PID.TID 0000.0001) CTRL_INIT_REC: Getting record indices for
(PID.TID 0000.0001) CTRL_INIT_REC: Record indices for :
(PID.TID 0000.0001) CTRL_INIT_REC: startrec =          1, endrec =          1
(PID.TID 0000.0001) CTRL_INIT_REC: Getting record indices for
(PID.TID 0000.0001) CTRL_INIT_REC: Record indices for :
(PID.TID 0000.0001) CTRL_INIT_REC: startrec =          1, endrec =          1
(PID.TID 0000.0001) CTRL_INIT_REC: Getting record indices for
(PID.TID 0000.0001) CTRL_INIT_REC: Record indices for :
(PID.TID 0000.0001) CTRL_INIT_REC: startrec =          1, endrec =          1
(PID.TID 0000.0001) CTRL_INIT_REC: Getting record indices for
(PID.TID 0000.0001) CTRL_INIT_REC: Record indices for :
(PID.TID 0000.0001) CTRL_INIT_REC: startrec =          1, endrec =          1
(PID.TID 0000.0001) CTRL_INIT_REC: Getting record indices for
(PID.TID 0000.0001) CTRL_INIT_REC: Record indices for :
(PID.TID 0000.0001) CTRL_INIT_REC: startrec =          1, endrec =          1
(PID.TID 0000.0001) CTRL_INIT_REC: Getting record indices for
(PID.TID 0000.0001) CTRL_INIT_REC: Record indices for :
(PID.TID 0000.0001) CTRL_INIT_REC: startrec =          1, endrec =          1
(PID.TID 0000.0001) ctrl-wet 1:    nvarlength =        34632
(PID.TID 0000.0001) ctrl-wet 2: surface wet C =          312
(PID.TID 0000.0001) ctrl-wet 3: surface wet W =          312
(PID.TID 0000.0001) ctrl-wet 4: surface wet S =          283
(PID.TID 0000.0001) ctrl-wet 4a:surface wet V =            0
(PID.TID 0000.0001) ctrl-wet 5: 3D wet points =        11544
(PID.TID 0000.0001) ctrl-wet 6: no recs for i =     1           0
(PID.TID 0000.0001) ctrl-wet 6: no recs for i =     2           0
(PID.TID 0000.0001) ctrl-wet 6: no recs for i =     3           0
(PID.TID 0000.0001) ctrl-wet 6: no recs for i =     4           0
(PID.TID 0000.0001) ctrl-wet 6: no recs for i =     5           0
(PID.TID 0000.0001) ctrl-wet 6: no recs for i =     6           0
(PID.TID 0000.0001) ctrl-wet 6: no recs for i =     7           0
(PID.TID 0000.0001) ctrl-wet 6: no recs for i =     8           0
(PID.TID 0000.0001) ctrl-wet 6: no recs for i =     9           0
(PID.TID 0000.0001) ctrl-wet 6: no recs for i =    10           0
(PID.TID 0000.0001) ctrl-wet 6: no recs for i =    11           0
(PID.TID 0000.0001) ctrl-wet 6: no recs for i =    12           0
(PID.TID 0000.0001) ctrl-wet 6: no recs for i =    13           0
(PID.TID 0000.0001) ctrl-wet 6: no recs for i =    14           0
(PID.TID 0000.0001) ctrl-wet 6: no recs for i =    15           0
(PID.TID 0000.0001) ctrl-wet 6: no recs for i =    16           0
(PID.TID 0000.0001) ctrl-wet 6: no recs for i =    17           0
(PID.TID 0000.0001) ctrl-wet 6: no recs for i =    18           0
(PID.TID 0000.0001) ctrl-wet 6: no recs for i =    19           0
(PID.TID 0000.0001) ctrl-wet 6: no recs for i =    20           0
(PID.TID 0000.0001) ctrl-wet 6: no recs for i =    21           0
(PID.TID 0000.0001) ctrl-wet 6: no recs for i =    22           0
(PID.TID 0000.0001) ctrl-wet 6: no recs for i =    23           0
(PID.TID 0000.0001) ctrl-wet 6: no recs for i =    24           0
(PID.TID 0000.0001) ctrl-wet 6: no recs for i =    25           0
(PID.TID 0000.0001) ctrl-wet 6: no recs for i =    26           0
(PID.TID 0000.0001) ctrl-wet 6: no recs for i =    27           0
(PID.TID 0000.0001) ctrl-wet 6: no recs for i =    28           0
(PID.TID 0000.0001) ctrl-wet 6: no recs for i =    29           0
(PID.TID 0000.0001) ctrl-wet 6: no recs for i =    30           0
(PID.TID 0000.0001) ctrl-wet 6: no recs for i =    31           0
(PID.TID 0000.0001) ctrl-wet 6: no recs for i =    32           0
(PID.TID 0000.0001) ctrl-wet 6: no recs for i =    33           0
(PID.TID 0000.0001) ctrl-wet 6: no recs for i =    34           0
(PID.TID 0000.0001) ctrl-wet 6: no recs for i =    35           0
(PID.TID 0000.0001) ctrl-wet 6: no recs for i =    36           0
(PID.TID 0000.0001) ctrl-wet 6: no recs for i =    37           0
(PID.TID 0000.0001) ctrl-wet 6: no recs for i =    38           0
(PID.TID 0000.0001) ctrl-wet 6: no recs for i =    39           0
(PID.TID 0000.0001) ctrl-wet 6: no recs for i =    40           0
(PID.TID 0000.0001) ctrl-wet 6: no recs for i =    41           0
(PID.TID 0000.0001) ctrl-wet 6: no recs for i =    42           0
(PID.TID 0000.0001) ctrl-wet 6: no recs for i =    43           0
(PID.TID 0000.0001) ctrl-wet 6: no recs for i =    44           0
(PID.TID 0000.0001) ctrl-wet 6: no recs for i =    45           0
(PID.TID 0000.0001) ctrl-wet 6: no recs for i =    46           0
(PID.TID 0000.0001) ctrl-wet 6: no recs for i =    47           0
(PID.TID 0000.0001) ctrl-wet 6: no recs for i =    48           0
(PID.TID 0000.0001) ctrl-wet 6: no recs for i =    49           0
(PID.TID 0000.0001) ctrl-wet 6: no recs for i =    50           0
(PID.TID 0000.0001) ctrl-wet 6: no recs for i =    51           0
(PID.TID 0000.0001) ctrl-wet 6: no recs for i =    52           0
(PID.TID 0000.0001) ctrl-wet 6: no recs for i =    53           0
(PID.TID 0000.0001) ctrl-wet 6: no recs for i =    54           0
(PID.TID 0000.0001) ctrl-wet 6: no recs for i =    55           0
(PID.TID 0000.0001) ctrl-wet 6: no recs for i =    56           0
(PID.TID 0000.0001) ctrl-wet 6: no recs for i =    57           0
(PID.TID 0000.0001) ctrl-wet 6: no recs for i =    58           0
(PID.TID 0000.0001) ctrl-wet 6: no recs for i =    59           0
(PID.TID 0000.0001) ctrl-wet 6: no recs for i =    60           0
(PID.TID 0000.0001) ctrl-wet 6: no recs for i =    61           0
(PID.TID 0000.0001) ctrl-wet 6: no recs for i =    62           0
(PID.TID 0000.0001) ctrl-wet 6: no recs for i =    63           0
(PID.TID 0000.0001) ctrl-wet 6: no recs for i =    64           0
(PID.TID 0000.0001) ctrl-wet 6: no recs for i =    65           0
(PID.TID 0000.0001) ctrl-wet 6: no recs for i =    66           0
(PID.TID 0000.0001) ctrl-wet 6: no recs for i =    67           0
(PID.TID 0000.0001) ctrl-wet 6: no recs for i =    68           0
(PID.TID 0000.0001) ctrl-wet 6: no recs for i =    69           0
(PID.TID 0000.0001) ctrl-wet 6: no recs for i =    70           0
(PID.TID 0000.0001) ctrl-wet 6: no recs for i =    71           0
(PID.TID 0000.0001) ctrl-wet 6: no recs for i =    72           0
(PID.TID 0000.0001) ctrl-wet 6: no recs for i =    73           0
(PID.TID 0000.0001) ctrl-wet 6: no recs for i =    74           0
(PID.TID 0000.0001) ctrl-wet 6: no recs for i =    75           0
(PID.TID 0000.0001) ctrl-wet 6: no recs for i =    76           0
(PID.TID 0000.0001) ctrl-wet 6: no recs for i =    77           0
(PID.TID 0000.0001) ctrl-wet 6: no recs for i =    78           0
(PID.TID 0000.0001) ctrl-wet 6: no recs for i =    79           0
(PID.TID 0000.0001) ctrl-wet 6: no recs for i =    80           0
(PID.TID 0000.0001) ctrl-wet 6: no recs for i =    81           0
(PID.TID 0000.0001) ctrl-wet 6: no recs for i =    82           0
(PID.TID 0000.0001) ctrl-wet 6: no recs for i =    83           0
(PID.TID 0000.0001) ctrl-wet 6: no recs for i =    84           0
(PID.TID 0000.0001) ctrl-wet 6: no recs for i =    85           0
(PID.TID 0000.0001) ctrl-wet 6: no recs for i =    86           0
(PID.TID 0000.0001) ctrl-wet 6: no recs for i =    87           0
(PID.TID 0000.0001) ctrl-wet 6: no recs for i =    88           0
(PID.TID 0000.0001) ctrl-wet 6: no recs for i =    89           0
(PID.TID 0000.0001) ctrl-wet 6: no recs for i =    90           0
(PID.TID 0000.0001) ctrl-wet 6: no recs for i =    91           0
(PID.TID 0000.0001) ctrl-wet 6: no recs for i =    92           0
(PID.TID 0000.0001) ctrl-wet 6: no recs for i =    93           0
(PID.TID 0000.0001) ctrl-wet 6: no recs for i =    94           0
(PID.TID 0000.0001) ctrl-wet 6: no recs for i =    95           0
(PID.TID 0000.0001) ctrl-wet 6: no recs for i =    96           0
(PID.TID 0000.0001) ctrl-wet 6: no recs for i =    97           0
(PID.TID 0000.0001) ctrl-wet 6: no recs for i =    98           0
(PID.TID 0000.0001) ctrl-wet 6: no recs for i =    99           0
(PID.TID 0000.0001) ctrl-wet 6: no recs for i =   100           0
(PID.TID 0000.0001) ctrl-wet 6: no recs for i =   101           0
(PID.TID 0000.0001) ctrl-wet 6: no recs for i =   102           0
(PID.TID 0000.0001) ctrl-wet 6: no recs for i =   103           0
(PID.TID 0000.0001) ctrl-wet 6: no recs for i =   104           0
(PID.TID 0000.0001) ctrl-wet 6: no recs for i =   105           0
(PID.TID 0000.0001) ctrl-wet 6: no recs for i =   106           0
(PID.TID 0000.0001) ctrl-wet 6: no recs for i =   107           0
(PID.TID 0000.0001) ctrl-wet 6: no recs for i =   108           0
(PID.TID 0000.0001) ctrl-wet 6: no recs for i =   109           0
(PID.TID 0000.0001) ctrl-wet 6: no recs for i =   110           0
(PID.TID 0000.0001) ctrl-wet 6: no recs for i =   111           0
(PID.TID 0000.0001) ctrl-wet 6: no recs for i =   112           0
(PID.TID 0000.0001) ctrl-wet 6: no recs for i =   113           0
(PID.TID 0000.0001) ctrl-wet 6: no recs for i =   114           0
(PID.TID 0000.0001) ctrl-wet 6: no recs for i =   115           0
(PID.TID 0000.0001) ctrl-wet 6: no recs for i =   116           0
(PID.TID 0000.0001) ctrl-wet 6: no recs for i =   117           0
(PID.TID 0000.0001) ctrl-wet 6: no recs for i =   118           0
(PID.TID 0000.0001) ctrl-wet 6: no recs for i =   119           0
(PID.TID 0000.0001) ctrl-wet 6: no recs for i =   120           0
(PID.TID 0000.0001) ctrl-wet 6: no recs for i =   121           0
(PID.TID 0000.0001) ctrl-wet 6: no recs for i =   122           0
(PID.TID 0000.0001) ctrl-wet 6: no recs for i =   123           0
(PID.TID 0000.0001) ctrl-wet 6: no recs for i =   124           0
(PID.TID 0000.0001) ctrl-wet 6: no recs for i =   125           0
(PID.TID 0000.0001) ctrl-wet 6: no recs for i =   126           0
(PID.TID 0000.0001) ctrl-wet 6: no recs for i =   127           0
(PID.TID 0000.0001) ctrl-wet 6: no recs for i =   128           0
(PID.TID 0000.0001) ctrl-wet 6: no recs for i =   129           0
(PID.TID 0000.0001) ctrl-wet 6: no recs for i =   130           0
(PID.TID 0000.0001) ctrl-wet 6: no recs for i =   131           0
(PID.TID 0000.0001) ctrl-wet 6: no recs for i =   132           0
(PID.TID 0000.0001) ctrl-wet 6: no recs for i =   133           0
(PID.TID 0000.0001) ctrl-wet 6: no recs for i =   134           0
(PID.TID 0000.0001) ctrl-wet 6: no recs for i =   135           0
(PID.TID 0000.0001) ctrl-wet 6: no recs for i =   136           0
(PID.TID 0000.0001) ctrl-wet 6: no recs for i =   137           0
(PID.TID 0000.0001) ctrl-wet 6: no recs for i =   138           0
(PID.TID 0000.0001) ctrl-wet 6: no recs for i =   139           0
(PID.TID 0000.0001) ctrl-wet 6: no recs for i =   140           0
(PID.TID 0000.0001) ctrl-wet 6: no recs for i =   141           0
(PID.TID 0000.0001) ctrl-wet 6: no recs for i =   142           0
(PID.TID 0000.0001) ctrl-wet 6: no recs for i =   143           0
(PID.TID 0000.0001) ctrl-wet 6: no recs for i =   144           0
(PID.TID 0000.0001) ctrl-wet 6: no recs for i =   145           0
(PID.TID 0000.0001) ctrl-wet 6: no recs for i =   146           0
(PID.TID 0000.0001) ctrl-wet 6: no recs for i =   147           0
(PID.TID 0000.0001) ctrl-wet 6: no recs for i =   148           0
(PID.TID 0000.0001) ctrl-wet 6: no recs for i =   149           0
(PID.TID 0000.0001) ctrl-wet 6: no recs for i =   150           0
(PID.TID 0000.0001) ctrl-wet 6: no recs for i =   151           0
(PID.TID 0000.0001) ctrl-wet 6: no recs for i =   152           0
(PID.TID 0000.0001) ctrl-wet 6: no recs for i =   153           0
(PID.TID 0000.0001) ctrl-wet 6: no recs for i =   154           0
(PID.TID 0000.0001) ctrl-wet 6: no recs for i =   155           0
(PID.TID 0000.0001) ctrl-wet 6: no recs for i =   156           0
(PID.TID 0000.0001) ctrl-wet 6: no recs for i =   157           0
(PID.TID 0000.0001) ctrl-wet 6: no recs for i =   158           0
(PID.TID 0000.0001) ctrl-wet 6: no recs for i =   159           0
(PID.TID 0000.0001) ctrl-wet 6: no recs for i =   160           0
(PID.TID 0000.0001) ctrl-wet 6: no recs for i =   161           0
(PID.TID 0000.0001) ctrl-wet 6: no recs for i =   162           0
(PID.TID 0000.0001) ctrl-wet 6: no recs for i =   163           0
(PID.TID 0000.0001) ctrl-wet 6: no recs for i =   164           0
(PID.TID 0000.0001) ctrl-wet 6: no recs for i =   165           0
(PID.TID 0000.0001) ctrl-wet 6: no recs for i =   166           0
(PID.TID 0000.0001) ctrl-wet 6: no recs for i =   167           0
(PID.TID 0000.0001) ctrl-wet 6: no recs for i =   168           0
(PID.TID 0000.0001) ctrl-wet 6: no recs for i =   169           0
(PID.TID 0000.0001) ctrl-wet 6: no recs for i =   170           0
(PID.TID 0000.0001) ctrl-wet 6: no recs for i =   171           0
(PID.TID 0000.0001) ctrl-wet 6: no recs for i =   172           0
(PID.TID 0000.0001) ctrl-wet 6: no recs for i =   173           0
(PID.TID 0000.0001) ctrl-wet 6: no recs for i =   174           0
(PID.TID 0000.0001) ctrl-wet 6: no recs for i =   175           0
(PID.TID 0000.0001) ctrl-wet 6: no recs for i =   176           0
(PID.TID 0000.0001) ctrl-wet 6: no recs for i =   177           0
(PID.TID 0000.0001) ctrl-wet 6: no recs for i =   178           0
(PID.TID 0000.0001) ctrl-wet 6: no recs for i =   179           0
(PID.TID 0000.0001) ctrl-wet 6: no recs for i =   180           0
(PID.TID 0000.0001) ctrl-wet 6: no recs for i =   181           0
(PID.TID 0000.0001) ctrl-wet 6: no recs for i =   182           0
(PID.TID 0000.0001) ctrl-wet 6: no recs for i =   183           0
(PID.TID 0000.0001) ctrl-wet 6: no recs for i =   184           0
(PID.TID 0000.0001) ctrl-wet 6: no recs for i =   185           0
(PID.TID 0000.0001) ctrl-wet 6: no recs for i =   186           0
(PID.TID 0000.0001) ctrl-wet 6: no recs for i =   187           0
(PID.TID 0000.0001) ctrl-wet 6: no recs for i =   188           0
(PID.TID 0000.0001) ctrl-wet 6: no recs for i =   189           0
(PID.TID 0000.0001) ctrl-wet 6: no recs for i =   190           0
(PID.TID 0000.0001) ctrl-wet 6: no recs for i =   191           0
(PID.TID 0000.0001) ctrl-wet 6: no recs for i =   192           0
(PID.TID 0000.0001) ctrl-wet 6: no recs for i =   193           0
(PID.TID 0000.0001) ctrl-wet 6: no recs for i =   194           0
(PID.TID 0000.0001) ctrl-wet 6: no recs for i =   195           0
(PID.TID 0000.0001) ctrl-wet 6: no recs for i =   196           0
(PID.TID 0000.0001) ctrl-wet 6: no recs for i =   197           0
(PID.TID 0000.0001) ctrl-wet 6: no recs for i =   198           0
(PID.TID 0000.0001) ctrl-wet 6: no recs for i =   199           0
(PID.TID 0000.0001) ctrl-wet 6: no recs for i =   200           0
(PID.TID 0000.0001) ctrl-wet 6: no recs for i =   201           1
(PID.TID 0000.0001) ctrl-wet 6: no recs for i =   202           1
(PID.TID 0000.0001) ctrl-wet 6: no recs for i =   203           1
(PID.TID 0000.0001) ctrl-wet 6: no recs for i =   204           0
(PID.TID 0000.0001) ctrl-wet 6: no recs for i =   205           0
(PID.TID 0000.0001) ctrl-wet 6: no recs for i =   206           0
(PID.TID 0000.0001) ctrl-wet 6: no recs for i =   207           0
(PID.TID 0000.0001) ctrl-wet 6: no recs for i =   208           0
(PID.TID 0000.0001) ctrl-wet 6: no recs for i =   209           0
(PID.TID 0000.0001) ctrl-wet 6: no recs for i =   210           0
(PID.TID 0000.0001) ctrl-wet 6: no recs for i =   211           0
(PID.TID 0000.0001) ctrl-wet 6: no recs for i =   212           0
(PID.TID 0000.0001) ctrl-wet 6: no recs for i =   213           0
(PID.TID 0000.0001) ctrl-wet 6: no recs for i =   214           0
(PID.TID 0000.0001) ctrl-wet 6: no recs for i =   215           0
(PID.TID 0000.0001) ctrl-wet 6: no recs for i =   216           0
(PID.TID 0000.0001) ctrl-wet 6: no recs for i =   217           0
(PID.TID 0000.0001) ctrl-wet 6: no recs for i =   218           0
(PID.TID 0000.0001) ctrl-wet 6: no recs for i =   219           0
(PID.TID 0000.0001) ctrl-wet 6: no recs for i =   220           0
(PID.TID 0000.0001) ctrl-wet 6: no recs for i =   221           0
(PID.TID 0000.0001) ctrl-wet 6: no recs for i =   222           0
(PID.TID 0000.0001) ctrl-wet 6: no recs for i =   223           0
(PID.TID 0000.0001) ctrl-wet 6: no recs for i =   224           0
(PID.TID 0000.0001) ctrl-wet 6: no recs for i =   225           0
(PID.TID 0000.0001) ctrl-wet 6: no recs for i =   226           0
(PID.TID 0000.0001) ctrl-wet 6: no recs for i =   227           0
(PID.TID 0000.0001) ctrl-wet 6: no recs for i =   228           0
(PID.TID 0000.0001) ctrl-wet 6: no recs for i =   229           0
(PID.TID 0000.0001) ctrl-wet 6: no recs for i =   230           0
(PID.TID 0000.0001) ctrl-wet 6: no recs for i =   231           0
(PID.TID 0000.0001) ctrl-wet 6: no recs for i =   232           0
(PID.TID 0000.0001) ctrl-wet 6: no recs for i =   233           0
(PID.TID 0000.0001) ctrl-wet 6: no recs for i =   234           0
(PID.TID 0000.0001) ctrl-wet 6: no recs for i =   235           0
(PID.TID 0000.0001) ctrl-wet 6: no recs for i =   236           0
(PID.TID 0000.0001) ctrl-wet 6: no recs for i =   237           0
(PID.TID 0000.0001) ctrl-wet 6: no recs for i =   238           0
(PID.TID 0000.0001) ctrl-wet 6: no recs for i =   239           0
(PID.TID 0000.0001) ctrl-wet 6: no recs for i =   240           0
(PID.TID 0000.0001) ctrl-wet 6: no recs for i =   241           0
(PID.TID 0000.0001) ctrl-wet 6: no recs for i =   242           0
(PID.TID 0000.0001) ctrl-wet 6: no recs for i =   243           0
(PID.TID 0000.0001) ctrl-wet 6: no recs for i =   244           0
(PID.TID 0000.0001) ctrl-wet 6: no recs for i =   245           0
(PID.TID 0000.0001) ctrl-wet 6: no recs for i =   246           0
(PID.TID 0000.0001) ctrl-wet 6: no recs for i =   247           0
(PID.TID 0000.0001) ctrl-wet 6: no recs for i =   248           0
(PID.TID 0000.0001) ctrl-wet 6: no recs for i =   249           0
(PID.TID 0000.0001) ctrl-wet 6: no recs for i =   250           0
(PID.TID 0000.0001) ctrl-wet 6: no recs for i =   251           0
(PID.TID 0000.0001) ctrl-wet 6: no recs for i =   252           0
(PID.TID 0000.0001) ctrl-wet 6: no recs for i =   253           0
(PID.TID 0000.0001) ctrl-wet 6: no recs for i =   254           0
(PID.TID 0000.0001) ctrl-wet 6: no recs for i =   255           0
(PID.TID 0000.0001) ctrl-wet 6: no recs for i =   256           0
(PID.TID 0000.0001) ctrl-wet 6: no recs for i =   257           0
(PID.TID 0000.0001) ctrl-wet 6: no recs for i =   258           0
(PID.TID 0000.0001) ctrl-wet 6: no recs for i =   259           0
(PID.TID 0000.0001) ctrl-wet 6: no recs for i =   260           0
(PID.TID 0000.0001) ctrl-wet 6: no recs for i =   261           0
(PID.TID 0000.0001) ctrl-wet 6: no recs for i =   262           0
(PID.TID 0000.0001) ctrl-wet 6: no recs for i =   263           0
(PID.TID 0000.0001) ctrl-wet 6: no recs for i =   264           0
(PID.TID 0000.0001) ctrl-wet 6: no recs for i =   265           0
(PID.TID 0000.0001) ctrl-wet 6: no recs for i =   266           0
(PID.TID 0000.0001) ctrl-wet 6: no recs for i =   267           0
(PID.TID 0000.0001) ctrl-wet 6: no recs for i =   268           0
(PID.TID 0000.0001) ctrl-wet 6: no recs for i =   269           0
(PID.TID 0000.0001) ctrl-wet 6: no recs for i =   270           0
(PID.TID 0000.0001) ctrl-wet 6: no recs for i =   271           0
(PID.TID 0000.0001) ctrl-wet 6: no recs for i =   272           0
(PID.TID 0000.0001) ctrl-wet 6: no recs for i =   273           0
(PID.TID 0000.0001) ctrl-wet 6: no recs for i =   274           0
(PID.TID 0000.0001) ctrl-wet 6: no recs for i =   275           0
(PID.TID 0000.0001) ctrl-wet 6: no recs for i =   276           0
(PID.TID 0000.0001) ctrl-wet 6: no recs for i =   277           0
(PID.TID 0000.0001) ctrl-wet 6: no recs for i =   278           0
(PID.TID 0000.0001) ctrl-wet 6: no recs for i =   279           0
(PID.TID 0000.0001) ctrl-wet 6: no recs for i =   280           0
(PID.TID 0000.0001) ctrl-wet 6: no recs for i =   281           0
(PID.TID 0000.0001) ctrl-wet 6: no recs for i =   282           0
(PID.TID 0000.0001) ctrl-wet 6: no recs for i =   283           0
(PID.TID 0000.0001) ctrl-wet 6: no recs for i =   284           0
(PID.TID 0000.0001) ctrl-wet 6: no recs for i =   285           0
(PID.TID 0000.0001) ctrl-wet 6: no recs for i =   286           0
(PID.TID 0000.0001) ctrl-wet 6: no recs for i =   287           0
(PID.TID 0000.0001) ctrl-wet 6: no recs for i =   288           0
(PID.TID 0000.0001) ctrl-wet 6: no recs for i =   289           0
(PID.TID 0000.0001) ctrl-wet 6: no recs for i =   290           0
(PID.TID 0000.0001) ctrl-wet 6: no recs for i =   291           0
(PID.TID 0000.0001) ctrl-wet 6: no recs for i =   292           0
(PID.TID 0000.0001) ctrl-wet 6: no recs for i =   293           0
(PID.TID 0000.0001) ctrl-wet 6: no recs for i =   294           0
(PID.TID 0000.0001) ctrl-wet 6: no recs for i =   295           0
(PID.TID 0000.0001) ctrl-wet 6: no recs for i =   296           0
(PID.TID 0000.0001) ctrl-wet 6: no recs for i =   297           0
(PID.TID 0000.0001) ctrl-wet 6: no recs for i =   298           0
(PID.TID 0000.0001) ctrl-wet 6: no recs for i =   299           0
(PID.TID 0000.0001) ctrl-wet 6: no recs for i =   300           0
(PID.TID 0000.0001) ctrl-wet 6: no recs for i =   301           0
(PID.TID 0000.0001) ctrl-wet 6: no recs for i =   302           0
(PID.TID 0000.0001) ctrl-wet 6: no recs for i =   303           0
(PID.TID 0000.0001) ctrl-wet 6: no recs for i =   304           0
(PID.TID 0000.0001) ctrl-wet 6: no recs for i =   305           0
(PID.TID 0000.0001) ctrl-wet 6: no recs for i =   306           0
(PID.TID 0000.0001) ctrl-wet 6: no recs for i =   307           0
(PID.TID 0000.0001) ctrl-wet 6: no recs for i =   308           0
(PID.TID 0000.0001) ctrl-wet 6: no recs for i =   309           0
(PID.TID 0000.0001) ctrl-wet 6: no recs for i =   310           0
(PID.TID 0000.0001) ctrl-wet 6: no recs for i =   311           0
(PID.TID 0000.0001) ctrl-wet 6: no recs for i =   312           0
(PID.TID 0000.0001) ctrl-wet 6: no recs for i =   313           0
(PID.TID 0000.0001) ctrl-wet 6: no recs for i =   314           0
(PID.TID 0000.0001) ctrl-wet 6: no recs for i =   315           0
(PID.TID 0000.0001) ctrl-wet 6: no recs for i =   316           0
(PID.TID 0000.0001) ctrl-wet 6: no recs for i =   317           0
(PID.TID 0000.0001) ctrl-wet 6: no recs for i =   318           0
(PID.TID 0000.0001) ctrl-wet 6: no recs for i =   319           0
(PID.TID 0000.0001) ctrl-wet 6: no recs for i =   320           0
(PID.TID 0000.0001) ctrl-wet 6: no recs for i =   321           0
(PID.TID 0000.0001) ctrl-wet 6: no recs for i =   322           0
(PID.TID 0000.0001) ctrl-wet 6: no recs for i =   323           0
(PID.TID 0000.0001) ctrl-wet 6: no recs for i =   324           0
(PID.TID 0000.0001) ctrl-wet 6: no recs for i =   325           0
(PID.TID 0000.0001) ctrl-wet 6: no recs for i =   326           0
(PID.TID 0000.0001) ctrl-wet 6: no recs for i =   327           0
(PID.TID 0000.0001) ctrl-wet 6: no recs for i =   328           0
(PID.TID 0000.0001) ctrl-wet 6: no recs for i =   329           0
(PID.TID 0000.0001) ctrl-wet 6: no recs for i =   330           0
(PID.TID 0000.0001) ctrl-wet 6: no recs for i =   331           0
(PID.TID 0000.0001) ctrl-wet 6: no recs for i =   332           0
(PID.TID 0000.0001) ctrl-wet 6: no recs for i =   333           0
(PID.TID 0000.0001) ctrl-wet 6: no recs for i =   334           0
(PID.TID 0000.0001) ctrl-wet 6: no recs for i =   335           0
(PID.TID 0000.0001) ctrl-wet 6: no recs for i =   336           0
(PID.TID 0000.0001) ctrl-wet 6: no recs for i =   337           0
(PID.TID 0000.0001) ctrl-wet 6: no recs for i =   338           0
(PID.TID 0000.0001) ctrl-wet 6: no recs for i =   339           0
(PID.TID 0000.0001) ctrl-wet 6: no recs for i =   340           0
(PID.TID 0000.0001) ctrl-wet 6: no recs for i =   341           0
(PID.TID 0000.0001) ctrl-wet 6: no recs for i =   342           0
(PID.TID 0000.0001) ctrl-wet 6: no recs for i =   343           0
(PID.TID 0000.0001) ctrl-wet 6: no recs for i =   344           0
(PID.TID 0000.0001) ctrl-wet 6: no recs for i =   345           0
(PID.TID 0000.0001) ctrl-wet 6: no recs for i =   346           0
(PID.TID 0000.0001) ctrl-wet 6: no recs for i =   347           0
(PID.TID 0000.0001) ctrl-wet 6: no recs for i =   348           0
(PID.TID 0000.0001) ctrl-wet 6: no recs for i =   349           0
(PID.TID 0000.0001) ctrl-wet 6: no recs for i =   350           0
(PID.TID 0000.0001) ctrl-wet 6: no recs for i =   351           0
(PID.TID 0000.0001) ctrl-wet 6: no recs for i =   352           0
(PID.TID 0000.0001) ctrl-wet 6: no recs for i =   353           0
(PID.TID 0000.0001) ctrl-wet 6: no recs for i =   354           0
(PID.TID 0000.0001) ctrl-wet 6: no recs for i =   355           0
(PID.TID 0000.0001) ctrl-wet 6: no recs for i =   356           0
(PID.TID 0000.0001) ctrl-wet 6: no recs for i =   357           0
(PID.TID 0000.0001) ctrl-wet 6: no recs for i =   358           0
(PID.TID 0000.0001) ctrl-wet 6: no recs for i =   359           0
(PID.TID 0000.0001) ctrl-wet 6: no recs for i =   360           0
(PID.TID 0000.0001) ctrl-wet 6: no recs for i =   361           0
(PID.TID 0000.0001) ctrl-wet 6: no recs for i =   362           0
(PID.TID 0000.0001) ctrl-wet 6: no recs for i =   363           0
(PID.TID 0000.0001) ctrl-wet 6: no recs for i =   364           0
(PID.TID 0000.0001) ctrl-wet 6: no recs for i =   365           0
(PID.TID 0000.0001) ctrl-wet 6: no recs for i =   366           0
(PID.TID 0000.0001) ctrl-wet 6: no recs for i =   367           0
(PID.TID 0000.0001) ctrl-wet 6: no recs for i =   368           0
(PID.TID 0000.0001) ctrl-wet 6: no recs for i =   369           0
(PID.TID 0000.0001) ctrl-wet 6: no recs for i =   370           0
(PID.TID 0000.0001) ctrl-wet 6: no recs for i =   371           0
(PID.TID 0000.0001) ctrl-wet 6: no recs for i =   372           0
(PID.TID 0000.0001) ctrl-wet 6: no recs for i =   373           0
(PID.TID 0000.0001) ctrl-wet 6: no recs for i =   374           0
(PID.TID 0000.0001) ctrl-wet 6: no recs for i =   375           0
(PID.TID 0000.0001) ctrl-wet 6: no recs for i =   376           0
(PID.TID 0000.0001) ctrl-wet 6: no recs for i =   377           0
(PID.TID 0000.0001) ctrl-wet 6: no recs for i =   378           0
(PID.TID 0000.0001) ctrl-wet 6: no recs for i =   379           0
(PID.TID 0000.0001) ctrl-wet 6: no recs for i =   380           0
(PID.TID 0000.0001) ctrl-wet 6: no recs for i =   381           0
(PID.TID 0000.0001) ctrl-wet 6: no recs for i =   382           0
(PID.TID 0000.0001) ctrl-wet 6: no recs for i =   383           0
(PID.TID 0000.0001) ctrl-wet 6: no recs for i =   384           0
(PID.TID 0000.0001) ctrl-wet 6: no recs for i =   385           0
(PID.TID 0000.0001) ctrl-wet 6: no recs for i =   386           0
(PID.TID 0000.0001) ctrl-wet 6: no recs for i =   387           0
(PID.TID 0000.0001) ctrl-wet 6: no recs for i =   388           0
(PID.TID 0000.0001) ctrl-wet 6: no recs for i =   389           0
(PID.TID 0000.0001) ctrl-wet 6: no recs for i =   390           0
(PID.TID 0000.0001) ctrl-wet 6: no recs for i =   391           0
(PID.TID 0000.0001) ctrl-wet 6: no recs for i =   392           0
(PID.TID 0000.0001) ctrl-wet 6: no recs for i =   393           0
(PID.TID 0000.0001) ctrl-wet 6: no recs for i =   394           0
(PID.TID 0000.0001) ctrl-wet 6: no recs for i =   395           0
(PID.TID 0000.0001) ctrl-wet 6: no recs for i =   396           0
(PID.TID 0000.0001) ctrl-wet 6: no recs for i =   397           0
(PID.TID 0000.0001) ctrl-wet 6: no recs for i =   398           0
(PID.TID 0000.0001) ctrl-wet 6: no recs for i =   399           0
(PID.TID 0000.0001) ctrl-wet 6: no recs for i =   400           0
(PID.TID 0000.0001) ctrl-wet 7: flux         23088
(PID.TID 0000.0001) ctrl-wet 8: atmos        23088
(PID.TID 0000.0001) ctrl-wet -------------------------------------------------
(PID.TID 0000.0001) ctrl-wet 13: global nvarlength for Nr =   50     7220976
(PID.TID 0000.0001) ctrl-wet -------------------------------------------------
(PID.TID 0000.0001) ctrl-wet 14: global nWet C/S/W/V k=    1       60646       59295       59493           0
(PID.TID 0000.0001) ctrl-wet 14: global nWet C/S/W/V k=    2       60646       59295       59493           0
(PID.TID 0000.0001) ctrl-wet 14: global nWet C/S/W/V k=    3       59874       58517       58725           0
(PID.TID 0000.0001) ctrl-wet 14: global nWet C/S/W/V k=    4       59387       58040       58258           0
(PID.TID 0000.0001) ctrl-wet 14: global nWet C/S/W/V k=    5       58882       57536       57754           0
(PID.TID 0000.0001) ctrl-wet 14: global nWet C/S/W/V k=    6       58399       57057       57276           0
(PID.TID 0000.0001) ctrl-wet 14: global nWet C/S/W/V k=    7       58052       56735       56936           0
(PID.TID 0000.0001) ctrl-wet 14: global nWet C/S/W/V k=    8       57781       56461       56669           0
(PID.TID 0000.0001) ctrl-wet 14: global nWet C/S/W/V k=    9       57530       56212       56416           0
(PID.TID 0000.0001) ctrl-wet 14: global nWet C/S/W/V k=   10       57283       55964       56154           0
(PID.TID 0000.0001) ctrl-wet 14: global nWet C/S/W/V k=   11       57022       55702       55883           0
(PID.TID 0000.0001) ctrl-wet 14: global nWet C/S/W/V k=   12       56818       55497       55681           0
(PID.TID 0000.0001) ctrl-wet 14: global nWet C/S/W/V k=   13       56634       55322       55509           0
(PID.TID 0000.0001) ctrl-wet 14: global nWet C/S/W/V k=   14       56430       55125       55312           0
(PID.TID 0000.0001) ctrl-wet 14: global nWet C/S/W/V k=   15       56238       54935       55117           0
(PID.TID 0000.0001) ctrl-wet 14: global nWet C/S/W/V k=   16       55975       54689       54858           0
(PID.TID 0000.0001) ctrl-wet 14: global nWet C/S/W/V k=   17       55703       54421       54600           0
(PID.TID 0000.0001) ctrl-wet 14: global nWet C/S/W/V k=   18       55358       54075       54251           0
(PID.TID 0000.0001) ctrl-wet 14: global nWet C/S/W/V k=   19       54964       53666       53853           0
(PID.TID 0000.0001) ctrl-wet 14: global nWet C/S/W/V k=   20       54471       53205       53372           0
(PID.TID 0000.0001) ctrl-wet 14: global nWet C/S/W/V k=   21       53952       52716       52877           0
(PID.TID 0000.0001) ctrl-wet 14: global nWet C/S/W/V k=   22       53489       52249       52409           0
(PID.TID 0000.0001) ctrl-wet 14: global nWet C/S/W/V k=   23       52892       51633       51797           0
(PID.TID 0000.0001) ctrl-wet 14: global nWet C/S/W/V k=   24       52223       50961       51129           0
(PID.TID 0000.0001) ctrl-wet 14: global nWet C/S/W/V k=   25       51696       50480       50635           0
(PID.TID 0000.0001) ctrl-wet 14: global nWet C/S/W/V k=   26       51259       50075       50241           0
(PID.TID 0000.0001) ctrl-wet 14: global nWet C/S/W/V k=   27       50929       49774       49935           0
(PID.TID 0000.0001) ctrl-wet 14: global nWet C/S/W/V k=   28       50664       49532       49678           0
(PID.TID 0000.0001) ctrl-wet 14: global nWet C/S/W/V k=   29       50438       49306       49450           0
(PID.TID 0000.0001) ctrl-wet 14: global nWet C/S/W/V k=   30       50187       49035       49179           0
(PID.TID 0000.0001) ctrl-wet 14: global nWet C/S/W/V k=   31       49964       48805       48937           0
(PID.TID 0000.0001) ctrl-wet 14: global nWet C/S/W/V k=   32       49700       48530       48662           0
(PID.TID 0000.0001) ctrl-wet 14: global nWet C/S/W/V k=   33       49431       48260       48383           0
(PID.TID 0000.0001) ctrl-wet 14: global nWet C/S/W/V k=   34       49176       47993       48108           0
(PID.TID 0000.0001) ctrl-wet 14: global nWet C/S/W/V k=   35       48854       47652       47764           0
(PID.TID 0000.0001) ctrl-wet 14: global nWet C/S/W/V k=   36       48501       47264       47375           0
(PID.TID 0000.0001) ctrl-wet 14: global nWet C/S/W/V k=   37       48098       46846       46951           0
(PID.TID 0000.0001) ctrl-wet 14: global nWet C/S/W/V k=   38       47523       46253       46362           0
(PID.TID 0000.0001) ctrl-wet 14: global nWet C/S/W/V k=   39       46849       45558       45657           0
(PID.TID 0000.0001) ctrl-wet 14: global nWet C/S/W/V k=   40       45984       44670       44751           0
(PID.TID 0000.0001) ctrl-wet 14: global nWet C/S/W/V k=   41       44793       43419       43459           0
(PID.TID 0000.0001) ctrl-wet 14: global nWet C/S/W/V k=   42       42984       41497       41533           0
(PID.TID 0000.0001) ctrl-wet 14: global nWet C/S/W/V k=   43       40302       38691       38718           0
(PID.TID 0000.0001) ctrl-wet 14: global nWet C/S/W/V k=   44       36689       35007       35032           0
(PID.TID 0000.0001) ctrl-wet 14: global nWet C/S/W/V k=   45       31681       30069       29999           0
(PID.TID 0000.0001) ctrl-wet 14: global nWet C/S/W/V k=   46       25595       24028       24031           0
(PID.TID 0000.0001) ctrl-wet 14: global nWet C/S/W/V k=   47       18224       16890       16872           0
(PID.TID 0000.0001) ctrl-wet 14: global nWet C/S/W/V k=   48       11407       10397       10351           0
(PID.TID 0000.0001) ctrl-wet 14: global nWet C/S/W/V k=   49        4597        3913        3912           0
(PID.TID 0000.0001) ctrl-wet 14: global nWet C/S/W/V k=   50         818         624         622           0
(PID.TID 0000.0001) ctrl-wet -------------------------------------------------
(PID.TID 0000.0001) ctrl-wet -------------------------------------------------
(PID.TID 0000.0001) ctrl-wet -------------------------------------------------
(PID.TID 0000.0001) ctrl_init: no. of control variables:            3
(PID.TID 0000.0001) ctrl_init: control vector length:         7220976
(PID.TID 0000.0001) 
(PID.TID 0000.0001) // =======================================================
(PID.TID 0000.0001) // control vector configuration  >>> START <<<
(PID.TID 0000.0001) // =======================================================
(PID.TID 0000.0001) 
(PID.TID 0000.0001)  Total number of ocean points per tile:
(PID.TID 0000.0001)  --------------------------------------
(PID.TID 0000.0001)  snx*sny*nr =    45000
(PID.TID 0000.0001) 
(PID.TID 0000.0001)  Number of ocean points per tile:
(PID.TID 0000.0001)  --------------------------------
(PID.TID 0000.0001)  bi,bj,#(c/s/w): 0001 0001 011544 010207 011460
(PID.TID 0000.0001) 
(PID.TID 0000.0001)  Settings of generic controls:
(PID.TID 0000.0001)  -----------------------------
(PID.TID 0000.0001) 
(PID.TID 0000.0001)  ctrlUseGen  =     T /* use generic controls */
(PID.TID 0000.0001)  -> 3d control, genarr3d no.  1 is in use
(PID.TID 0000.0001)       file       = xx_kapgm
(PID.TID 0000.0001)       weight     = wt_ones.data
(PID.TID 0000.0001)  -> 3d control, genarr3d no.  2 is in use
(PID.TID 0000.0001)       file       = xx_kapredi
(PID.TID 0000.0001)       weight     = wt_ones.data
(PID.TID 0000.0001)  -> 3d control, genarr3d no.  3 is in use
(PID.TID 0000.0001)       file       = xx_diffkr
(PID.TID 0000.0001)       weight     = wt_ones.data
(PID.TID 0000.0001) 
(PID.TID 0000.0001) // =======================================================
(PID.TID 0000.0001) // control vector configuration  >>> END <<<
(PID.TID 0000.0001) // =======================================================
(PID.TID 0000.0001) 
(PID.TID 0000.0001) ------------------------------------------------------------
(PID.TID 0000.0001) DIAGNOSTICS_SET_LEVELS: done
(PID.TID 0000.0001)  Total Nb of available Diagnostics: ndiagt=   300
(PID.TID 0000.0001)  write list of available Diagnostics to file: available_diagnostics.log
(PID.TID 0000.0001) SETDIAG: Allocate  1 x  1 Levels for Diagnostic #    86 oceQnet
(PID.TID 0000.0001) SETDIAG: Allocate  1 x  1 Levels for Diagnostic #    87 oceQsw
(PID.TID 0000.0001) SETDIAG: Allocate  1 x  1 Levels for Diagnostic #    84 oceFWflx
(PID.TID 0000.0001) SETDIAG: Allocate  1 x  1 Levels for Diagnostic #    85 oceSflux
(PID.TID 0000.0001) SETDIAG: Allocate  1 x  1 Levels for Diagnostic #    80 oceTAUX
(PID.TID 0000.0001) SETDIAG: Allocate  1 x  1 Levels for Diagnostic #    81 oceTAUY
(PID.TID 0000.0001) SETDIAG: Allocate 50 x  1 Levels for Diagnostic #    26 THETA
(PID.TID 0000.0001) SETDIAG: Allocate 50 x  1 Levels for Diagnostic #    27 SALT
(PID.TID 0000.0001) SETDIAG: Allocate 50 x  1 Levels for Diagnostic #    30 UVEL
(PID.TID 0000.0001) SETDIAG: Allocate 50 x  1 Levels for Diagnostic #    31 VVEL
(PID.TID 0000.0001) SETDIAG: Allocate  1 x  1 Levels for Diagnostic #   214 SIarea
(PID.TID 0000.0001) SETDIAG: Allocate  1 x  1 Levels for Diagnostic #   217 SIheff
(PID.TID 0000.0001) SETDIAG: Allocate  1 x  1 Levels for Diagnostic #   219 SIhsnow
(PID.TID 0000.0001) SETDIAG: Allocate  1 x  1 Levels for Diagnostic #    83 sIceLoad
(PID.TID 0000.0001) SETDIAG: Allocate  1 x  1 Levels for Diagnostic #   223 SIuice
(PID.TID 0000.0001) SETDIAG: Allocate  1 x  1 Levels for Diagnostic #   224 SIvice
(PID.TID 0000.0001) SETDIAG: Allocate  1 x  1 Levels for Diagnostic #   225 SItaux
(PID.TID 0000.0001) SETDIAG: Allocate  1 x  1 Levels for Diagnostic #   226 SItauy
(PID.TID 0000.0001) SETDIAG: Allocate  5 x  1 Levels for Diagnostic #   285 SIareaN
(PID.TID 0000.0001) SETDIAG: Allocate  5 x  1 Levels for Diagnostic #   284 SIheffN
(PID.TID 0000.0001) SETDIAG: Allocate  5 x  1 Levels for Diagnostic #   286 SIhsnowN
(PID.TID 0000.0001) SETDIAG: Allocate  5 x  1 Levels for Diagnostic #   290 SIqSnow
(PID.TID 0000.0001) SETDIAG: Allocate  5 x  1 Levels for Diagnostic #   291 SImeltPd
(PID.TID 0000.0001) SETDIAG: Allocate  5 x  1 Levels for Diagnostic #   288 SItIces
(PID.TID 0000.0001) SETDIAG: Allocate  5 x  1 Levels for Diagnostic #   292 SIiceAge
(PID.TID 0000.0001) SETDIAG: Allocate  5 x  1 Levels for Diagnostic #   293 SI_dArea
(PID.TID 0000.0001) SETDIAG: Allocate  5 x  1 Levels for Diagnostic #   294 SI_dHeff
(PID.TID 0000.0001) SETDIAG: Allocate  5 x  1 Levels for Diagnostic #   295 SI_dHsnw
(PID.TID 0000.0001) SETDIAG: Allocate  5 x  1 Levels for Diagnostic #   298 SI_dQSnw
(PID.TID 0000.0001) SETDIAG: Allocate 20 x  1 Levels for Diagnostic #   289 SIqIce
(PID.TID 0000.0001) SETDIAG: Allocate 20 x  1 Levels for Diagnostic #   297 SI_dQIce
(PID.TID 0000.0001) SETDIAG: Allocate  5 x  1 Levels for Diagnostic #   290 SIqSnow
(PID.TID 0000.0001) SETDIAG: Allocate  5 x  1 Levels for Diagnostic #   298 SI_dQSnw
(PID.TID 0000.0001)   space allocated for all diagnostics:     319 levels
(PID.TID 0000.0001)   set mate pointer for diag #    80  oceTAUX  , Parms: UU      U1 , mate:    81
(PID.TID 0000.0001)   set mate pointer for diag #    81  oceTAUY  , Parms: VV      U1 , mate:    80
(PID.TID 0000.0001)   set mate pointer for diag #    30  UVEL     , Parms: UUR     MR , mate:    31
(PID.TID 0000.0001)   set mate pointer for diag #    31  VVEL     , Parms: VVR     MR , mate:    30
(PID.TID 0000.0001)   set mate pointer for diag #   223  SIuice   , Parms: UU      M1 , mate:   224
(PID.TID 0000.0001)   set mate pointer for diag #   224  SIvice   , Parms: VV      M1 , mate:   223
(PID.TID 0000.0001)   set mate pointer for diag #   225  SItaux   , Parms: UU      U1 , mate:   226
(PID.TID 0000.0001)   set mate pointer for diag #   226  SItauy   , Parms: VV      U1 , mate:   225
(PID.TID 0000.0001) DIAGNOSTICS_SET_POINTERS: Set levels for Outp.Stream: surfDiag
(PID.TID 0000.0001)  Levels:       1.
(PID.TID 0000.0001) DIAGNOSTICS_SET_POINTERS: Set levels for Outp.Stream: iceDiag
(PID.TID 0000.0001)  Levels:       1.
(PID.TID 0000.0001) DIAGNOSTICS_SET_POINTERS: Set levels for Outp.Stream: iceNcat
(PID.TID 0000.0001)  Levels:       1.   2.   3.   4.   5.
(PID.TID 0000.0001) DIAGNOSTICS_SET_POINTERS: Set levels for Outp.Stream: iceEnerg
(PID.TID 0000.0001)  Levels:       1.   2.   3.   4.   5.   6.   7.   8.   9.  10.  11.  12.  13.  14.  15.  16.  17.  18.  19.  20.
(PID.TID 0000.0001) DIAGNOSTICS_SET_POINTERS: Set levels for Outp.Stream: snowEnerg
(PID.TID 0000.0001)  Levels:       1.   2.   3.   4.   5.
(PID.TID 0000.0001) DIAGNOSTICS_SET_POINTERS: done
(PID.TID 0000.0001) ------------------------------------------------------------
(PID.TID 0000.0001) DIAGSTATS_SET_REGIONS: define   0 regions:
(PID.TID 0000.0001) ------------------------------------------------------------
(PID.TID 0000.0001) SETDIAG: Allocate  1 Levels for Stats-Diag #   214 SIarea
(PID.TID 0000.0001) SETDIAG: Allocate  1 Levels for Stats-Diag #   217 SIheff
(PID.TID 0000.0001) SETDIAG: Allocate  1 Levels for Stats-Diag #   219 SIhsnow
(PID.TID 0000.0001) SETDIAG: Allocate  1 Levels for Stats-Diag #    83 sIceLoad
(PID.TID 0000.0001) SETDIAG: Allocate  1 Levels for Stats-Diag #   223 SIuice
(PID.TID 0000.0001) SETDIAG: Allocate  1 Levels for Stats-Diag #   224 SIvice
(PID.TID 0000.0001) SETDIAG: Allocate  1 Levels for Stats-Diag #   225 SItaux
(PID.TID 0000.0001) SETDIAG: Allocate  1 Levels for Stats-Diag #   226 SItauy
(PID.TID 0000.0001) SETDIAG: Allocate  5 Levels for Stats-Diag #   285 SIareaN
(PID.TID 0000.0001) SETDIAG: Allocate  5 Levels for Stats-Diag #   284 SIheffN
(PID.TID 0000.0001) SETDIAG: Allocate  5 Levels for Stats-Diag #   286 SIhsnowN
(PID.TID 0000.0001) SETDIAG: Allocate  5 Levels for Stats-Diag #   290 SIqSnow
(PID.TID 0000.0001) SETDIAG: Allocate 20 Levels for Stats-Diag #   289 SIqIce
(PID.TID 0000.0001) SETDIAG: Allocate  5 Levels for Stats-Diag #   291 SImeltPd
(PID.TID 0000.0001) SETDIAG: Allocate  5 Levels for Stats-Diag #   288 SItIces
(PID.TID 0000.0001) SETDIAG: Allocate  5 Levels for Stats-Diag #   292 SIiceAge
(PID.TID 0000.0001) SETDIAG: Allocate  5 Levels for Stats-Diag #   293 SI_dArea
(PID.TID 0000.0001) SETDIAG: Allocate  5 Levels for Stats-Diag #   294 SI_dHeff
(PID.TID 0000.0001) SETDIAG: Allocate  5 Levels for Stats-Diag #   295 SI_dHsnw
(PID.TID 0000.0001) SETDIAG: Allocate  5 Levels for Stats-Diag #   298 SI_dQSnw
(PID.TID 0000.0001) SETDIAG: Allocate 20 Levels for Stats-Diag #   297 SI_dQIce
(PID.TID 0000.0001)   space allocated for all stats-diags:     103 levels
(PID.TID 0000.0001) DIAGSTATS_SET_POINTERS: done
(PID.TID 0000.0001) ------------------------------------------------------------
(PID.TID 0000.0001) DIAGSTATS_INI_IO: open file: iceStDiag.0000000001.txt , unit=    37
(PID.TID 0000.0001) INI_GLOBAL_DOMAIN: Found   0 CS-corner Pts in the domain
(PID.TID 0000.0001) %MON fCori_max                    =   1.4584096177006E-04
(PID.TID 0000.0001) %MON fCori_min                    =  -1.4429171327635E-04
(PID.TID 0000.0001) %MON fCori_mean                   =  -1.9531894197173E-06
(PID.TID 0000.0001) %MON fCori_sd                     =   1.0434730642309E-04
(PID.TID 0000.0001) %MON fCoriG_max                   =   1.4584247033981E-04
(PID.TID 0000.0001) %MON fCoriG_min                   =  -1.4435339896041E-04
(PID.TID 0000.0001) %MON fCoriG_mean                  =  -1.9303770726087E-06
(PID.TID 0000.0001) %MON fCoriG_sd                    =   1.0435958182593E-04
(PID.TID 0000.0001) %MON fCoriCos_max                 =   1.4584158744890E-04
(PID.TID 0000.0001) %MON fCoriCos_min                 =   6.6334365221135E-07
(PID.TID 0000.0001) %MON fCoriCos_mean                =   9.3876998486639E-05
(PID.TID 0000.0001) %MON fCoriCos_sd                  =   3.9559575367967E-05
(PID.TID 0000.0001) INI_CG2D: CG2D normalisation factor =  7.1522409280111305E-05
(PID.TID 0000.0001) INI_CG2D: cg2dTolerance = 2.845112656120382E-05 (Area=3.5801386115E+14)
(PID.TID 0000.0001) 
(PID.TID 0000.0001) // =======================================================
(PID.TID 0000.0001) // Model configuration
(PID.TID 0000.0001) // =======================================================
(PID.TID 0000.0001) //
(PID.TID 0000.0001) // "Physical" paramters ( PARM01 in namelist )
(PID.TID 0000.0001) //
(PID.TID 0000.0001) buoyancyRelation = /* Type of relation to get Buoyancy */
(PID.TID 0000.0001)               'OCEANIC'
(PID.TID 0000.0001)     ;
(PID.TID 0000.0001) fluidIsAir   =  /* fluid major constituent is Air */
(PID.TID 0000.0001)                   F
(PID.TID 0000.0001)     ;
(PID.TID 0000.0001) fluidIsWater =  /* fluid major constituent is Water */
(PID.TID 0000.0001)                   T
(PID.TID 0000.0001)     ;
(PID.TID 0000.0001) usingPCoords =  /* use p (or p*) vertical coordinate */
(PID.TID 0000.0001)                   F
(PID.TID 0000.0001)     ;
(PID.TID 0000.0001) usingZCoords =  /* use z (or z*) vertical coordinate */
(PID.TID 0000.0001)                   T
(PID.TID 0000.0001)     ;
(PID.TID 0000.0001) tRef =   /* Reference temperature profile ( oC or K ) */
(PID.TID 0000.0001)     3 @  2.300000000000000E+01,             /* K =  1:  3 */
(PID.TID 0000.0001)     3 @  2.200000000000000E+01,             /* K =  4:  6 */
(PID.TID 0000.0001)                 2.100000000000000E+01,      /* K =  7 */
(PID.TID 0000.0001)     2 @  2.000000000000000E+01,             /* K =  8:  9 */
(PID.TID 0000.0001)                 1.900000000000000E+01,      /* K = 10 */
(PID.TID 0000.0001)     2 @  1.800000000000000E+01,             /* K = 11: 12 */
(PID.TID 0000.0001)                 1.700000000000000E+01,      /* K = 13 */
(PID.TID 0000.0001)     2 @  1.600000000000000E+01,             /* K = 14: 15 */
(PID.TID 0000.0001)                 1.500000000000000E+01,      /* K = 16 */
(PID.TID 0000.0001)                 1.400000000000000E+01,      /* K = 17 */
(PID.TID 0000.0001)                 1.300000000000000E+01,      /* K = 18 */
(PID.TID 0000.0001)                 1.200000000000000E+01,      /* K = 19 */
(PID.TID 0000.0001)                 1.100000000000000E+01,      /* K = 20 */
(PID.TID 0000.0001)     2 @  9.000000000000000E+00,             /* K = 21: 22 */
(PID.TID 0000.0001)                 8.000000000000000E+00,      /* K = 23 */
(PID.TID 0000.0001)                 7.000000000000000E+00,      /* K = 24 */
(PID.TID 0000.0001)     2 @  6.000000000000000E+00,             /* K = 25: 26 */
(PID.TID 0000.0001)     2 @  5.000000000000000E+00,             /* K = 27: 28 */
(PID.TID 0000.0001)     3 @  4.000000000000000E+00,             /* K = 29: 31 */
(PID.TID 0000.0001)     3 @  3.000000000000000E+00,             /* K = 32: 34 */
(PID.TID 0000.0001)     4 @  2.000000000000000E+00,             /* K = 35: 38 */
(PID.TID 0000.0001)    12 @  1.000000000000000E+00              /* K = 39: 50 */
(PID.TID 0000.0001)     ;
(PID.TID 0000.0001) sRef =   /* Reference salinity profile ( psu ) */
(PID.TID 0000.0001)    50 @  3.450000000000000E+01              /* K =  1: 50 */
(PID.TID 0000.0001)     ;
(PID.TID 0000.0001) useStrainTensionVisc= /* Use StrainTension Form of Viscous Operator */
(PID.TID 0000.0001)                   F
(PID.TID 0000.0001)     ;
(PID.TID 0000.0001) useVariableVisc = /* Use variable horizontal viscosity */
(PID.TID 0000.0001)                   T
(PID.TID 0000.0001)     ;
(PID.TID 0000.0001) useHarmonicVisc = /* Use harmonic horizontal viscosity */
(PID.TID 0000.0001)                   T
(PID.TID 0000.0001)     ;
(PID.TID 0000.0001) useBiharmonicVisc= /* Use biharmonic horiz.  viscosity */
(PID.TID 0000.0001)                   T
(PID.TID 0000.0001)     ;
(PID.TID 0000.0001) useSmag3D = /* Use isotropic 3-D Smagorinsky viscosity */
(PID.TID 0000.0001)                   F
(PID.TID 0000.0001)     ;
(PID.TID 0000.0001) viscAh  =   /* Lateral harmonic viscosity ( m^2/s ) */
(PID.TID 0000.0001)                 1.000000000000000E+00
(PID.TID 0000.0001)     ;
(PID.TID 0000.0001) viscAhMax = /* Maximum lateral harmonic viscosity ( m^2/s ) */
(PID.TID 0000.0001)                 1.000000000000000E+21
(PID.TID 0000.0001)     ;
(PID.TID 0000.0001) viscAhGrid = /* Grid dependent lateral harmonic viscosity ( non-dim. ) */
(PID.TID 0000.0001)                 2.000000000000000E-02
(PID.TID 0000.0001)     ;
(PID.TID 0000.0001) useFullLeith = /* Use Full Form of Leith Viscosity on/off flag*/
(PID.TID 0000.0001)                   F
(PID.TID 0000.0001)     ;
(PID.TID 0000.0001) useAreaViscLength = /* Use area for visc length instead of geom. mean*/
(PID.TID 0000.0001)                   F
(PID.TID 0000.0001)     ;
(PID.TID 0000.0001) viscC2leith = /* Leith harmonic visc. factor (on grad(vort),non-dim.) */
(PID.TID 0000.0001)                 0.000000000000000E+00
(PID.TID 0000.0001)     ;
(PID.TID 0000.0001) viscC2leithD = /* Leith harmonic viscosity factor (on grad(div),non-dim.)*/
(PID.TID 0000.0001)                 0.000000000000000E+00
(PID.TID 0000.0001)     ;
(PID.TID 0000.0001) viscC2smag = /* Smagorinsky harmonic viscosity factor (non-dim.) */
(PID.TID 0000.0001)                 0.000000000000000E+00
(PID.TID 0000.0001)     ;
(PID.TID 0000.0001) viscA4  =   /* Lateral biharmonic viscosity ( m^4/s ) */
(PID.TID 0000.0001)                 0.000000000000000E+00
(PID.TID 0000.0001)     ;
(PID.TID 0000.0001) viscA4Max = /* Maximum biharmonic viscosity ( m^2/s ) */
(PID.TID 0000.0001)                 1.000000000000000E+21
(PID.TID 0000.0001)     ;
(PID.TID 0000.0001) viscA4Grid = /* Grid dependent biharmonic viscosity ( non-dim. ) */
(PID.TID 0000.0001)                 0.000000000000000E+00
(PID.TID 0000.0001)     ;
(PID.TID 0000.0001) viscC4leith = /* Leith biharm viscosity factor (on grad(vort), non-dim.)*/
(PID.TID 0000.0001)                 0.000000000000000E+00
(PID.TID 0000.0001)     ;
(PID.TID 0000.0001) viscC4leithD = /* Leith biharm viscosity factor (on grad(div), non-dim.) */
(PID.TID 0000.0001)                 0.000000000000000E+00
(PID.TID 0000.0001)     ;
(PID.TID 0000.0001) viscC4Smag = /* Smagorinsky biharm viscosity factor (non-dim) */
(PID.TID 0000.0001)                 0.000000000000000E+00
(PID.TID 0000.0001)     ;
(PID.TID 0000.0001) no_slip_sides =  /* Viscous BCs: No-slip sides */
(PID.TID 0000.0001)                   T
(PID.TID 0000.0001)     ;
(PID.TID 0000.0001) sideDragFactor = /* side-drag scaling factor (non-dim) */
(PID.TID 0000.0001)                 2.000000000000000E+00
(PID.TID 0000.0001)     ;
(PID.TID 0000.0001) viscArNr = /* vertical profile of vertical viscosity ( m^2/s )*/
(PID.TID 0000.0001)    50 @  5.000000000000000E-05              /* K =  1: 50 */
(PID.TID 0000.0001)     ;
(PID.TID 0000.0001) no_slip_bottom =  /* Viscous BCs: No-slip bottom */
(PID.TID 0000.0001)                   T
(PID.TID 0000.0001)     ;
(PID.TID 0000.0001) bottomVisc_pCell = /* Partial-cell in bottom Visc. BC */
(PID.TID 0000.0001)                   F
(PID.TID 0000.0001)     ;
(PID.TID 0000.0001) bottomDragLinear = /* linear bottom-drag coefficient ( m/s ) */
(PID.TID 0000.0001)                 0.000000000000000E+00
(PID.TID 0000.0001)     ;
(PID.TID 0000.0001) bottomDragQuadratic = /* quadratic bottom-drag coefficient (-) */
(PID.TID 0000.0001)                 1.000000000000000E-03
(PID.TID 0000.0001)     ;
(PID.TID 0000.0001) selectBotDragQuadr = /* select quadratic bottom drag options */
(PID.TID 0000.0001)                       0
(PID.TID 0000.0001)     ;
(PID.TID 0000.0001) diffKhT =   /* Laplacian diffusion of heat laterally ( m^2/s ) */
(PID.TID 0000.0001)                 1.000000000000000E+01
(PID.TID 0000.0001)     ;
(PID.TID 0000.0001) diffK4T =   /* Biharmonic diffusion of heat laterally ( m^4/s ) */
(PID.TID 0000.0001)                 0.000000000000000E+00
(PID.TID 0000.0001)     ;
(PID.TID 0000.0001) diffKhS =   /* Laplacian diffusion of salt laterally ( m^2/s ) */
(PID.TID 0000.0001)                 1.000000000000000E+01
(PID.TID 0000.0001)     ;
(PID.TID 0000.0001) diffK4S =   /* Biharmonic diffusion of salt laterally ( m^4/s ) */
(PID.TID 0000.0001)                 0.000000000000000E+00
(PID.TID 0000.0001)     ;
(PID.TID 0000.0001) diffKrNrT = /* vertical profile of vertical diffusion of Temp ( m^2/s )*/
(PID.TID 0000.0001)    50 @  1.000000000000000E-05              /* K =  1: 50 */
(PID.TID 0000.0001)     ;
(PID.TID 0000.0001) diffKrNrS = /* vertical profile of vertical diffusion of Salt ( m^2/s )*/
(PID.TID 0000.0001)    50 @  1.000000000000000E-05              /* K =  1: 50 */
(PID.TID 0000.0001)     ;
(PID.TID 0000.0001) diffKrBL79surf = /* Surface diffusion for Bryan and Lewis 79 ( m^2/s ) */
(PID.TID 0000.0001)                 0.000000000000000E+00
(PID.TID 0000.0001)     ;
(PID.TID 0000.0001) diffKrBL79deep = /* Deep diffusion for Bryan and Lewis 1979 ( m^2/s ) */
(PID.TID 0000.0001)                 0.000000000000000E+00
(PID.TID 0000.0001)     ;
(PID.TID 0000.0001) diffKrBL79scl = /* Depth scale for Bryan and Lewis 1979 ( m ) */
(PID.TID 0000.0001)                 2.000000000000000E+02
(PID.TID 0000.0001)     ;
(PID.TID 0000.0001) diffKrBL79Ho = /* Turning depth for Bryan and Lewis 1979 ( m ) */
(PID.TID 0000.0001)                -2.000000000000000E+03
(PID.TID 0000.0001)     ;
(PID.TID 0000.0001) ivdc_kappa = /* Implicit Vertical Diffusivity for Convection ( m^2/s) */
(PID.TID 0000.0001)                 1.000000000000000E+01
(PID.TID 0000.0001)     ;
(PID.TID 0000.0001) hMixCriteria=  /* Criteria for mixed-layer diagnostic */
(PID.TID 0000.0001)                -8.000000000000000E-01
(PID.TID 0000.0001)     ;
(PID.TID 0000.0001) dRhoSmall =  /* Parameter for mixed-layer diagnostic */
(PID.TID 0000.0001)                 1.000000000000000E-06
(PID.TID 0000.0001)     ;
(PID.TID 0000.0001) hMixSmooth=  /* Smoothing parameter for mixed-layer diagnostic */
(PID.TID 0000.0001)                 0.000000000000000E+00
(PID.TID 0000.0001)     ;
(PID.TID 0000.0001) eosType =  /* Type of Equation of State */
(PID.TID 0000.0001)               'JMD95Z'
(PID.TID 0000.0001)     ;
(PID.TID 0000.0001) selectP_inEOS_Zc = /* select pressure to use in EOS (0,1,2,3) */
(PID.TID 0000.0001)                       0
(PID.TID 0000.0001)     0= -g*rhoConst*z ; 1= pRef (from tRef,sRef); 2= Hyd P ; 3= Hyd+NH P
(PID.TID 0000.0001)     ;
(PID.TID 0000.0001) HeatCapacity_Cp =  /* Specific heat capacity ( J/kg/K ) */
(PID.TID 0000.0001)                 3.994000000000000E+03
(PID.TID 0000.0001)     ;
(PID.TID 0000.0001) celsius2K = /* 0 degree Celsius converted to Kelvin ( K ) */
(PID.TID 0000.0001)                 2.731500000000000E+02
(PID.TID 0000.0001)     ;
(PID.TID 0000.0001) rhoConst  = /* Reference density (Boussinesq)  ( kg/m^3 ) */
(PID.TID 0000.0001)                 1.029000000000000E+03
(PID.TID 0000.0001)     ;
(PID.TID 0000.0001) rhoFacC = /* normalized Reference density @ cell-Center (-) */
(PID.TID 0000.0001)    50 @  1.000000000000000E+00              /* K =  1: 50 */
(PID.TID 0000.0001)     ;
(PID.TID 0000.0001) rhoFacF = /* normalized Reference density @ W-Interface (-) */
(PID.TID 0000.0001)    51 @  1.000000000000000E+00              /* K =  1: 51 */
(PID.TID 0000.0001)     ;
(PID.TID 0000.0001) rhoConstFresh = /* Fresh-water reference density ( kg/m^3 ) */
(PID.TID 0000.0001)                 1.000000000000000E+03
(PID.TID 0000.0001)     ;
(PID.TID 0000.0001) gravity =   /* Gravitational acceleration ( m/s^2 ) */
(PID.TID 0000.0001)                 9.810000000000000E+00
(PID.TID 0000.0001)     ;
(PID.TID 0000.0001) gBaro =   /* Barotropic gravity ( m/s^2 ) */
(PID.TID 0000.0001)                 9.810000000000000E+00
(PID.TID 0000.0001)     ;
(PID.TID 0000.0001) gravFacC = /* gravity factor (vs surf.) @ cell-Center (-) */
(PID.TID 0000.0001)    50 @  1.000000000000000E+00              /* K =  1: 50 */
(PID.TID 0000.0001)     ;
(PID.TID 0000.0001) gravFacF = /* gravity factor (vs surf.) @ W-Interface (-) */
(PID.TID 0000.0001)    51 @  1.000000000000000E+00              /* K =  1: 51 */
(PID.TID 0000.0001)     ;
(PID.TID 0000.0001) rotationPeriod =   /* Rotation Period ( s ) */
(PID.TID 0000.0001)                 8.616400000000000E+04
(PID.TID 0000.0001)     ;
(PID.TID 0000.0001) omega =   /* Angular velocity ( rad/s ) */
(PID.TID 0000.0001)                 7.292123516990375E-05
(PID.TID 0000.0001)     ;
(PID.TID 0000.0001) f0 =   /* Reference coriolis parameter ( 1/s ) */
(PID.TID 0000.0001)                 1.000000000000000E-04
(PID.TID 0000.0001)     ;
(PID.TID 0000.0001) beta =   /* Beta ( 1/(m.s) ) */
(PID.TID 0000.0001)                 9.999999999999999E-12
(PID.TID 0000.0001)     ;
(PID.TID 0000.0001) fPrime =   /* Second coriolis parameter ( 1/s ) */
(PID.TID 0000.0001)                 0.000000000000000E+00
(PID.TID 0000.0001)     ;
(PID.TID 0000.0001) rigidLid =   /* Rigid lid on/off flag */
(PID.TID 0000.0001)                   F
(PID.TID 0000.0001)     ;
(PID.TID 0000.0001) implicitFreeSurface =   /* Implicit free surface on/off flag */
(PID.TID 0000.0001)                   T
(PID.TID 0000.0001)     ;
(PID.TID 0000.0001) freeSurfFac =   /* Implicit free surface factor */
(PID.TID 0000.0001)                 1.000000000000000E+00
(PID.TID 0000.0001)     ;
(PID.TID 0000.0001) implicSurfPress =  /* Surface Pressure implicit factor (0-1)*/
(PID.TID 0000.0001)                 1.000000000000000E+00
(PID.TID 0000.0001)     ;
(PID.TID 0000.0001) implicDiv2DFlow =  /* Barot. Flow Div. implicit factor (0-1)*/
(PID.TID 0000.0001)                 1.000000000000000E+00
(PID.TID 0000.0001)     ;
(PID.TID 0000.0001) uniformLin_PhiSurf = /* use uniform Bo_surf on/off flag*/
(PID.TID 0000.0001)                   T
(PID.TID 0000.0001)     ;
(PID.TID 0000.0001) uniformFreeSurfLev = /* free-surface level-index is uniform */
(PID.TID 0000.0001)                   T
(PID.TID 0000.0001)     ;
(PID.TID 0000.0001) hFacMin =   /* minimum partial cell factor (hFac) */
(PID.TID 0000.0001)                 2.000000000000000E-01
(PID.TID 0000.0001)     ;
(PID.TID 0000.0001) hFacMinDr = /* minimum partial cell thickness ( m) */
(PID.TID 0000.0001)                 5.000000000000000E+00
(PID.TID 0000.0001)     ;
(PID.TID 0000.0001) exactConserv =  /* Exact Volume Conservation on/off flag*/
(PID.TID 0000.0001)                   T
(PID.TID 0000.0001)     ;
(PID.TID 0000.0001) linFSConserveTr = /* Tracer correction for Lin Free Surface on/off flag*/
(PID.TID 0000.0001)                   F
(PID.TID 0000.0001)     ;
(PID.TID 0000.0001) nonlinFreeSurf = /* Non-linear Free Surf. options (-1,0,1,2,3)*/
(PID.TID 0000.0001)                       4
(PID.TID 0000.0001)      -1,0= Off ; 1,2,3= On, 2=+rescale gU,gV, 3=+update cg2d solv.
(PID.TID 0000.0001)     ;
(PID.TID 0000.0001) hFacInf =   /* lower threshold for hFac (nonlinFreeSurf only)*/
(PID.TID 0000.0001)                 2.000000000000000E-01
(PID.TID 0000.0001)     ;
(PID.TID 0000.0001) hFacSup =   /* upper threshold for hFac (nonlinFreeSurf only)*/
(PID.TID 0000.0001)                 2.000000000000000E+00
(PID.TID 0000.0001)     ;
(PID.TID 0000.0001) select_rStar = /* r* Vertical coord. options (=0 r coord.; >0 uses r*)*/
(PID.TID 0000.0001)                       2
(PID.TID 0000.0001)     ;
(PID.TID 0000.0001) useRealFreshWaterFlux = /* Real Fresh Water Flux on/off flag*/
(PID.TID 0000.0001)                   T
(PID.TID 0000.0001)     ;
(PID.TID 0000.0001) temp_EvPrRn = /* Temp. of Evap/Prec/R (UNSET=use local T)(oC)*/
(PID.TID 0000.0001)                 1.234567000000000E+05
(PID.TID 0000.0001)     ;
(PID.TID 0000.0001) salt_EvPrRn = /* Salin. of Evap/Prec/R (UNSET=use local S)(psu)*/
(PID.TID 0000.0001)                 0.000000000000000E+00
(PID.TID 0000.0001)     ;
(PID.TID 0000.0001) selectAddFluid = /* option for mass source/sink of fluid (=0: off) */
(PID.TID 0000.0001)                       0
(PID.TID 0000.0001)     ;
(PID.TID 0000.0001) temp_addMass = /* Temp. of addMass array (UNSET=use local T)(oC)*/
(PID.TID 0000.0001)                 1.234567000000000E+05
(PID.TID 0000.0001)     ;
(PID.TID 0000.0001) salt_addMass = /* Salin. of addMass array (UNSET=use local S)(psu)*/
(PID.TID 0000.0001)                 0.000000000000000E+00
(PID.TID 0000.0001)     ;
(PID.TID 0000.0001) use3Dsolver = /* use 3-D pressure solver on/off flag */
(PID.TID 0000.0001)                   F
(PID.TID 0000.0001)     ;
(PID.TID 0000.0001) nonHydrostatic =  /* Non-Hydrostatic on/off flag */
(PID.TID 0000.0001)                   F
(PID.TID 0000.0001)     ;
(PID.TID 0000.0001) nh_Am2 = /* Non-Hydrostatic terms scaling factor */
(PID.TID 0000.0001)                 1.000000000000000E+00
(PID.TID 0000.0001)     ;
(PID.TID 0000.0001) implicitNHPress = /* Non-Hyd Pressure implicit factor (0-1)*/
(PID.TID 0000.0001)                 1.000000000000000E+00
(PID.TID 0000.0001)     ;
(PID.TID 0000.0001) selectNHfreeSurf = /* Non-Hyd (free-)Surface option */
(PID.TID 0000.0001)                       0
(PID.TID 0000.0001)     ;
(PID.TID 0000.0001) quasiHydrostatic = /* Quasi-Hydrostatic on/off flag */
(PID.TID 0000.0001)                   F
(PID.TID 0000.0001)     ;
(PID.TID 0000.0001) calc_wVelocity = /* vertical velocity calculation on/off flag */
(PID.TID 0000.0001)                   T
(PID.TID 0000.0001)     ;
(PID.TID 0000.0001) momStepping =  /* Momentum equation on/off flag */
(PID.TID 0000.0001)                   T
(PID.TID 0000.0001)     ;
(PID.TID 0000.0001) vectorInvariantMomentum= /* Vector-Invariant Momentum on/off */
(PID.TID 0000.0001)                   T
(PID.TID 0000.0001)     ;
(PID.TID 0000.0001) momAdvection =  /* Momentum advection on/off flag */
(PID.TID 0000.0001)                   T
(PID.TID 0000.0001)     ;
(PID.TID 0000.0001) momViscosity =  /* Momentum viscosity on/off flag */
(PID.TID 0000.0001)                   T
(PID.TID 0000.0001)     ;
(PID.TID 0000.0001) momImplVertAdv= /* Momentum implicit vert. advection on/off*/
(PID.TID 0000.0001)                   F
(PID.TID 0000.0001)     ;
(PID.TID 0000.0001) implicitViscosity = /* Implicit viscosity on/off flag */
(PID.TID 0000.0001)                   T
(PID.TID 0000.0001)     ;
(PID.TID 0000.0001) selectImplicitDrag= /* Implicit bot Drag options (0,1,2)*/
(PID.TID 0000.0001)                       0
(PID.TID 0000.0001)     0= Expl. ; 1= Impl. on provis. Vel ; 2= Fully Impl (with surf.P)
(PID.TID 0000.0001)     ;
(PID.TID 0000.0001) metricTerms =  /* metric-Terms on/off flag */
(PID.TID 0000.0001)                   F
(PID.TID 0000.0001)     ;
(PID.TID 0000.0001) useNHMTerms = /* Non-Hydrostatic Metric-Terms on/off */
(PID.TID 0000.0001)                   F
(PID.TID 0000.0001)     ;
(PID.TID 0000.0001) selectCoriMap = /* Coriolis Map options (0,1,2,3)*/
(PID.TID 0000.0001)                       2
(PID.TID 0000.0001)     0= f-Plane ; 1= Beta-Plane ; 2= Spherical ; 3= read from file
(PID.TID 0000.0001)     ;
(PID.TID 0000.0001) use3dCoriolis = /* 3-D Coriolis on/off flag */
(PID.TID 0000.0001)                   F
(PID.TID 0000.0001)     ;
(PID.TID 0000.0001) useCoriolis =  /* Coriolis on/off flag */
(PID.TID 0000.0001)                   T
(PID.TID 0000.0001)     ;
(PID.TID 0000.0001) useCDscheme =  /* CD scheme on/off flag */
(PID.TID 0000.0001)                   F
(PID.TID 0000.0001)     ;
(PID.TID 0000.0001) useEnergyConservingCoriolis= /* Flx-Form Coriolis scheme flag */
(PID.TID 0000.0001)                   F
(PID.TID 0000.0001)     ;
(PID.TID 0000.0001) useJamartWetPoints= /* Coriolis WetPoints method flag */
(PID.TID 0000.0001)                   T
(PID.TID 0000.0001)     ;
(PID.TID 0000.0001) useJamartMomAdv= /* V.I Non-linear terms Jamart flag */
(PID.TID 0000.0001)                   F
(PID.TID 0000.0001)     ;
(PID.TID 0000.0001) useAbsVorticity= /* V.I Works with f+zeta in Coriolis */
(PID.TID 0000.0001)                   F
(PID.TID 0000.0001)     ;
(PID.TID 0000.0001) selectVortScheme= /* V.I Scheme selector for Vorticity-Term */
(PID.TID 0000.0001)                       1
(PID.TID 0000.0001)    = 0 : enstrophy (Shallow-Water Eq.) conserving scheme by Sadourny, JAS 75
(PID.TID 0000.0001)    = 1 : same as 0 with modified hFac
(PID.TID 0000.0001)    = 2 : energy conserving scheme (used by Sadourny in JAS 75 paper)
(PID.TID 0000.0001)    = 3 : energy (general) and enstrophy (2D, nonDiv.) conserving scheme
(PID.TID 0000.0001)          from Sadourny (Burridge & Haseler, ECMWF Rep.4, 1977)
(PID.TID 0000.0001)     ;
(PID.TID 0000.0001) upwindVorticity= /* V.I Upwind bias vorticity flag */
(PID.TID 0000.0001)                   F
(PID.TID 0000.0001)     ;
(PID.TID 0000.0001) highOrderVorticity= /* V.I High order vort. advect. flag */
(PID.TID 0000.0001)                   F
(PID.TID 0000.0001)     ;
(PID.TID 0000.0001) upwindShear= /* V.I Upwind vertical Shear advection flag */
(PID.TID 0000.0001)                   F
(PID.TID 0000.0001)     ;
(PID.TID 0000.0001) selectKEscheme= /* V.I Kinetic Energy scheme selector */
(PID.TID 0000.0001)                       0
(PID.TID 0000.0001)     ;
(PID.TID 0000.0001) momForcing =  /* Momentum forcing on/off flag */
(PID.TID 0000.0001)                   T
(PID.TID 0000.0001)     ;
(PID.TID 0000.0001) momTidalForcing = /* Momentum Tidal forcing on/off flag */
(PID.TID 0000.0001)                   T
(PID.TID 0000.0001)     ;
(PID.TID 0000.0001) momPressureForcing =  /* Momentum pressure term on/off flag */
(PID.TID 0000.0001)                   T
(PID.TID 0000.0001)     ;
(PID.TID 0000.0001) implicitIntGravWave= /* Implicit Internal Gravity Wave flag */
(PID.TID 0000.0001)                   F
(PID.TID 0000.0001)     ;
(PID.TID 0000.0001) staggerTimeStep =    /* Stagger time stepping on/off flag */
(PID.TID 0000.0001)                   T
(PID.TID 0000.0001)     ;
(PID.TID 0000.0001) doResetHFactors = /* reset thickness factors @ each time-step */
(PID.TID 0000.0001)                   F
(PID.TID 0000.0001)     ;
(PID.TID 0000.0001) multiDimAdvection =  /* enable/disable Multi-Dim Advection */
(PID.TID 0000.0001)                   T
(PID.TID 0000.0001)     ;
(PID.TID 0000.0001) useMultiDimAdvec =   /* Multi-Dim Advection is/is-not used */
(PID.TID 0000.0001)                   T
(PID.TID 0000.0001)     ;
(PID.TID 0000.0001) implicitDiffusion = /* Implicit Diffusion on/off flag */
(PID.TID 0000.0001)                   T
(PID.TID 0000.0001)     ;
(PID.TID 0000.0001) tempStepping =  /* Temperature equation on/off flag */
(PID.TID 0000.0001)                   T
(PID.TID 0000.0001)     ;
(PID.TID 0000.0001) tempAdvection = /* Temperature advection on/off flag */
(PID.TID 0000.0001)                   T
(PID.TID 0000.0001)     ;
(PID.TID 0000.0001) tempImplVertAdv = /* Temp. implicit vert. advection on/off */
(PID.TID 0000.0001)                   F
(PID.TID 0000.0001)     ;
(PID.TID 0000.0001) tempForcing  =  /* Temperature forcing on/off flag */
(PID.TID 0000.0001)                   T
(PID.TID 0000.0001)     ;
(PID.TID 0000.0001) balanceQnet  =  /* balance net heat-flux on/off flag */
(PID.TID 0000.0001)                   F
(PID.TID 0000.0001)     ;
(PID.TID 0000.0001) doThetaClimRelax = /* apply SST relaxation on/off flag */
(PID.TID 0000.0001)                   F
(PID.TID 0000.0001)     ;
(PID.TID 0000.0001) balanceThetaClimRelax= /* balance SST relaxation on/off flag */
(PID.TID 0000.0001)                   F
(PID.TID 0000.0001)     ;
(PID.TID 0000.0001) tempIsActiveTr = /* Temp. is a dynamically Active Tracer */
(PID.TID 0000.0001)                   T
(PID.TID 0000.0001)     ;
(PID.TID 0000.0001) saltStepping =  /* Salinity equation on/off flag */
(PID.TID 0000.0001)                   T
(PID.TID 0000.0001)     ;
(PID.TID 0000.0001) saltAdvection = /* Salinity advection on/off flag */
(PID.TID 0000.0001)                   T
(PID.TID 0000.0001)     ;
(PID.TID 0000.0001) saltImplVertAdv = /* Sali. implicit vert. advection on/off */
(PID.TID 0000.0001)                   F
(PID.TID 0000.0001)     ;
(PID.TID 0000.0001) saltForcing  =  /* Salinity forcing on/off flag */
(PID.TID 0000.0001)                   T
(PID.TID 0000.0001)     ;
(PID.TID 0000.0001) balanceEmPmR =  /* balance net fresh-water flux on/off flag */
(PID.TID 0000.0001)                   F
(PID.TID 0000.0001)     ;
(PID.TID 0000.0001) doSaltClimRelax = /* apply SSS relaxation on/off flag */
(PID.TID 0000.0001)                   F
(PID.TID 0000.0001)     ;
(PID.TID 0000.0001) balanceSaltClimRelax= /* balance SSS relaxation on/off flag */
(PID.TID 0000.0001)                   T
(PID.TID 0000.0001)     ;
(PID.TID 0000.0001) saltIsActiveTr = /* Salt  is a dynamically Active Tracer */
(PID.TID 0000.0001)                   T
(PID.TID 0000.0001)     ;
(PID.TID 0000.0001)  readBinaryPrec = /* Precision used for reading binary files */
(PID.TID 0000.0001)                      32
(PID.TID 0000.0001)     ;
(PID.TID 0000.0001) writeBinaryPrec = /* Precision used for writing binary files */
(PID.TID 0000.0001)                      32
(PID.TID 0000.0001)     ;
(PID.TID 0000.0001)  rwSuffixType =   /* select format of mds file suffix */
(PID.TID 0000.0001)                       0
(PID.TID 0000.0001)    = 0 : myIter (I10.10) ;   = 1 : 100*myTime (100th sec) ;
(PID.TID 0000.0001)    = 2 : myTime (seconds);   = 3 : myTime/360 (10th of hr);
(PID.TID 0000.0001)    = 4 : myTime/3600 (hours)
(PID.TID 0000.0001)     ;
(PID.TID 0000.0001)  globalFiles = /* write "global" (=not per tile) files */
(PID.TID 0000.0001)                   F
(PID.TID 0000.0001)     ;
(PID.TID 0000.0001)  useSingleCpuIO = /* only master MPI process does I/O */
(PID.TID 0000.0001)                   T
(PID.TID 0000.0001)     ;
(PID.TID 0000.0001)  useSingleCpuInput = /* only master process reads input */
(PID.TID 0000.0001)                   T
(PID.TID 0000.0001)     ;
(PID.TID 0000.0001) /* debLev[*]  : level of debug & auxiliary message printing */
(PID.TID 0000.0001) debLevZero =  0 ; /* level of disabled aux. msg printing */
(PID.TID 0000.0001)    debLevA =  1 ; /* level of minimum  aux. msg printing */
(PID.TID 0000.0001)    debLevB =  2 ; /* level of low aux. print (report read-file opening)*/
(PID.TID 0000.0001)    debLevC =  3 ; /* level of moderate debug prt (most pkgs debug msg) */
(PID.TID 0000.0001)    debLevD =  4 ; /* level of enhanced debug prt (add DEBUG_STATS prt) */
(PID.TID 0000.0001)    debLevE =  5 ; /* level of extensive debug printing */
(PID.TID 0000.0001) debugLevel =  /* select debug printing level */
(PID.TID 0000.0001)                       2
(PID.TID 0000.0001)     ;
(PID.TID 0000.0001)  plotLevel =  /* select PLOT_FIELD printing level */
(PID.TID 0000.0001)                       2
(PID.TID 0000.0001)     ;
(PID.TID 0000.0001) //
(PID.TID 0000.0001) // Elliptic solver(s) paramters ( PARM02 in namelist )
(PID.TID 0000.0001) //
(PID.TID 0000.0001) cg2dMaxIters =   /* Upper limit on 2d con. grad iterations  */
(PID.TID 0000.0001)                     300
(PID.TID 0000.0001)     ;
(PID.TID 0000.0001) cg2dChkResFreq =   /* 2d con. grad convergence test frequency */
(PID.TID 0000.0001)                       1
(PID.TID 0000.0001)     ;
(PID.TID 0000.0001) cg2dUseMinResSol= /* use cg2d last-iter(=0) / min-resid.(=1) solution */
(PID.TID 0000.0001)                       0
(PID.TID 0000.0001)     ;
(PID.TID 0000.0001) cg2dTargetResidual =   /* 2d con. grad target residual  */
(PID.TID 0000.0001)                 1.000000000000000E-07
(PID.TID 0000.0001)     ;
(PID.TID 0000.0001) cg2dTargetResWunit =   /* CG2d target residual [W units] */
(PID.TID 0000.0001)                 1.000000000000000E-12
(PID.TID 0000.0001)     ;
(PID.TID 0000.0001) cg2dPreCondFreq =   /* Freq. for updating cg2d preconditioner */
(PID.TID 0000.0001)                       1
(PID.TID 0000.0001)     ;
(PID.TID 0000.0001) useSRCGSolver =  /* use single reduction CG solver(s) */
(PID.TID 0000.0001)                   F
(PID.TID 0000.0001)     ;
(PID.TID 0000.0001) printResidualFreq = /* Freq. for printing CG residual */
(PID.TID 0000.0001)                       0
(PID.TID 0000.0001)     ;
(PID.TID 0000.0001) //
(PID.TID 0000.0001) // Time stepping paramters ( PARM03 in namelist )
(PID.TID 0000.0001) //
(PID.TID 0000.0001) deltaTMom =   /* Momentum equation timestep ( s ) */
(PID.TID 0000.0001)                 9.000000000000000E+02
(PID.TID 0000.0001)     ;
(PID.TID 0000.0001) deltaTFreeSurf = /* FreeSurface equation timestep ( s ) */
(PID.TID 0000.0001)                 9.000000000000000E+02
(PID.TID 0000.0001)     ;
(PID.TID 0000.0001) dTtracerLev =  /* Tracer equation timestep ( s ) */
(PID.TID 0000.0001)    50 @  9.000000000000000E+02              /* K =  1: 50 */
(PID.TID 0000.0001)     ;
(PID.TID 0000.0001) deltaTClock  =   /* Model clock timestep ( s ) */
(PID.TID 0000.0001)                 9.000000000000000E+02
(PID.TID 0000.0001)     ;
(PID.TID 0000.0001) cAdjFreq =   /* Convective adjustment interval ( s ) */
(PID.TID 0000.0001)                 0.000000000000000E+00
(PID.TID 0000.0001)     ;
(PID.TID 0000.0001) momForcingOutAB = /* =1: take Momentum Forcing out of Adams-Bash. stepping */
(PID.TID 0000.0001)                       1
(PID.TID 0000.0001)     ;
(PID.TID 0000.0001) tracForcingOutAB = /* =1: take T,S,pTr Forcing out of Adams-Bash. stepping */
(PID.TID 0000.0001)                       1
(PID.TID 0000.0001)     ;
(PID.TID 0000.0001) momDissip_In_AB = /* put Dissipation Tendency in Adams-Bash. stepping */
(PID.TID 0000.0001)                   F
(PID.TID 0000.0001)     ;
(PID.TID 0000.0001) doAB_onGtGs = /* apply AB on Tendencies (rather than on T,S)*/
(PID.TID 0000.0001)                   T
(PID.TID 0000.0001)     ;
(PID.TID 0000.0001) abEps =   /* Adams-Bashforth-2 stabilizing weight */
(PID.TID 0000.0001)                 1.000000000000000E-01
(PID.TID 0000.0001)     ;
(PID.TID 0000.0001) applyExchUV_early = /* Apply EXCH to U,V earlier in time-step */
(PID.TID 0000.0001)                   F
(PID.TID 0000.0001)     ;
(PID.TID 0000.0001) pickupStrictlyMatch= /* stop if pickup do not strictly match */
(PID.TID 0000.0001)                   F
(PID.TID 0000.0001)     ;
(PID.TID 0000.0001) nIter0   =   /* Run starting timestep number */
(PID.TID 0000.0001)                       1
(PID.TID 0000.0001)     ;
(PID.TID 0000.0001) nTimeSteps = /* Number of timesteps */
(PID.TID 0000.0001)                      96
(PID.TID 0000.0001)     ;
(PID.TID 0000.0001) nEndIter =   /* Run ending timestep number */
(PID.TID 0000.0001)                      97
(PID.TID 0000.0001)     ;
(PID.TID 0000.0001) baseTime =   /* Model base time ( s ) */
(PID.TID 0000.0001)                 0.000000000000000E+00
(PID.TID 0000.0001)     ;
(PID.TID 0000.0001) startTime =  /* Run start time ( s ) */
(PID.TID 0000.0001)                 9.000000000000000E+02
(PID.TID 0000.0001)     ;
(PID.TID 0000.0001) endTime  =   /* Integration ending time ( s ) */
(PID.TID 0000.0001)                 8.730000000000000E+04
(PID.TID 0000.0001)     ;
(PID.TID 0000.0001) pChkPtFreq = /* Permanent restart/pickup file interval ( s ) */
(PID.TID 0000.0001)                 8.640000000000000E+04
(PID.TID 0000.0001)     ;
(PID.TID 0000.0001) chkPtFreq  = /* Rolling restart/pickup file interval ( s ) */
(PID.TID 0000.0001)                 8.640000000000000E+04
(PID.TID 0000.0001)     ;
(PID.TID 0000.0001) pickup_write_mdsio =   /* Model IO flag. */
(PID.TID 0000.0001)                   T
(PID.TID 0000.0001)     ;
(PID.TID 0000.0001) pickup_read_mdsio =   /* Model IO flag. */
(PID.TID 0000.0001)                   T
(PID.TID 0000.0001)     ;
(PID.TID 0000.0001) writePickupAtEnd =   /* Model IO flag. */
(PID.TID 0000.0001)                   T
(PID.TID 0000.0001)     ;
(PID.TID 0000.0001) dumpFreq =   /* Model state write out interval ( s ). */
(PID.TID 0000.0001)                 0.000000000000000E+00
(PID.TID 0000.0001)     ;
(PID.TID 0000.0001) dumpInitAndLast= /* write out Initial & Last iter. model state */
(PID.TID 0000.0001)                   T
(PID.TID 0000.0001)     ;
(PID.TID 0000.0001) snapshot_mdsio =   /* Model IO flag. */
(PID.TID 0000.0001)                   T
(PID.TID 0000.0001)     ;
(PID.TID 0000.0001) monitorFreq =   /* Monitor output interval ( s ). */
(PID.TID 0000.0001)                 7.200000000000000E+03
(PID.TID 0000.0001)     ;
(PID.TID 0000.0001) monitorSelect = /* select group of variables to monitor */
(PID.TID 0000.0001)                       3
(PID.TID 0000.0001)     ;
(PID.TID 0000.0001) monitor_stdio =   /* Model IO flag. */
(PID.TID 0000.0001)                   T
(PID.TID 0000.0001)     ;
(PID.TID 0000.0001) externForcingPeriod =   /* forcing period (s) */
(PID.TID 0000.0001)                 0.000000000000000E+00
(PID.TID 0000.0001)     ;
(PID.TID 0000.0001) externForcingCycle =   /* period of the cyle (s). */
(PID.TID 0000.0001)                 0.000000000000000E+00
(PID.TID 0000.0001)     ;
(PID.TID 0000.0001) tauThetaClimRelax =   /* relaxation time scale (s) */
(PID.TID 0000.0001)                 0.000000000000000E+00
(PID.TID 0000.0001)     ;
(PID.TID 0000.0001) tauSaltClimRelax =   /* relaxation time scale (s) */
(PID.TID 0000.0001)                 0.000000000000000E+00
(PID.TID 0000.0001)     ;
(PID.TID 0000.0001) latBandClimRelax =   /* max. Lat. where relaxation */
(PID.TID 0000.0001)                 1.800000000000000E+02
(PID.TID 0000.0001)     ;
(PID.TID 0000.0001) //
(PID.TID 0000.0001) // Gridding paramters ( PARM04 in namelist )
(PID.TID 0000.0001) //
(PID.TID 0000.0001) usingCartesianGrid = /* Cartesian coordinates flag ( True/False ) */
(PID.TID 0000.0001)                   F
(PID.TID 0000.0001)     ;
(PID.TID 0000.0001) usingCylindricalGrid = /* Cylindrical coordinates flag ( True/False ) */
(PID.TID 0000.0001)                   F
(PID.TID 0000.0001)     ;
(PID.TID 0000.0001) usingSphericalPolarGrid = /* Spherical coordinates flag ( True/False ) */
(PID.TID 0000.0001)                   F
(PID.TID 0000.0001)     ;
(PID.TID 0000.0001) usingCurvilinearGrid = /* Curvilinear coordinates flag ( True/False ) */
(PID.TID 0000.0001)                   T
(PID.TID 0000.0001)     ;
(PID.TID 0000.0001) useMin4hFacEdges = /* set hFacW,S as minimum of adjacent hFacC factor */
(PID.TID 0000.0001)                   F
(PID.TID 0000.0001)     ;
(PID.TID 0000.0001) interViscAr_pCell = /* account for partial-cell in interior vert. viscosity */
(PID.TID 0000.0001)                   F
(PID.TID 0000.0001)     ;
(PID.TID 0000.0001) interDiffKr_pCell = /* account for partial-cell in interior vert. diffusion */
(PID.TID 0000.0001)                   F
(PID.TID 0000.0001)     ;
(PID.TID 0000.0001) pCellMix_select = /* option to enhance mixing near surface & bottom */
(PID.TID 0000.0001)                       0
(PID.TID 0000.0001)     ;
(PID.TID 0000.0001) selectSigmaCoord = /* Hybrid-Sigma Vert. Coordinate option */
(PID.TID 0000.0001)                       0
(PID.TID 0000.0001)     ;
(PID.TID 0000.0001) rSigmaBnd = /* r/sigma transition ( units of r ==  m ) */
(PID.TID 0000.0001)                 1.234567000000000E+05
(PID.TID 0000.0001)     ;
(PID.TID 0000.0001) rkSign =   /* index orientation relative to vertical coordinate */
(PID.TID 0000.0001)                -1.000000000000000E+00
(PID.TID 0000.0001)     ;
(PID.TID 0000.0001) gravitySign = /* gravity orientation relative to vertical coordinate */
(PID.TID 0000.0001)                -1.000000000000000E+00
(PID.TID 0000.0001)     ;
(PID.TID 0000.0001) seaLev_Z =  /* reference height of sea-level [m] */
(PID.TID 0000.0001)                 0.000000000000000E+00
(PID.TID 0000.0001)     ;
(PID.TID 0000.0001) top_Pres =  /* reference pressure at the top [Pa] */
(PID.TID 0000.0001)                 0.000000000000000E+00
(PID.TID 0000.0001)     ;
(PID.TID 0000.0001) mass2rUnit = /* convert mass per unit area [kg/m2] to r-units [m] */
(PID.TID 0000.0001)                 9.718172983479105E-04
(PID.TID 0000.0001)     ;
(PID.TID 0000.0001) rUnit2mass = /* convert r-units [m] to mass per unit area [kg/m2] */
(PID.TID 0000.0001)                 1.029000000000000E+03
(PID.TID 0000.0001)     ;
(PID.TID 0000.0001) drC =   /* C spacing ( units of r ) */
(PID.TID 0000.0001)                 5.000000000000000E+00,      /* K =  1 */
(PID.TID 0000.0001)     6 @  1.000000000000000E+01,             /* K =  2:  7 */
(PID.TID 0000.0001)                 1.000500000000000E+01,      /* K =  8 */
(PID.TID 0000.0001)                 1.002000000000000E+01,      /* K =  9 */
(PID.TID 0000.0001)                 1.007000000000000E+01,      /* K = 10 */
(PID.TID 0000.0001)                 1.021500000000000E+01,      /* K = 11 */
(PID.TID 0000.0001)                 1.056000000000000E+01,      /* K = 12 */
(PID.TID 0000.0001)                 1.128000000000000E+01,      /* K = 13 */
(PID.TID 0000.0001)                 1.259000000000000E+01,      /* K = 14 */
(PID.TID 0000.0001)                 1.473000000000000E+01,      /* K = 15 */
(PID.TID 0000.0001)                 1.793000000000000E+01,      /* K = 16 */
(PID.TID 0000.0001)                 2.233500000000000E+01,      /* K = 17 */
(PID.TID 0000.0001)                 2.797500000000000E+01,      /* K = 18 */
(PID.TID 0000.0001)                 3.476000000000001E+01,      /* K = 19 */
(PID.TID 0000.0001)                 4.246000000000000E+01,      /* K = 20 */
(PID.TID 0000.0001)                 5.075000000000000E+01,      /* K = 21 */
(PID.TID 0000.0001)                 5.925000000000000E+01,      /* K = 22 */
(PID.TID 0000.0001)                 6.753999999999999E+01,      /* K = 23 */
(PID.TID 0000.0001)                 7.524000000000001E+01,      /* K = 24 */
(PID.TID 0000.0001)                 8.202500000000001E+01,      /* K = 25 */
(PID.TID 0000.0001)                 8.766500000000001E+01,      /* K = 26 */
(PID.TID 0000.0001)                 9.206999999999999E+01,      /* K = 27 */
(PID.TID 0000.0001)                 9.527000000000000E+01,      /* K = 28 */
(PID.TID 0000.0001)                 9.741499999999999E+01,      /* K = 29 */
(PID.TID 0000.0001)                 9.875000000000000E+01,      /* K = 30 */
(PID.TID 0000.0001)                 9.963000000000000E+01,      /* K = 31 */
(PID.TID 0000.0001)                 1.006700000000000E+02,      /* K = 32 */
(PID.TID 0000.0001)                 1.029450000000000E+02,      /* K = 33 */
(PID.TID 0000.0001)                 1.079450000000000E+02,      /* K = 34 */
(PID.TID 0000.0001)                 1.170800000000000E+02,      /* K = 35 */
(PID.TID 0000.0001)                 1.309600000000000E+02,      /* K = 36 */
(PID.TID 0000.0001)                 1.490150000000000E+02,      /* K = 37 */
(PID.TID 0000.0001)                 1.698850000000000E+02,      /* K = 38 */
(PID.TID 0000.0001)                 1.921900000000000E+02,      /* K = 39 */
(PID.TID 0000.0001)                 2.150250000000000E+02,      /* K = 40 */
(PID.TID 0000.0001)                 2.380000000000000E+02,      /* K = 41 */
(PID.TID 0000.0001)                 2.610000000000000E+02,      /* K = 42 */
(PID.TID 0000.0001)                 2.840000000000000E+02,      /* K = 43 */
(PID.TID 0000.0001)                 3.070000000000000E+02,      /* K = 44 */
(PID.TID 0000.0001)                 3.300000000000000E+02,      /* K = 45 */
(PID.TID 0000.0001)                 3.530000000000000E+02,      /* K = 46 */
(PID.TID 0000.0001)                 3.760000000000000E+02,      /* K = 47 */
(PID.TID 0000.0001)                 3.990000000000000E+02,      /* K = 48 */
(PID.TID 0000.0001)                 4.220000000000000E+02,      /* K = 49 */
(PID.TID 0000.0001)                 4.450000000000000E+02,      /* K = 50 */
(PID.TID 0000.0001)                 2.282500000000000E+02       /* K = 51 */
(PID.TID 0000.0001)     ;
(PID.TID 0000.0001) drF =   /* W spacing ( units of r ) */
(PID.TID 0000.0001)     7 @  1.000000000000000E+01,             /* K =  1:  7 */
(PID.TID 0000.0001)                 1.001000000000000E+01,      /* K =  8 */
(PID.TID 0000.0001)                 1.003000000000000E+01,      /* K =  9 */
(PID.TID 0000.0001)                 1.011000000000000E+01,      /* K = 10 */
(PID.TID 0000.0001)                 1.032000000000000E+01,      /* K = 11 */
(PID.TID 0000.0001)                 1.080000000000000E+01,      /* K = 12 */
(PID.TID 0000.0001)                 1.176000000000000E+01,      /* K = 13 */
(PID.TID 0000.0001)                 1.342000000000000E+01,      /* K = 14 */
(PID.TID 0000.0001)                 1.604000000000000E+01,      /* K = 15 */
(PID.TID 0000.0001)                 1.982000000000000E+01,      /* K = 16 */
(PID.TID 0000.0001)                 2.485000000000000E+01,      /* K = 17 */
(PID.TID 0000.0001)                 3.110000000000000E+01,      /* K = 18 */
(PID.TID 0000.0001)                 3.842000000000000E+01,      /* K = 19 */
(PID.TID 0000.0001)                 4.650000000000000E+01,      /* K = 20 */
(PID.TID 0000.0001)                 5.500000000000000E+01,      /* K = 21 */
(PID.TID 0000.0001)                 6.350000000000000E+01,      /* K = 22 */
(PID.TID 0000.0001)                 7.158000000000000E+01,      /* K = 23 */
(PID.TID 0000.0001)                 7.890000000000001E+01,      /* K = 24 */
(PID.TID 0000.0001)                 8.515000000000001E+01,      /* K = 25 */
(PID.TID 0000.0001)                 9.018000000000001E+01,      /* K = 26 */
(PID.TID 0000.0001)                 9.395999999999999E+01,      /* K = 27 */
(PID.TID 0000.0001)                 9.658000000000000E+01,      /* K = 28 */
(PID.TID 0000.0001)                 9.825000000000000E+01,      /* K = 29 */
(PID.TID 0000.0001)                 9.925000000000000E+01,      /* K = 30 */
(PID.TID 0000.0001)                 1.000100000000000E+02,      /* K = 31 */
(PID.TID 0000.0001)                 1.013300000000000E+02,      /* K = 32 */
(PID.TID 0000.0001)                 1.045600000000000E+02,      /* K = 33 */
(PID.TID 0000.0001)                 1.113300000000000E+02,      /* K = 34 */
(PID.TID 0000.0001)                 1.228300000000000E+02,      /* K = 35 */
(PID.TID 0000.0001)                 1.390900000000000E+02,      /* K = 36 */
(PID.TID 0000.0001)                 1.589400000000000E+02,      /* K = 37 */
(PID.TID 0000.0001)                 1.808300000000000E+02,      /* K = 38 */
(PID.TID 0000.0001)                 2.035500000000000E+02,      /* K = 39 */
(PID.TID 0000.0001)                 2.265000000000000E+02,      /* K = 40 */
(PID.TID 0000.0001)                 2.495000000000000E+02,      /* K = 41 */
(PID.TID 0000.0001)                 2.725000000000000E+02,      /* K = 42 */
(PID.TID 0000.0001)                 2.955000000000000E+02,      /* K = 43 */
(PID.TID 0000.0001)                 3.185000000000000E+02,      /* K = 44 */
(PID.TID 0000.0001)                 3.415000000000000E+02,      /* K = 45 */
(PID.TID 0000.0001)                 3.645000000000000E+02,      /* K = 46 */
(PID.TID 0000.0001)                 3.875000000000000E+02,      /* K = 47 */
(PID.TID 0000.0001)                 4.105000000000000E+02,      /* K = 48 */
(PID.TID 0000.0001)                 4.335000000000000E+02,      /* K = 49 */
(PID.TID 0000.0001)                 4.565000000000000E+02       /* K = 50 */
(PID.TID 0000.0001)     ;
(PID.TID 0000.0001) radius_fromHorizGrid = /* sphere Radius of input horiz. grid */
(PID.TID 0000.0001)                 6.370000000000000E+06
(PID.TID 0000.0001)     ;
(PID.TID 0000.0001) rSphere =  /* Radius ( ignored - cartesian, m - spherical ) */
(PID.TID 0000.0001)                 6.370000000000000E+06
(PID.TID 0000.0001)     ;
(PID.TID 0000.0001) deepAtmosphere = /* Deep/Shallow Atmosphere flag (True/False) */
(PID.TID 0000.0001)                   F
(PID.TID 0000.0001)     ;
(PID.TID 0000.0001) xC =  /* xC(:,1,:,1) : P-point X coord ( deg. or m if cartesian) */
(PID.TID 0000.0001)                -4.081468768806280E+01,      /* I =  1 */
(PID.TID 0000.0001)                -3.957104986057077E+01,      /* I =  2 */
(PID.TID 0000.0001)                -3.832217028656162E+01,      /* I =  3 */
(PID.TID 0000.0001)                -3.706844413107324E+01,      /* I =  4 */
(PID.TID 0000.0001)                -3.581028225779612E+01,      /* I =  5 */
(PID.TID 0000.0001)                -3.454811012006861E+01,      /* I =  6 */
(PID.TID 0000.0001)                -3.328236654497336E+01,      /* I =  7 */
(PID.TID 0000.0001)                -3.201350241727823E+01,      /* I =  8 */
(PID.TID 0000.0001)                -3.074197927113779E+01,      /* I =  9 */
(PID.TID 0000.0001)                -2.946826779826338E+01,      /* I = 10 */
(PID.TID 0000.0001)                -2.819284628214859E+01,      /* I = 11 */
(PID.TID 0000.0001)                -2.691619896217756E+01,      /* I = 12 */
(PID.TID 0000.0001)                -2.563881425705264E+01,      /* I = 13 */
(PID.TID 0000.0001)                -2.436118574294736E+01,      /* I = 14 */
(PID.TID 0000.0001)                -2.308380103782244E+01,      /* I = 15 */
(PID.TID 0000.0001)                -2.180715371785141E+01,      /* I = 16 */
(PID.TID 0000.0001)                -2.053173220173662E+01,      /* I = 17 */
(PID.TID 0000.0001)                -1.925802072886221E+01,      /* I = 18 */
(PID.TID 0000.0001)                -1.798649758272177E+01,      /* I = 19 */
(PID.TID 0000.0001)                -1.671763345502664E+01,      /* I = 20 */
(PID.TID 0000.0001)                -1.545188987993139E+01,      /* I = 21 */
(PID.TID 0000.0001)                -1.418971774220388E+01,      /* I = 22 */
(PID.TID 0000.0001)                -1.293155586892676E+01,      /* I = 23 */
(PID.TID 0000.0001)                -1.167782971343838E+01,      /* I = 24 */
(PID.TID 0000.0001)                -1.042895013942923E+01,      /* I = 25 */
(PID.TID 0000.0001)                -9.185312311937196E+00,      /* I = 26 */
(PID.TID 0000.0001)                -7.947294700425999E+00,      /* I = 27 */
(PID.TID 0000.0001)                -6.715258197621779E+00,      /* I = 28 */
(PID.TID 0000.0001)                -5.489545357070952E+00,      /* I = 29 */
(PID.TID 0000.0001)                -4.270479749729759E+00       /* I = 30 */
(PID.TID 0000.0001)     ;
(PID.TID 0000.0001) yC =  /* yC(1,:,1,:) : P-point Y coord ( deg. or m if cartesian) */
(PID.TID 0000.0001)                -8.146222940368236E+01,      /* J =  1 */
(PID.TID 0000.0001)                -8.113083815286421E+01,      /* J =  2 */
(PID.TID 0000.0001)                -8.079504828233755E+01,      /* J =  3 */
(PID.TID 0000.0001)                -8.045491317322768E+01,      /* J =  4 */
(PID.TID 0000.0001)                -8.011048280590389E+01,      /* J =  5 */
(PID.TID 0000.0001)                -7.976180430515704E+01,      /* J =  6 */
(PID.TID 0000.0001)                -7.940892240526760E+01,      /* J =  7 */
(PID.TID 0000.0001)                -7.905187984845006E+01,      /* J =  8 */
(PID.TID 0000.0001)                -7.869071772754813E+01,      /* J =  9 */
(PID.TID 0000.0001)                -7.832547578199167E+01,      /* J = 10 */
(PID.TID 0000.0001)                -7.795619265432416E+01,      /* J = 11 */
(PID.TID 0000.0001)                -7.758290611340497E+01,      /* J = 12 */
(PID.TID 0000.0001)                -7.720565324926896E+01,      /* J = 13 */
(PID.TID 0000.0001)                -7.682447064385434E+01,      /* J = 14 */
(PID.TID 0000.0001)                -7.643939452107085E+01,      /* J = 15 */
(PID.TID 0000.0001)                -7.605046087901695E+01,      /* J = 16 */
(PID.TID 0000.0001)                -7.565770560699295E+01,      /* J = 17 */
(PID.TID 0000.0001)                -7.526116458910658E+01,      /* J = 18 */
(PID.TID 0000.0001)                -7.486087379640449E+01,      /* J = 19 */
(PID.TID 0000.0001)                -7.445686936886233E+01,      /* J = 20 */
(PID.TID 0000.0001)                -7.404918768854837E+01,      /* J = 21 */
(PID.TID 0000.0001)                -7.363786544493549E+01,      /* J = 22 */
(PID.TID 0000.0001)                -7.322293969328220E+01,      /* J = 23 */
(PID.TID 0000.0001)                -7.280444790682334E+01,      /* J = 24 */
(PID.TID 0000.0001)                -7.238242802328044E+01,      /* J = 25 */
(PID.TID 0000.0001)                -7.195691848614972E+01,      /* J = 26 */
(PID.TID 0000.0001)                -7.152795828082729E+01,      /* J = 27 */
(PID.TID 0000.0001)                -7.109558696482472E+01,      /* J = 28 */
(PID.TID 0000.0001)                -7.065984468855757E+01,      /* J = 29 */
(PID.TID 0000.0001)                -7.022077218177122E+01       /* J = 30 */
(PID.TID 0000.0001)     ;
(PID.TID 0000.0001) rcoord = /* P-point R coordinate (  units of r ) */
(PID.TID 0000.0001)                -5.000000000000000E+00,      /* K =  1 */
(PID.TID 0000.0001)                -1.500000000000000E+01,      /* K =  2 */
(PID.TID 0000.0001)                -2.500000000000000E+01,      /* K =  3 */
(PID.TID 0000.0001)                -3.500000000000000E+01,      /* K =  4 */
(PID.TID 0000.0001)                -4.500000000000000E+01,      /* K =  5 */
(PID.TID 0000.0001)                -5.500000000000000E+01,      /* K =  6 */
(PID.TID 0000.0001)                -6.500000000000000E+01,      /* K =  7 */
(PID.TID 0000.0001)                -7.500500000000000E+01,      /* K =  8 */
(PID.TID 0000.0001)                -8.502499999999999E+01,      /* K =  9 */
(PID.TID 0000.0001)                -9.509500000000000E+01,      /* K = 10 */
(PID.TID 0000.0001)                -1.053100000000000E+02,      /* K = 11 */
(PID.TID 0000.0001)                -1.158700000000000E+02,      /* K = 12 */
(PID.TID 0000.0001)                -1.271500000000000E+02,      /* K = 13 */
(PID.TID 0000.0001)                -1.397400000000000E+02,      /* K = 14 */
(PID.TID 0000.0001)                -1.544700000000000E+02,      /* K = 15 */
(PID.TID 0000.0001)                -1.724000000000000E+02,      /* K = 16 */
(PID.TID 0000.0001)                -1.947350000000000E+02,      /* K = 17 */
(PID.TID 0000.0001)                -2.227100000000000E+02,      /* K = 18 */
(PID.TID 0000.0001)                -2.574700000000000E+02,      /* K = 19 */
(PID.TID 0000.0001)                -2.999300000000000E+02,      /* K = 20 */
(PID.TID 0000.0001)                -3.506800000000000E+02,      /* K = 21 */
(PID.TID 0000.0001)                -4.099300000000000E+02,      /* K = 22 */
(PID.TID 0000.0001)                -4.774700000000000E+02,      /* K = 23 */
(PID.TID 0000.0001)                -5.527100000000000E+02,      /* K = 24 */
(PID.TID 0000.0001)                -6.347350000000000E+02,      /* K = 25 */
(PID.TID 0000.0001)                -7.224000000000000E+02,      /* K = 26 */
(PID.TID 0000.0001)                -8.144700000000000E+02,      /* K = 27 */
(PID.TID 0000.0001)                -9.097400000000000E+02,      /* K = 28 */
(PID.TID 0000.0001)                -1.007155000000000E+03,      /* K = 29 */
(PID.TID 0000.0001)                -1.105905000000000E+03,      /* K = 30 */
(PID.TID 0000.0001)                -1.205535000000000E+03,      /* K = 31 */
(PID.TID 0000.0001)                -1.306205000000000E+03,      /* K = 32 */
(PID.TID 0000.0001)                -1.409150000000000E+03,      /* K = 33 */
(PID.TID 0000.0001)                -1.517095000000000E+03,      /* K = 34 */
(PID.TID 0000.0001)                -1.634175000000000E+03,      /* K = 35 */
(PID.TID 0000.0001)                -1.765135000000000E+03,      /* K = 36 */
(PID.TID 0000.0001)                -1.914150000000000E+03,      /* K = 37 */
(PID.TID 0000.0001)                -2.084035000000000E+03,      /* K = 38 */
(PID.TID 0000.0001)                -2.276225000000000E+03,      /* K = 39 */
(PID.TID 0000.0001)                -2.491250000000000E+03,      /* K = 40 */
(PID.TID 0000.0001)                -2.729250000000000E+03,      /* K = 41 */
(PID.TID 0000.0001)                -2.990250000000000E+03,      /* K = 42 */
(PID.TID 0000.0001)                -3.274250000000000E+03,      /* K = 43 */
(PID.TID 0000.0001)                -3.581250000000000E+03,      /* K = 44 */
(PID.TID 0000.0001)                -3.911250000000000E+03,      /* K = 45 */
(PID.TID 0000.0001)                -4.264250000000000E+03,      /* K = 46 */
(PID.TID 0000.0001)                -4.640250000000000E+03,      /* K = 47 */
(PID.TID 0000.0001)                -5.039250000000000E+03,      /* K = 48 */
(PID.TID 0000.0001)                -5.461250000000000E+03,      /* K = 49 */
(PID.TID 0000.0001)                -5.906250000000000E+03       /* K = 50 */
(PID.TID 0000.0001)     ;
(PID.TID 0000.0001) rF =   /* W-Interf. R coordinate (  units of r ) */
(PID.TID 0000.0001)                 0.000000000000000E+00,      /* K =  1 */
(PID.TID 0000.0001)                -1.000000000000000E+01,      /* K =  2 */
(PID.TID 0000.0001)                -2.000000000000000E+01,      /* K =  3 */
(PID.TID 0000.0001)                -3.000000000000000E+01,      /* K =  4 */
(PID.TID 0000.0001)                -4.000000000000000E+01,      /* K =  5 */
(PID.TID 0000.0001)                -5.000000000000000E+01,      /* K =  6 */
(PID.TID 0000.0001)                -6.000000000000000E+01,      /* K =  7 */
(PID.TID 0000.0001)                -7.000000000000000E+01,      /* K =  8 */
(PID.TID 0000.0001)                -8.001000000000001E+01,      /* K =  9 */
(PID.TID 0000.0001)                -9.004000000000001E+01,      /* K = 10 */
(PID.TID 0000.0001)                -1.001500000000000E+02,      /* K = 11 */
(PID.TID 0000.0001)                -1.104700000000000E+02,      /* K = 12 */
(PID.TID 0000.0001)                -1.212700000000000E+02,      /* K = 13 */
(PID.TID 0000.0001)                -1.330300000000000E+02,      /* K = 14 */
(PID.TID 0000.0001)                -1.464500000000000E+02,      /* K = 15 */
(PID.TID 0000.0001)                -1.624900000000000E+02,      /* K = 16 */
(PID.TID 0000.0001)                -1.823100000000000E+02,      /* K = 17 */
(PID.TID 0000.0001)                -2.071600000000000E+02,      /* K = 18 */
(PID.TID 0000.0001)                -2.382600000000000E+02,      /* K = 19 */
(PID.TID 0000.0001)                -2.766799999999999E+02,      /* K = 20 */
(PID.TID 0000.0001)                -3.231799999999999E+02,      /* K = 21 */
(PID.TID 0000.0001)                -3.781799999999999E+02,      /* K = 22 */
(PID.TID 0000.0001)                -4.416799999999999E+02,      /* K = 23 */
(PID.TID 0000.0001)                -5.132600000000000E+02,      /* K = 24 */
(PID.TID 0000.0001)                -5.921600000000000E+02,      /* K = 25 */
(PID.TID 0000.0001)                -6.773099999999999E+02,      /* K = 26 */
(PID.TID 0000.0001)                -7.674900000000000E+02,      /* K = 27 */
(PID.TID 0000.0001)                -8.614500000000000E+02,      /* K = 28 */
(PID.TID 0000.0001)                -9.580300000000001E+02,      /* K = 29 */
(PID.TID 0000.0001)                -1.056280000000000E+03,      /* K = 30 */
(PID.TID 0000.0001)                -1.155530000000000E+03,      /* K = 31 */
(PID.TID 0000.0001)                -1.255540000000000E+03,      /* K = 32 */
(PID.TID 0000.0001)                -1.356870000000000E+03,      /* K = 33 */
(PID.TID 0000.0001)                -1.461430000000000E+03,      /* K = 34 */
(PID.TID 0000.0001)                -1.572760000000000E+03,      /* K = 35 */
(PID.TID 0000.0001)                -1.695590000000000E+03,      /* K = 36 */
(PID.TID 0000.0001)                -1.834680000000000E+03,      /* K = 37 */
(PID.TID 0000.0001)                -1.993620000000000E+03,      /* K = 38 */
(PID.TID 0000.0001)                -2.174450000000000E+03,      /* K = 39 */
(PID.TID 0000.0001)                -2.378000000000000E+03,      /* K = 40 */
(PID.TID 0000.0001)                -2.604500000000000E+03,      /* K = 41 */
(PID.TID 0000.0001)                -2.854000000000000E+03,      /* K = 42 */
(PID.TID 0000.0001)                -3.126500000000000E+03,      /* K = 43 */
(PID.TID 0000.0001)                -3.422000000000000E+03,      /* K = 44 */
(PID.TID 0000.0001)                -3.740500000000000E+03,      /* K = 45 */
(PID.TID 0000.0001)                -4.082000000000000E+03,      /* K = 46 */
(PID.TID 0000.0001)                -4.446500000000000E+03,      /* K = 47 */
(PID.TID 0000.0001)                -4.834000000000000E+03,      /* K = 48 */
(PID.TID 0000.0001)                -5.244500000000000E+03,      /* K = 49 */
(PID.TID 0000.0001)                -5.678000000000000E+03,      /* K = 50 */
(PID.TID 0000.0001)                -6.134500000000000E+03       /* K = 51 */
(PID.TID 0000.0001)     ;
(PID.TID 0000.0001) deepFacC = /* deep-model grid factor @ cell-Center (-) */
(PID.TID 0000.0001)    50 @  1.000000000000000E+00              /* K =  1: 50 */
(PID.TID 0000.0001)     ;
(PID.TID 0000.0001) deepFacF = /* deep-model grid factor @ W-Interface (-) */
(PID.TID 0000.0001)    51 @  1.000000000000000E+00              /* K =  1: 51 */
(PID.TID 0000.0001)     ;
(PID.TID 0000.0001) rVel2wUnit = /* convert units: rVel -> wSpeed (=1 if z-coord)*/
(PID.TID 0000.0001)    51 @  1.000000000000000E+00              /* K =  1: 51 */
(PID.TID 0000.0001)     ;
(PID.TID 0000.0001) wUnit2rVel = /* convert units: wSpeed -> rVel (=1 if z-coord)*/
(PID.TID 0000.0001)    51 @  1.000000000000000E+00              /* K =  1: 51 */
(PID.TID 0000.0001)     ;
(PID.TID 0000.0001) dBdrRef = /* Vertical grad. of reference buoyancy [(m/s/r)^2] */
(PID.TID 0000.0001)     3 @  0.000000000000000E+00,             /* K =  1:  3 */
(PID.TID 0000.0001)                 2.706065538651213E-04,      /* K =  4 */
(PID.TID 0000.0001)     2 @  0.000000000000000E+00,             /* K =  5:  6 */
(PID.TID 0000.0001)                 2.632794562663490E-04,      /* K =  7 */
(PID.TID 0000.0001)                 2.554318021231947E-04,      /* K =  8 */
(PID.TID 0000.0001)                 0.000000000000000E+00,      /* K =  9 */
(PID.TID 0000.0001)                 2.461524232360561E-04,      /* K = 10 */
(PID.TID 0000.0001)                 2.348694431245364E-04,      /* K = 11 */
(PID.TID 0000.0001)                 0.000000000000000E+00,      /* K = 12 */
(PID.TID 0000.0001)                 2.056847859884566E-04,      /* K = 13 */
(PID.TID 0000.0001)                 1.777764506003336E-04,      /* K = 14 */
(PID.TID 0000.0001)                 0.000000000000000E+00,      /* K = 15 */
(PID.TID 0000.0001)                 1.203533867077665E-04,      /* K = 16 */
(PID.TID 0000.0001)                 9.288540355629585E-05,      /* K = 17 */
(PID.TID 0000.0001)                 7.115862770365155E-05,      /* K = 18 */
(PID.TID 0000.0001)                 5.484365820533800E-05,      /* K = 19 */
(PID.TID 0000.0001)                 4.290935507113214E-05,      /* K = 20 */
(PID.TID 0000.0001)                 6.658747741703880E-05,      /* K = 21 */
(PID.TID 0000.0001)                 0.000000000000000E+00,      /* K = 22 */
(PID.TID 0000.0001)                 2.323718420342036E-05,      /* K = 23 */
(PID.TID 0000.0001)                 1.974682037962757E-05,      /* K = 24 */
(PID.TID 0000.0001)                 1.709468932536602E-05,      /* K = 25 */
(PID.TID 0000.0001)                 0.000000000000000E+00,      /* K = 26 */
(PID.TID 0000.0001)                 1.455436545977052E-05,      /* K = 27 */
(PID.TID 0000.0001)                 0.000000000000000E+00,      /* K = 28 */
(PID.TID 0000.0001)                 1.315287111980149E-05,      /* K = 29 */
(PID.TID 0000.0001)     2 @  0.000000000000000E+00,             /* K = 30: 31 */
(PID.TID 0000.0001)                 1.240968507885233E-05,      /* K = 32 */
(PID.TID 0000.0001)     2 @  0.000000000000000E+00,             /* K = 33: 34 */
(PID.TID 0000.0001)                 1.045141607964570E-05,      /* K = 35 */
(PID.TID 0000.0001)     3 @  0.000000000000000E+00,             /* K = 36: 38 */
(PID.TID 0000.0001)                 6.628797113709505E-06,      /* K = 39 */
(PID.TID 0000.0001)    11 @  0.000000000000000E+00              /* K = 40: 50 */
(PID.TID 0000.0001)     ;
(PID.TID 0000.0001) rotateGrid = /* use rotated grid ( True/False ) */
(PID.TID 0000.0001)                   F
(PID.TID 0000.0001)     ;
(PID.TID 0000.0001) phiEuler = /* Euler angle, rotation about original z-coordinate [rad] */
(PID.TID 0000.0001)                 0.000000000000000E+00
(PID.TID 0000.0001)     ;
(PID.TID 0000.0001) thetaEuler = /* Euler angle, rotation about new x-coordinate [rad] */
(PID.TID 0000.0001)                 0.000000000000000E+00
(PID.TID 0000.0001)     ;
(PID.TID 0000.0001) psiEuler = /* Euler angle, rotation about new z-coordinate [rad] */
(PID.TID 0000.0001)                 0.000000000000000E+00
(PID.TID 0000.0001)     ;
(PID.TID 0000.0001) dxF =  /* dxF(:,1,:,1) ( units: m ) */
(PID.TID 0000.0001)                 2.071152825743187E+04,      /* I =  1 */
(PID.TID 0000.0001)                 2.070365142756831E+04,      /* I =  2 */
(PID.TID 0000.0001)                 2.069635296570141E+04,      /* I =  3 */
(PID.TID 0000.0001)                 2.068965358413176E+04,      /* I =  4 */
(PID.TID 0000.0001)                 2.068357195583360E+04,      /* I =  5 */
(PID.TID 0000.0001)                 2.067812475356784E+04,      /* I =  6 */
(PID.TID 0000.0001)                 2.067332670125947E+04,      /* I =  7 */
(PID.TID 0000.0001)                 2.066919060389092E+04,      /* I =  8 */
(PID.TID 0000.0001)                 2.066572738985245E+04,      /* I =  9 */
(PID.TID 0000.0001)                 2.066294615597989E+04,      /* I = 10 */
(PID.TID 0000.0001)                 2.066085425372315E+04,      /* I = 11 */
(PID.TID 0000.0001)                 2.065945771525925E+04,      /* I = 12 */
(PID.TID 0000.0001)                 2.065874381268158E+04,      /* I = 13 */
(PID.TID 0000.0001)                 2.065874381268158E+04,      /* I = 14 */
(PID.TID 0000.0001)                 2.065945771525925E+04,      /* I = 15 */
(PID.TID 0000.0001)                 2.066085425372316E+04,      /* I = 16 */
(PID.TID 0000.0001)                 2.066294615597989E+04,      /* I = 17 */
(PID.TID 0000.0001)                 2.066572738985245E+04,      /* I = 18 */
(PID.TID 0000.0001)                 2.066919060389088E+04,      /* I = 19 */
(PID.TID 0000.0001)                 2.067332670125956E+04,      /* I = 20 */
(PID.TID 0000.0001)                 2.067812475356780E+04,      /* I = 21 */
(PID.TID 0000.0001)                 2.068357195583360E+04,      /* I = 22 */
(PID.TID 0000.0001)                 2.068965358413182E+04,      /* I = 23 */
(PID.TID 0000.0001)                 2.069635296570133E+04,      /* I = 24 */
(PID.TID 0000.0001)                 2.070365142756836E+04,      /* I = 25 */
(PID.TID 0000.0001)                 2.071152825743182E+04,      /* I = 26 */
(PID.TID 0000.0001)                 2.071996065138743E+04,      /* I = 27 */
(PID.TID 0000.0001)                 2.072892365863983E+04,      /* I = 28 */
(PID.TID 0000.0001)                 2.073839012765668E+04,      /* I = 29 */
(PID.TID 0000.0001)                 2.074833063718403E+04       /* I = 30 */
(PID.TID 0000.0001)     ;
(PID.TID 0000.0001) dxF =  /* dxF(1,:,1,:) ( units: m ) */
(PID.TID 0000.0001)                 2.071152825743187E+04,      /* J =  1 */
(PID.TID 0000.0001)                 2.109117491456033E+04,      /* J =  2 */
(PID.TID 0000.0001)                 2.148525648961724E+04,      /* J =  3 */
(PID.TID 0000.0001)                 2.189377348588603E+04,      /* J =  4 */
(PID.TID 0000.0001)                 2.231672440915243E+04,      /* J =  5 */
(PID.TID 0000.0001)                 2.275410689480659E+04,      /* J =  6 */
(PID.TID 0000.0001)                 2.320591873318126E+04,      /* J =  7 */
(PID.TID 0000.0001)                 2.367215879054831E+04,      /* J =  8 */
(PID.TID 0000.0001)                 2.415282782538908E+04,      /* J =  9 */
(PID.TID 0000.0001)                 2.464792920101809E+04,      /* J = 10 */
(PID.TID 0000.0001)                 2.515746949702995E+04,      /* J = 11 */
(PID.TID 0000.0001)                 2.568145902315334E+04,      /* J = 12 */
(PID.TID 0000.0001)                 2.621991223981432E+04,      /* J = 13 */
(PID.TID 0000.0001)                 2.677284809033052E+04,      /* J = 14 */
(PID.TID 0000.0001)                 2.734029025013979E+04,      /* J = 15 */
(PID.TID 0000.0001)                 2.792226729855568E+04,      /* J = 16 */
(PID.TID 0000.0001)                 2.851881281852892E+04,      /* J = 17 */
(PID.TID 0000.0001)                 2.912996543046302E+04,      /* J = 18 */
(PID.TID 0000.0001)                 2.975576876502299E+04,      /* J = 19 */
(PID.TID 0000.0001)                 3.039627138062681E+04,      /* J = 20 */
(PID.TID 0000.0001)                 3.105152663065675E+04,      /* J = 21 */
(PID.TID 0000.0001)                 3.172159248542454E+04,      /* J = 22 */
(PID.TID 0000.0001)                 3.240653131349731E+04,      /* J = 23 */
(PID.TID 0000.0001)                 3.310640962675057E+04,      /* J = 24 */
(PID.TID 0000.0001)                 3.382129779388320E+04,      /* J = 25 */
(PID.TID 0000.0001)                 3.455126972555294E+04,      /* J = 26 */
(PID.TID 0000.0001)                 3.529640253603521E+04,      /* J = 27 */
(PID.TID 0000.0001)                 3.605677618612848E+04,      /* J = 28 */
(PID.TID 0000.0001)                 3.683247311866502E+04,      /* J = 29 */
(PID.TID 0000.0001)                 3.762357793548112E+04       /* J = 30 */
(PID.TID 0000.0001)     ;
(PID.TID 0000.0001) dyF =  /* dyF(:,1,:,1) ( units: m ) */
(PID.TID 0000.0001)                 3.700742300337598E+04,      /* I =  1 */
(PID.TID 0000.0001)                 3.707905556394973E+04,      /* I =  2 */
(PID.TID 0000.0001)                 3.714471828319018E+04,      /* I =  3 */
(PID.TID 0000.0001)                 3.720441078960103E+04,      /* I =  4 */
(PID.TID 0000.0001)                 3.725813297080282E+04,      /* I =  5 */
(PID.TID 0000.0001)                 3.730588490725751E+04,      /* I =  6 */
(PID.TID 0000.0001)                 3.734766681359038E+04,      /* I =  7 */
(PID.TID 0000.0001)                 3.738347898712025E+04,      /* I =  8 */
(PID.TID 0000.0001)                 3.741332176340629E+04,      /* I =  9 */
(PID.TID 0000.0001)                 3.743719547859261E+04,      /* I = 10 */
(PID.TID 0000.0001)                 3.745510043824806E+04,      /* I = 11 */
(PID.TID 0000.0001)                 3.746703689267323E+04,      /* I = 12 */
(PID.TID 0000.0001)     2 @  3.747300501832417E+04,             /* I = 13: 14 */
(PID.TID 0000.0001)                 3.746703689267323E+04,      /* I = 15 */
(PID.TID 0000.0001)                 3.745510043824806E+04,      /* I = 16 */
(PID.TID 0000.0001)                 3.743719547859261E+04,      /* I = 17 */
(PID.TID 0000.0001)                 3.741332176340628E+04,      /* I = 18 */
(PID.TID 0000.0001)                 3.738347898712024E+04,      /* I = 19 */
(PID.TID 0000.0001)                 3.734766681359040E+04,      /* I = 20 */
(PID.TID 0000.0001)                 3.730588490725750E+04,      /* I = 21 */
(PID.TID 0000.0001)                 3.725813297080281E+04,      /* I = 22 */
(PID.TID 0000.0001)                 3.720441078960103E+04,      /* I = 23 */
(PID.TID 0000.0001)                 3.714471828319017E+04,      /* I = 24 */
(PID.TID 0000.0001)                 3.707905556394973E+04,      /* I = 25 */
(PID.TID 0000.0001)                 3.700742300337599E+04,      /* I = 26 */
(PID.TID 0000.0001)                 3.692982130617692E+04,      /* I = 27 */
(PID.TID 0000.0001)                 3.684625159269555E+04,      /* I = 28 */
(PID.TID 0000.0001)                 3.675671548992459E+04,      /* I = 29 */
(PID.TID 0000.0001)                 3.666121523181524E+04       /* I = 30 */
(PID.TID 0000.0001)     ;
(PID.TID 0000.0001) dyF =  /* dyF(1,:,1,:) ( units: m ) */
(PID.TID 0000.0001)                 3.700742300337598E+04,      /* J =  1 */
(PID.TID 0000.0001)                 3.745555642044499E+04,      /* J =  2 */
(PID.TID 0000.0001)                 3.790206217653974E+04,      /* J =  3 */
(PID.TID 0000.0001)                 3.834684105117956E+04,      /* J =  4 */
(PID.TID 0000.0001)                 3.878979459357282E+04,      /* J =  5 */
(PID.TID 0000.0001)                 3.923082521328924E+04,      /* J =  6 */
(PID.TID 0000.0001)                 3.966983623246408E+04,      /* J =  7 */
(PID.TID 0000.0001)                 4.010673190475840E+04,      /* J =  8 */
(PID.TID 0000.0001)                 4.054141740950450E+04,      /* J =  9 */
(PID.TID 0000.0001)                 4.097379882434454E+04,      /* J = 10 */
(PID.TID 0000.0001)                 4.140378308084428E+04,      /* J = 11 */
(PID.TID 0000.0001)                 4.183127790875583E+04,      /* J = 12 */
(PID.TID 0000.0001)                 4.225619177206317E+04,      /* J = 13 */
(PID.TID 0000.0001)                 4.267843379867976E+04,      /* J = 14 */
(PID.TID 0000.0001)                 4.309791371221616E+04,      /* J = 15 */
(PID.TID 0000.0001)                 4.351454176087940E+04,      /* J = 16 */
(PID.TID 0000.0001)                 4.392822864881465E+04,      /* J = 17 */
(PID.TID 0000.0001)                 4.433888547805120E+04,      /* J = 18 */
(PID.TID 0000.0001)                 4.474642369096899E+04,      /* J = 19 */
(PID.TID 0000.0001)                 4.515075502217317E+04,      /* J = 20 */
(PID.TID 0000.0001)                 4.555179145554101E+04,      /* J = 21 */
(PID.TID 0000.0001)                 4.594944520275577E+04,      /* J = 22 */
(PID.TID 0000.0001)                 4.634362867401398E+04,      /* J = 23 */
(PID.TID 0000.0001)                 4.673425447947427E+04,      /* J = 24 */
(PID.TID 0000.0001)                 4.712123544873745E+04,      /* J = 25 */
(PID.TID 0000.0001)                 4.750448467975499E+04,      /* J = 26 */
(PID.TID 0000.0001)                 4.788391567392174E+04,      /* J = 27 */
(PID.TID 0000.0001)                 4.825944271092693E+04,      /* J = 28 */
(PID.TID 0000.0001)                 4.863098220111143E+04,      /* J = 29 */
(PID.TID 0000.0001)                 4.899845499569884E+04       /* J = 30 */
(PID.TID 0000.0001)     ;
(PID.TID 0000.0001) dxG =  /* dxG(:,1,:,1) ( units: m ) */
(PID.TID 0000.0001)                 2.052711702021451E+04,      /* I =  1 */
(PID.TID 0000.0001)                 2.051953983526162E+04,      /* I =  2 */
(PID.TID 0000.0001)                 2.051251425926268E+04,      /* I =  3 */
(PID.TID 0000.0001)                 2.050606148013825E+04,      /* I =  4 */
(PID.TID 0000.0001)                 2.050020059906299E+04,      /* I =  5 */
(PID.TID 0000.0001)                 2.049494867086169E+04,      /* I =  6 */
(PID.TID 0000.0001)                 2.049032075633103E+04,      /* I =  7 */
(PID.TID 0000.0001)                 2.048632995314923E+04,      /* I =  8 */
(PID.TID 0000.0001)                 2.048298743895549E+04,      /* I =  9 */
(PID.TID 0000.0001)                 2.048030251694177E+04,      /* I = 10 */
(PID.TID 0000.0001)                 2.047828270203973E+04,      /* I = 11 */
(PID.TID 0000.0001)                 2.047693414389448E+04,      /* I = 12 */
(PID.TID 0000.0001)     2 @  2.047624433858785E+04,             /* I = 13: 14 */
(PID.TID 0000.0001)                 2.047693414389443E+04,      /* I = 15 */
(PID.TID 0000.0001)                 2.047828270203978E+04,      /* I = 16 */
(PID.TID 0000.0001)                 2.048030251694177E+04,      /* I = 17 */
(PID.TID 0000.0001)                 2.048298743895548E+04,      /* I = 18 */
(PID.TID 0000.0001)                 2.048632995314927E+04,      /* I = 19 */
(PID.TID 0000.0001)                 2.049032075633093E+04,      /* I = 20 */
(PID.TID 0000.0001)                 2.049494867086174E+04,      /* I = 21 */
(PID.TID 0000.0001)                 2.050020059906297E+04,      /* I = 22 */
(PID.TID 0000.0001)                 2.050606148013830E+04,      /* I = 23 */
(PID.TID 0000.0001)                 2.051251425926268E+04,      /* I = 24 */
(PID.TID 0000.0001)                 2.051953983526163E+04,      /* I = 25 */
(PID.TID 0000.0001)                 2.052711702021443E+04,      /* I = 26 */
(PID.TID 0000.0001)                 2.053522248594683E+04,      /* I = 27 */
(PID.TID 0000.0001)                 2.054383070727552E+04,      /* I = 28 */
(PID.TID 0000.0001)                 2.055291390664790E+04,      /* I = 29 */
(PID.TID 0000.0001)                 2.056244198352907E+04       /* I = 30 */
(PID.TID 0000.0001)     ;
(PID.TID 0000.0001) dxG =  /* dxG(1,:,1,:) ( units: m ) */
(PID.TID 0000.0001)                 2.052711702021451E+04,      /* J =  1 */
(PID.TID 0000.0001)                 2.089954736357391E+04,      /* J =  2 */
(PID.TID 0000.0001)                 2.128641124518697E+04,      /* J =  3 */
(PID.TID 0000.0001)                 2.168771062037700E+04,      /* J =  4 */
(PID.TID 0000.0001)                 2.210344484655194E+04,      /* J =  5 */
(PID.TID 0000.0001)                 2.253361185972884E+04,      /* J =  6 */
(PID.TID 0000.0001)                 2.297820925105574E+04,      /* J =  7 */
(PID.TID 0000.0001)                 2.343723524028478E+04,      /* J =  8 */
(PID.TID 0000.0001)                 2.391068954427550E+04,      /* J =  9 */
(PID.TID 0000.0001)                 2.439857414125275E+04,      /* J = 10 */
(PID.TID 0000.0001)                 2.490089393241153E+04,      /* J = 11 */
(PID.TID 0000.0001)                 2.541765730414359E+04,      /* J = 12 */
(PID.TID 0000.0001)                 2.594887659459613E+04,      /* J = 13 */
(PID.TID 0000.0001)                 2.649456846940333E+04,      /* J = 14 */
(PID.TID 0000.0001)                 2.705475421181358E+04,      /* J = 15 */
(PID.TID 0000.0001)                 2.762945993231310E+04,      /* J = 16 */
(PID.TID 0000.0001)                 2.821871670385097E+04,      /* J = 17 */
(PID.TID 0000.0001)                 2.882256062780631E+04,      /* J = 18 */
(PID.TID 0000.0001)                 2.944103283669238E+04,      /* J = 19 */
(PID.TID 0000.0001)                 3.007417943861200E+04,      /* J = 20 */
(PID.TID 0000.0001)                 3.072205140902393E+04,      /* J = 21 */
(PID.TID 0000.0001)                 3.138470443467240E+04,      /* J = 22 */
(PID.TID 0000.0001)                 3.206219871470027E+04,      /* J = 23 */
(PID.TID 0000.0001)                 3.275459872326910E+04,      /* J = 24 */
(PID.TID 0000.0001)                 3.346197293831744E+04,      /* J = 25 */
(PID.TID 0000.0001)                 3.418439354048331E+04,      /* J = 26 */
(PID.TID 0000.0001)                 3.492193608585089E+04,      /* J = 27 */
(PID.TID 0000.0001)                 3.567467915738818E+04,      /* J = 28 */
(PID.TID 0000.0001)                 3.644270400216877E+04,      /* J = 29 */
(PID.TID 0000.0001)                 3.722609417427087E+04       /* J = 30 */
(PID.TID 0000.0001)     ;
(PID.TID 0000.0001) dyG =  /* dyG(:,1,:,1) ( units: m ) */
(PID.TID 0000.0001)                 3.696936823759973E+04,      /* I =  1 */
(PID.TID 0000.0001)                 3.704398547852144E+04,      /* I =  2 */
(PID.TID 0000.0001)                 3.711263318385338E+04,      /* I =  3 */
(PID.TID 0000.0001)                 3.717531082528212E+04,      /* I =  4 */
(PID.TID 0000.0001)                 3.723201816961422E+04,      /* I =  5 */
(PID.TID 0000.0001)                 3.728275520872145E+04,      /* I =  6 */
(PID.TID 0000.0001)                 3.732752209699158E+04,      /* I =  7 */
(PID.TID 0000.0001)                 3.736631909640826E+04,      /* I =  8 */
(PID.TID 0000.0001)                 3.739914652852553E+04,      /* I =  9 */
(PID.TID 0000.0001)                 3.742600473350589E+04,      /* I = 10 */
(PID.TID 0000.0001)                 3.744689403567852E+04,      /* I = 11 */
(PID.TID 0000.0001)                 3.746181471567877E+04,      /* I = 12 */
(PID.TID 0000.0001)                 3.747076698884368E+04,      /* I = 13 */
(PID.TID 0000.0001)                 3.747376174977726E+04,      /* I = 14 */
(PID.TID 0000.0001)                 3.747076698884368E+04,      /* I = 15 */
(PID.TID 0000.0001)                 3.746181471567877E+04,      /* I = 16 */
(PID.TID 0000.0001)                 3.744689403567852E+04,      /* I = 17 */
(PID.TID 0000.0001)                 3.742600473350589E+04,      /* I = 18 */
(PID.TID 0000.0001)                 3.739914652852552E+04,      /* I = 19 */
(PID.TID 0000.0001)                 3.736631909640826E+04,      /* I = 20 */
(PID.TID 0000.0001)                 3.732752209699157E+04,      /* I = 21 */
(PID.TID 0000.0001)                 3.728275520872146E+04,      /* I = 22 */
(PID.TID 0000.0001)                 3.723201816961422E+04,      /* I = 23 */
(PID.TID 0000.0001)                 3.717531082528211E+04,      /* I = 24 */
(PID.TID 0000.0001)                 3.711263318385338E+04,      /* I = 25 */
(PID.TID 0000.0001)                 3.704398547852145E+04,      /* I = 26 */
(PID.TID 0000.0001)                 3.696936823759972E+04,      /* I = 27 */
(PID.TID 0000.0001)                 3.688878236278851E+04,      /* I = 28 */
(PID.TID 0000.0001)                 3.680222921581766E+04,      /* I = 29 */
(PID.TID 0000.0001)                 3.670971071402137E+04       /* I = 30 */
(PID.TID 0000.0001)     ;
(PID.TID 0000.0001) dyG =  /* dyG(1,:,1,:) ( units: m ) */
(PID.TID 0000.0001)                 3.696936823759973E+04,      /* J =  1 */
(PID.TID 0000.0001)                 3.741746190559281E+04,      /* J =  2 */
(PID.TID 0000.0001)                 3.786390067184393E+04,      /* J =  3 */
(PID.TID 0000.0001)                 3.830858172733455E+04,      /* J =  4 */
(PID.TID 0000.0001)                 3.875140319955796E+04,      /* J =  5 */
(PID.TID 0000.0001)                 3.919226424948571E+04,      /* J =  6 */
(PID.TID 0000.0001)                 3.963106512715793E+04,      /* J =  7 */
(PID.TID 0000.0001)                 4.006770719102380E+04,      /* J =  8 */
(PID.TID 0000.0001)                 4.050209290047463E+04,      /* J =  9 */
(PID.TID 0000.0001)                 4.093412578484027E+04,      /* J = 10 */
(PID.TID 0000.0001)                 4.136371039407872E+04,      /* J = 11 */
(PID.TID 0000.0001)                 4.179075223673176E+04,      /* J = 12 */
(PID.TID 0000.0001)                 4.221515770920290E+04,      /* J = 13 */
(PID.TID 0000.0001)                 4.263683401805614E+04,      /* J = 14 */
(PID.TID 0000.0001)                 4.305568910412182E+04,      /* J = 15 */
(PID.TID 0000.0001)                 4.347163156363047E+04,      /* J = 16 */
(PID.TID 0000.0001)                 4.388457057225752E+04,      /* J = 17 */
(PID.TID 0000.0001)                 4.429441581934092E+04,      /* J = 18 */
(PID.TID 0000.0001)                 4.470107744374240E+04,      /* J = 19 */
(PID.TID 0000.0001)                 4.510446597891348E+04,      /* J = 20 */
(PID.TID 0000.0001)                 4.550449230395439E+04,      /* J = 21 */
(PID.TID 0000.0001)                 4.590106761654920E+04,      /* J = 22 */
(PID.TID 0000.0001)                 4.629410339849156E+04,      /* J = 23 */
(PID.TID 0000.0001)                 4.668351141269982E+04,      /* J = 24 */
(PID.TID 0000.0001)                 4.706920371856177E+04,      /* J = 25 */
(PID.TID 0000.0001)                 4.745109271730031E+04,      /* J = 26 */
(PID.TID 0000.0001)                 4.782909128417812E+04,      /* J = 27 */
(PID.TID 0000.0001)                 4.820311314005602E+04,      /* J = 28 */
(PID.TID 0000.0001)                 4.857307420014453E+04,      /* J = 29 */
(PID.TID 0000.0001)                 4.893889490827491E+04       /* J = 30 */
(PID.TID 0000.0001)     ;
(PID.TID 0000.0001) dxC =  /* dxC(:,1,:,1) ( units: m ) */
(PID.TID 0000.0001)                 2.071567651695695E+04,      /* I =  1 */
(PID.TID 0000.0001)                 2.070751892245589E+04,      /* I =  2 */
(PID.TID 0000.0001)                 2.069992855779408E+04,      /* I =  3 */
(PID.TID 0000.0001)                 2.069292717562287E+04,      /* I =  4 */
(PID.TID 0000.0001)                 2.068653446229046E+04,      /* I =  5 */
(PID.TID 0000.0001)                 2.068076808552306E+04,      /* I =  6 */
(PID.TID 0000.0001)                 2.067564373903614E+04,      /* I =  7 */
(PID.TID 0000.0001)                 2.067117518190149E+04,      /* I =  8 */
(PID.TID 0000.0001)                 2.066737427558298E+04,      /* I =  9 */
(PID.TID 0000.0001)                 2.066425102685107E+04,      /* I = 10 */
(PID.TID 0000.0001)                 2.066181364132844E+04,      /* I = 11 */
(PID.TID 0000.0001)                 2.066006869803818E+04,      /* I = 12 */
(PID.TID 0000.0001)                 2.065902266229015E+04,      /* I = 13 */
(PID.TID 0000.0001)                 2.065863826775786E+04,      /* I = 14 */
(PID.TID 0000.0001)                 2.065902266229016E+04,      /* I = 15 */
(PID.TID 0000.0001)                 2.066006869803813E+04,      /* I = 16 */
(PID.TID 0000.0001)                 2.066181364132850E+04,      /* I = 17 */
(PID.TID 0000.0001)                 2.066425102685108E+04,      /* I = 18 */
(PID.TID 0000.0001)                 2.066737427558298E+04,      /* I = 19 */
(PID.TID 0000.0001)                 2.067117518190149E+04,      /* I = 20 */
(PID.TID 0000.0001)                 2.067564373903615E+04,      /* I = 21 */
(PID.TID 0000.0001)                 2.068076808552304E+04,      /* I = 22 */
(PID.TID 0000.0001)                 2.068653446229045E+04,      /* I = 23 */
(PID.TID 0000.0001)                 2.069292717562287E+04,      /* I = 24 */
(PID.TID 0000.0001)                 2.069992855779413E+04,      /* I = 25 */
(PID.TID 0000.0001)                 2.070751892245584E+04,      /* I = 26 */
(PID.TID 0000.0001)                 2.071567651695691E+04,      /* I = 27 */
(PID.TID 0000.0001)                 2.072437747324421E+04,      /* I = 28 */
(PID.TID 0000.0001)                 2.073359574551806E+04,      /* I = 29 */
(PID.TID 0000.0001)                 2.074330305575613E+04       /* I = 30 */
(PID.TID 0000.0001)     ;
(PID.TID 0000.0001) dxC =  /* dxC(1,:,1,:) ( units: m ) */
(PID.TID 0000.0001)                 2.071567651695695E+04,      /* J =  1 */
(PID.TID 0000.0001)                 2.109563672137949E+04,      /* J =  2 */
(PID.TID 0000.0001)                 2.149002149497106E+04,      /* J =  3 */
(PID.TID 0000.0001)                 2.189882927482529E+04,      /* J =  4 */
(PID.TID 0000.0001)                 2.232205646389843E+04,      /* J =  5 */
(PID.TID 0000.0001)                 2.275969855854128E+04,      /* J =  6 */
(PID.TID 0000.0001)                 2.321175117362029E+04,      /* J =  7 */
(PID.TID 0000.0001)                 2.367821096276529E+04,      /* J =  8 */
(PID.TID 0000.0001)                 2.415907643347346E+04,      /* J =  9 */
(PID.TID 0000.0001)                 2.465434865814045E+04,      /* J = 10 */
(PID.TID 0000.0001)                 2.516403188365780E+04,      /* J = 11 */
(PID.TID 0000.0001)                 2.568813404310613E+04,      /* J = 12 */
(PID.TID 0000.0001)                 2.622666717399572E+04,      /* J = 13 */
(PID.TID 0000.0001)                 2.677964774799169E+04,      /* J = 14 */
(PID.TID 0000.0001)                 2.734709691757753E+04,      /* J = 15 */
(PID.TID 0000.0001)                 2.792904068517491E+04,      /* J = 16 */
(PID.TID 0000.0001)                 2.852551000032625E+04,      /* J = 17 */
(PID.TID 0000.0001)                 2.913654079081990E+04,      /* J = 18 */
(PID.TID 0000.0001)                 2.976217393306023E+04,      /* J = 19 */
(PID.TID 0000.0001)                 3.040245516699173E+04,      /* J = 20 */
(PID.TID 0000.0001)                 3.105743496108396E+04,      /* J = 21 */
(PID.TID 0000.0001)                 3.172716833208323E+04,      /* J = 22 */
(PID.TID 0000.0001)                 3.241171462422546E+04,      /* J = 23 */
(PID.TID 0000.0001)                 3.311113725244482E+04,      /* J = 24 */
(PID.TID 0000.0001)                 3.382550341391024E+04,      /* J = 25 */
(PID.TID 0000.0001)                 3.455488377140061E+04,      /* J = 26 */
(PID.TID 0000.0001)                 3.529935211332738E+04,      /* J = 27 */
(PID.TID 0000.0001)                 3.605898499520765E+04,      /* J = 28 */
(PID.TID 0000.0001)                 3.683386137397906E+04,      /* J = 29 */
(PID.TID 0000.0001)                 3.762406228407349E+04       /* J = 30 */
(PID.TID 0000.0001)     ;
(PID.TID 0000.0001) dyC =  /* dyC(:,1,:,1) ( units: m ) */
(PID.TID 0000.0001)                 3.678277710845771E+04,      /* I =  1 */
(PID.TID 0000.0001)                 3.685438685866048E+04,      /* I =  2 */
(PID.TID 0000.0001)                 3.692002588020908E+04,      /* I =  3 */
(PID.TID 0000.0001)                 3.697969453541307E+04,      /* I =  4 */
(PID.TID 0000.0001)                 3.703339337607873E+04,      /* I =  5 */
(PID.TID 0000.0001)                 3.708112307814123E+04,      /* I =  6 */
(PID.TID 0000.0001)                 3.712288438364359E+04,      /* I =  7 */
(PID.TID 0000.0001)                 3.715867804995441E+04,      /* I =  8 */
(PID.TID 0000.0001)                 3.718850480589901E+04,      /* I =  9 */
(PID.TID 0000.0001)                 3.721236531452968E+04,      /* I = 10 */
(PID.TID 0000.0001)                 3.723026014246432E+04,      /* I = 11 */
(PID.TID 0000.0001)                 3.724218973548726E+04,      /* I = 12 */
(PID.TID 0000.0001)     2 @  3.724815440020872E+04,             /* I = 13: 14 */
(PID.TID 0000.0001)                 3.724218973548726E+04,      /* I = 15 */
(PID.TID 0000.0001)                 3.723026014246432E+04,      /* I = 16 */
(PID.TID 0000.0001)                 3.721236531452968E+04,      /* I = 17 */
(PID.TID 0000.0001)                 3.718850480589901E+04,      /* I = 18 */
(PID.TID 0000.0001)                 3.715867804995440E+04,      /* I = 19 */
(PID.TID 0000.0001)                 3.712288438364359E+04,      /* I = 20 */
(PID.TID 0000.0001)                 3.708112307814122E+04,      /* I = 21 */
(PID.TID 0000.0001)                 3.703339337607873E+04,      /* I = 22 */
(PID.TID 0000.0001)                 3.697969453541307E+04,      /* I = 23 */
(PID.TID 0000.0001)                 3.692002588020908E+04,      /* I = 24 */
(PID.TID 0000.0001)                 3.685438685866047E+04,      /* I = 25 */
(PID.TID 0000.0001)                 3.678277710845772E+04,      /* I = 26 */
(PID.TID 0000.0001)                 3.670519653011381E+04,      /* I = 27 */
(PID.TID 0000.0001)                 3.662164536844059E+04,      /* I = 28 */
(PID.TID 0000.0001)                 3.653212430257830E+04,      /* I = 29 */
(PID.TID 0000.0001)                 3.643663454523116E+04       /* I = 30 */
(PID.TID 0000.0001)     ;
(PID.TID 0000.0001) dyC =  /* dyC(1,:,1,:) ( units: m ) */
(PID.TID 0000.0001)                 3.678277710845771E+04,      /* J =  1 */
(PID.TID 0000.0001)                 3.723168694115569E+04,      /* J =  2 */
(PID.TID 0000.0001)                 3.767901897410101E+04,      /* J =  3 */
(PID.TID 0000.0001)                 3.812467364657602E+04,      /* J =  4 */
(PID.TID 0000.0001)                 3.856855210935249E+04,      /* J =  5 */
(PID.TID 0000.0001)                 3.901055633269680E+04,      /* J =  6 */
(PID.TID 0000.0001)                 3.945058917911859E+04,      /* J =  7 */
(PID.TID 0000.0001)                 3.988855443472220E+04,      /* J =  8 */
(PID.TID 0000.0001)                 4.032435681898361E+04,      /* J =  9 */
(PID.TID 0000.0001)                 4.075790196435841E+04,      /* J = 10 */
(PID.TID 0000.0001)                 4.118909638222960E+04,      /* J = 11 */
(PID.TID 0000.0001)                 4.161784741043697E+04,      /* J = 12 */
(PID.TID 0000.0001)                 4.204406315499045E+04,      /* J = 13 */
(PID.TID 0000.0001)                 4.246765242091182E+04,      /* J = 14 */
(PID.TID 0000.0001)                 4.288852464034393E+04,      /* J = 15 */
(PID.TID 0000.0001)                 4.330658981118225E+04,      /* J = 16 */
(PID.TID 0000.0001)                 4.372175841431943E+04,      /* J = 17 */
(PID.TID 0000.0001)                 4.413394136293020E+04,      /* J = 18 */
(PID.TID 0000.0001)                 4.454304993440304E+04,      /* J = 19 */
(PID.TID 0000.0001)                 4.494899572325061E+04,      /* J = 20 */
(PID.TID 0000.0001)                 4.535169059286820E+04,      /* J = 21 */
(PID.TID 0000.0001)                 4.575104664412256E+04,      /* J = 22 */
(PID.TID 0000.0001)                 4.614697618947234E+04,      /* J = 23 */
(PID.TID 0000.0001)                 4.653939173844085E+04,      /* J = 24 */
(PID.TID 0000.0001)                 4.692820600744408E+04,      /* J = 25 */
(PID.TID 0000.0001)                 4.731333194957835E+04,      /* J = 26 */
(PID.TID 0000.0001)                 4.769468283927006E+04,      /* J = 27 */
(PID.TID 0000.0001)                 4.807217249390641E+04,      /* J = 28 */
(PID.TID 0000.0001)                 4.844571593362943E+04,      /* J = 29 */
(PID.TID 0000.0001)                 4.881523285497380E+04       /* J = 30 */
(PID.TID 0000.0001)     ;
(PID.TID 0000.0001) dxV =  /* dxV(:,1,:,1) ( units: m ) */
(PID.TID 0000.0001)                 2.053110526075532E+04,      /* I =  1 */
(PID.TID 0000.0001)                 2.052326088418283E+04,      /* I =  2 */
(PID.TID 0000.0001)                 2.051595672244828E+04,      /* I =  3 */
(PID.TID 0000.0001)                 2.050921502797681E+04,      /* I =  4 */
(PID.TID 0000.0001)                 2.050305593886370E+04,      /* I =  5 */
(PID.TID 0000.0001)                 2.049749752783181E+04,      /* I =  6 */
(PID.TID 0000.0001)                 2.049255584793284E+04,      /* I =  7 */
(PID.TID 0000.0001)                 2.048824497292525E+04,      /* I =  8 */
(PID.TID 0000.0001)                 2.048457703515834E+04,      /* I =  9 */
(PID.TID 0000.0001)                 2.048156226915133E+04,      /* I = 10 */
(PID.TID 0000.0001)                 2.047920906551970E+04,      /* I = 11 */
(PID.TID 0000.0001)                 2.047752414469434E+04,      /* I = 12 */
(PID.TID 0000.0001)                 2.047651405696554E+04,      /* I = 13 */
(PID.TID 0000.0001)                 2.047614194664622E+04,      /* I = 14 */
(PID.TID 0000.0001)                 2.047651405696559E+04,      /* I = 15 */
(PID.TID 0000.0001)                 2.047752414469430E+04,      /* I = 16 */
(PID.TID 0000.0001)                 2.047920906551971E+04,      /* I = 17 */
(PID.TID 0000.0001)                 2.048156226915138E+04,      /* I = 18 */
(PID.TID 0000.0001)                 2.048457703515829E+04,      /* I = 19 */
(PID.TID 0000.0001)                 2.048824497292535E+04,      /* I = 20 */
(PID.TID 0000.0001)                 2.049255584793274E+04,      /* I = 21 */
(PID.TID 0000.0001)                 2.049749752783187E+04,      /* I = 22 */
(PID.TID 0000.0001)                 2.050305593886373E+04,      /* I = 23 */
(PID.TID 0000.0001)                 2.050921502797675E+04,      /* I = 24 */
(PID.TID 0000.0001)                 2.051595672244826E+04,      /* I = 25 */
(PID.TID 0000.0001)                 2.052326088418290E+04,      /* I = 26 */
(PID.TID 0000.0001)                 2.053110526075532E+04,      /* I = 27 */
(PID.TID 0000.0001)                 2.053946543494557E+04,      /* I = 28 */
(PID.TID 0000.0001)                 2.054831476098181E+04,      /* I = 29 */
(PID.TID 0000.0001)                 2.055762430839241E+04       /* I = 30 */
(PID.TID 0000.0001)     ;
(PID.TID 0000.0001) dxV =  /* dxV(1,:,1,:) ( units: m ) */
(PID.TID 0000.0001)                 2.053110526075532E+04,      /* J =  1 */
(PID.TID 0000.0001)                 2.090385356266093E+04,      /* J =  2 */
(PID.TID 0000.0001)                 2.129102607314009E+04,      /* J =  3 */
(PID.TID 0000.0001)                 2.169262269996662E+04,      /* J =  4 */
(PID.TID 0000.0001)                 2.210864071595607E+04,      /* J =  5 */
(PID.TID 0000.0001)                 2.253907593617405E+04,      /* J =  6 */
(PID.TID 0000.0001)                 2.298392379458377E+04,      /* J =  7 */
(PID.TID 0000.0001)                 2.344318031700113E+04,      /* J =  8 */
(PID.TID 0000.0001)                 2.391684298864163E+04,      /* J =  9 */
(PID.TID 0000.0001)                 2.440491151699962E+04,      /* J = 10 */
(PID.TID 0000.0001)                 2.490738849171163E+04,      /* J = 11 */
(PID.TID 0000.0001)                 2.542427994477456E+04,      /* J = 12 */
(PID.TID 0000.0001)                 2.595559581485789E+04,      /* J = 13 */
(PID.TID 0000.0001)                 2.650135032062733E+04,      /* J = 14 */
(PID.TID 0000.0001)                 2.706156224833991E+04,      /* J = 15 */
(PID.TID 0000.0001)                 2.763625515890197E+04,      /* J = 16 */
(PID.TID 0000.0001)                 2.822545752042790E+04,      /* J = 17 */
(PID.TID 0000.0001)                 2.882920277162976E+04,      /* J = 18 */
(PID.TID 0000.0001)                 2.944752932187136E+04,      /* J = 19 */
(PID.TID 0000.0001)                 3.008048049319959E+04,      /* J = 20 */
(PID.TID 0000.0001)                 3.072810440966728E+04,      /* J = 21 */
(PID.TID 0000.0001)                 3.139045383903842E+04,      /* J = 22 */
(PID.TID 0000.0001)                 3.206758599174654E+04,      /* J = 23 */
(PID.TID 0000.0001)                 3.275956228156967E+04,      /* J = 24 */
(PID.TID 0000.0001)                 3.346644805244220E+04,      /* J = 25 */
(PID.TID 0000.0001)                 3.418831227550044E+04,      /* J = 26 */
(PID.TID 0000.0001)                 3.492522722017510E+04,      /* J = 27 */
(PID.TID 0000.0001)                 3.567726810399632E+04,      /* J = 28 */
(PID.TID 0000.0001)                 3.644451272859776E+04,      /* J = 29 */
(PID.TID 0000.0001)                 3.722704112152557E+04       /* J = 30 */
(PID.TID 0000.0001)     ;
(PID.TID 0000.0001) dyU =  /* dyU(:,1,:,1) ( units: m ) */
(PID.TID 0000.0001)                 3.674473316658630E+04,      /* I =  1 */
(PID.TID 0000.0001)                 3.681932833792822E+04,      /* I =  2 */
(PID.TID 0000.0001)                 3.688795269313092E+04,      /* I =  3 */
(PID.TID 0000.0001)                 3.695060647275718E+04,      /* I =  4 */
(PID.TID 0000.0001)                 3.700729014250917E+04,      /* I =  5 */
(PID.TID 0000.0001)                 3.705800432398131E+04,      /* I =  6 */
(PID.TID 0000.0001)                 3.710274973294064E+04,      /* I =  7 */
(PID.TID 0000.0001)                 3.714152712500728E+04,      /* I =  8 */
(PID.TID 0000.0001)                 3.717433724834998E+04,      /* I =  9 */
(PID.TID 0000.0001)                 3.720118080314009E+04,      /* I = 10 */
(PID.TID 0000.0001)                 3.722205840764935E+04,      /* I = 11 */
(PID.TID 0000.0001)                 3.723697057073888E+04,      /* I = 12 */
(PID.TID 0000.0001)                 3.724591767054543E+04,      /* I = 13 */
(PID.TID 0000.0001)                 3.724891083990022E+04,      /* I = 14 */
(PID.TID 0000.0001)                 3.724591767054542E+04,      /* I = 15 */
(PID.TID 0000.0001)                 3.723697057073889E+04,      /* I = 16 */
(PID.TID 0000.0001)                 3.722205840764935E+04,      /* I = 17 */
(PID.TID 0000.0001)                 3.720118080314008E+04,      /* I = 18 */
(PID.TID 0000.0001)                 3.717433724834998E+04,      /* I = 19 */
(PID.TID 0000.0001)                 3.714152712500728E+04,      /* I = 20 */
(PID.TID 0000.0001)                 3.710274973294063E+04,      /* I = 21 */
(PID.TID 0000.0001)                 3.705800432398131E+04,      /* I = 22 */
(PID.TID 0000.0001)                 3.700729014250917E+04,      /* I = 23 */
(PID.TID 0000.0001)                 3.695060647275716E+04,      /* I = 24 */
(PID.TID 0000.0001)                 3.688795269313094E+04,      /* I = 25 */
(PID.TID 0000.0001)                 3.681932833792821E+04,      /* I = 26 */
(PID.TID 0000.0001)                 3.674473316658630E+04,      /* I = 27 */
(PID.TID 0000.0001)                 3.666416724104654E+04,      /* I = 28 */
(PID.TID 0000.0001)                 3.657763101146962E+04,      /* I = 29 */
(PID.TID 0000.0001)                 3.648512541079492E+04       /* I = 30 */
(PID.TID 0000.0001)     ;
(PID.TID 0000.0001) dyU =  /* dyU(1,:,1,:) ( units: m ) */
(PID.TID 0000.0001)                 3.674473316658630E+04,      /* J =  1 */
(PID.TID 0000.0001)                 3.719361547538896E+04,      /* J =  2 */
(PID.TID 0000.0001)                 3.764089459751266E+04,      /* J =  3 */
(PID.TID 0000.0001)                 3.808646730382765E+04,      /* J =  4 */
(PID.TID 0000.0001)                 3.853023123895088E+04,      /* J =  5 */
(PID.TID 0000.0001)                 3.897208503739593E+04,      /* J =  6 */
(PID.TID 0000.0001)                 3.941192840112046E+04,      /* J =  7 */
(PID.TID 0000.0001)                 3.984966213263487E+04,      /* J =  8 */
(PID.TID 0000.0001)                 4.028518814419441E+04,      /* J =  9 */
(PID.TID 0000.0001)                 4.071840943468107E+04,      /* J = 10 */
(PID.TID 0000.0001)                 4.114923005120406E+04,      /* J = 11 */
(PID.TID 0000.0001)                 4.157755503103340E+04,      /* J = 12 */
(PID.TID 0000.0001)                 4.200329033666767E+04,      /* J = 13 */
(PID.TID 0000.0001)                 4.242634277960793E+04,      /* J = 14 */
(PID.TID 0000.0001)                 4.284661994092684E+04,      /* J = 15 */
(PID.TID 0000.0001)                 4.326403010205203E+04,      /* J = 16 */
(PID.TID 0000.0001)                 4.367848215462093E+04,      /* J = 17 */
(PID.TID 0000.0001)                 4.408988554208750E+04,      /* J = 18 */
(PID.TID 0000.0001)                 4.449815018464295E+04,      /* J = 19 */
(PID.TID 0000.0001)                 4.490318642518511E+04,      /* J = 20 */
(PID.TID 0000.0001)                 4.530490497491705E+04,      /* J = 21 */
(PID.TID 0000.0001)                 4.570321687598708E+04,      /* J = 22 */
(PID.TID 0000.0001)                 4.609803347024994E+04,      /* J = 23 */
(PID.TID 0000.0001)                 4.648926637992392E+04,      /* J = 24 */
(PID.TID 0000.0001)                 4.687682751321772E+04,      /* J = 25 */
(PID.TID 0000.0001)                 4.726062909013533E+04,      /* J = 26 */
(PID.TID 0000.0001)                 4.764058372401170E+04,      /* J = 27 */
(PID.TID 0000.0001)                 4.801660464021451E+04,      /* J = 28 */
(PID.TID 0000.0001)                 4.838860633247659E+04,      /* J = 29 */
(PID.TID 0000.0001)                 4.875650803021456E+04       /* J = 30 */
(PID.TID 0000.0001)     ;
(PID.TID 0000.0001) rA  =  /* rA (:,1,:,1) ( units: m^2 ) */
(PID.TID 0000.0001)                 7.665113621396177E+08,      /* I =  1 */
(PID.TID 0000.0001)                 7.677029697239892E+08,      /* I =  2 */
(PID.TID 0000.0001)                 7.687913877455838E+08,      /* I =  3 */
(PID.TID 0000.0001)                 7.697775979751738E+08,      /* I =  4 */
(PID.TID 0000.0001)                 7.706625466485583E+08,      /* I =  5 */
(PID.TID 0000.0001)                 7.714470546020026E+08,      /* I =  6 */
(PID.TID 0000.0001)                 7.721318586456149E+08,      /* I =  7 */
(PID.TID 0000.0001)                 7.727176271684608E+08,      /* I =  8 */
(PID.TID 0000.0001)                 7.732049082776864E+08,      /* I =  9 */
(PID.TID 0000.0001)                 7.735941717305043E+08,      /* I = 10 */
(PID.TID 0000.0001)                 7.738858051500469E+08,      /* I = 11 */
(PID.TID 0000.0001)                 7.740801100790358E+08,      /* I = 12 */
(PID.TID 0000.0001)                 7.741766386182301E+08,      /* I = 13 */
(PID.TID 0000.0001)                 7.741766369784317E+08,      /* I = 14 */
(PID.TID 0000.0001)                 7.740801094843833E+08,      /* I = 15 */
(PID.TID 0000.0001)                 7.738858062852919E+08,      /* I = 16 */
(PID.TID 0000.0001)                 7.735941726495122E+08,      /* I = 17 */
(PID.TID 0000.0001)                 7.732049061873938E+08,      /* I = 18 */
(PID.TID 0000.0001)                 7.727176277450933E+08,      /* I = 19 */
(PID.TID 0000.0001)                 7.721318658895597E+08,      /* I = 20 */
(PID.TID 0000.0001)                 7.714470531424019E+08,      /* I = 21 */
(PID.TID 0000.0001)                 7.706625470810328E+08,      /* I = 22 */
(PID.TID 0000.0001)                 7.697776024260553E+08,      /* I = 23 */
(PID.TID 0000.0001)                 7.687913844659867E+08,      /* I = 24 */
(PID.TID 0000.0001)                 7.677029712196296E+08,      /* I = 25 */
(PID.TID 0000.0001)                 7.665113646083255E+08,      /* I = 26 */
(PID.TID 0000.0001)                 7.652154604170089E+08,      /* I = 27 */
(PID.TID 0000.0001)                 7.638140926048064E+08,      /* I = 28 */
(PID.TID 0000.0001)                 7.623059927966076E+08,      /* I = 29 */
(PID.TID 0000.0001)                 7.606898330980235E+08       /* I = 30 */
(PID.TID 0000.0001)     ;
(PID.TID 0000.0001) rA  =  /* rA (1,:,1,:) ( units: m^2 ) */
(PID.TID 0000.0001)                 7.665113621396177E+08,      /* J =  1 */
(PID.TID 0000.0001)                 7.900134359449342E+08,      /* J =  2 */
(PID.TID 0000.0001)                 8.143679155417176E+08,      /* J =  3 */
(PID.TID 0000.0001)                 8.395900636155584E+08,      /* J =  4 */
(PID.TID 0000.0001)                 8.656947784023314E+08,      /* J =  5 */
(PID.TID 0000.0001)                 8.926966010402582E+08,      /* J =  6 */
(PID.TID 0000.0001)                 9.206097737377057E+08,      /* J =  7 */
(PID.TID 0000.0001)                 9.494482582794807E+08,      /* J =  8 */
(PID.TID 0000.0001)                 9.792257431806778E+08,      /* J =  9 */
(PID.TID 0000.0001)                 1.009955679131553E+09,      /* J = 10 */
(PID.TID 0000.0001)                 1.041651296044221E+09,      /* J = 11 */
(PID.TID 0000.0001)                 1.074325614369065E+09,      /* J = 12 */
(PID.TID 0000.0001)                 1.107991467925779E+09,      /* J = 13 */
(PID.TID 0000.0001)                 1.142661498173082E+09,      /* J = 14 */
(PID.TID 0000.0001)                 1.178348167164929E+09,      /* J = 15 */
(PID.TID 0000.0001)                 1.215063762235644E+09,      /* J = 16 */
(PID.TID 0000.0001)                 1.252820414073754E+09,      /* J = 17 */
(PID.TID 0000.0001)                 1.291630043617734E+09,      /* J = 18 */
(PID.TID 0000.0001)                 1.331504416619858E+09,      /* J = 19 */
(PID.TID 0000.0001)                 1.372455096362339E+09,      /* J = 20 */
(PID.TID 0000.0001)                 1.414493440828222E+09,      /* J = 21 */
(PID.TID 0000.0001)                 1.457630613639386E+09,      /* J = 22 */
(PID.TID 0000.0001)                 1.501877517761831E+09,      /* J = 23 */
(PID.TID 0000.0001)                 1.547244834049951E+09,      /* J = 24 */
(PID.TID 0000.0001)                 1.593742963439136E+09,      /* J = 25 */
(PID.TID 0000.0001)                 1.641382020566774E+09,      /* J = 26 */
(PID.TID 0000.0001)                 1.690171807481416E+09,      /* J = 27 */
(PID.TID 0000.0001)                 1.740121820832662E+09,      /* J = 28 */
(PID.TID 0000.0001)                 1.791241246411172E+09,      /* J = 29 */
(PID.TID 0000.0001)                 1.843539059771026E+09       /* J = 30 */
(PID.TID 0000.0001)     ;
(PID.TID 0000.0001) rAw =  /* rAw(:,1,:,1) ( units: m^2 ) */
(PID.TID 0000.0001)                 7.658765213139513E+08,      /* I =  1 */
(PID.TID 0000.0001)                 7.671201328724998E+08,      /* I =  2 */
(PID.TID 0000.0001)                 7.682600121490355E+08,      /* I =  3 */
(PID.TID 0000.0001)                 7.692972101823016E+08,      /* I =  4 */
(PID.TID 0000.0001)                 7.702326756407654E+08,      /* I =  5 */
(PID.TID 0000.0001)                 7.710673044850856E+08,      /* I =  6 */
(PID.TID 0000.0001)                 7.718018764844863E+08,      /* I =  7 */
(PID.TID 0000.0001)                 7.724370884091616E+08,      /* I =  8 */
(PID.TID 0000.0001)                 7.729735468223690E+08,      /* I =  9 */
(PID.TID 0000.0001)                 7.734117650170708E+08,      /* I = 10 */
(PID.TID 0000.0001)                 7.737521718456172E+08,      /* I = 11 */
(PID.TID 0000.0001)                 7.739951054308500E+08,      /* I = 12 */
(PID.TID 0000.0001)                 7.741408739107244E+08,      /* I = 13 */
(PID.TID 0000.0001)                 7.741880730050739E+08,      /* I = 14 */
(PID.TID 0000.0001)                 7.741408710636016E+08,      /* I = 15 */
(PID.TID 0000.0001)                 7.739951071427275E+08,      /* I = 16 */
(PID.TID 0000.0001)                 7.737521718095777E+08,      /* I = 17 */
(PID.TID 0000.0001)                 7.734117675938969E+08,      /* I = 18 */
(PID.TID 0000.0001)                 7.729735457051437E+08,      /* I = 19 */
(PID.TID 0000.0001)                 7.724370889497546E+08,      /* I = 20 */
(PID.TID 0000.0001)                 7.718018793856685E+08,      /* I = 21 */
(PID.TID 0000.0001)                 7.710673053320146E+08,      /* I = 22 */
(PID.TID 0000.0001)                 7.702326816053071E+08,      /* I = 23 */
(PID.TID 0000.0001)                 7.692972065242898E+08,      /* I = 24 */
(PID.TID 0000.0001)                 7.682600115363635E+08,      /* I = 25 */
(PID.TID 0000.0001)                 7.671201363863536E+08,      /* I = 26 */
(PID.TID 0000.0001)                 7.658765213499908E+08,      /* I = 27 */
(PID.TID 0000.0001)                 7.645280345158333E+08,      /* I = 28 */
(PID.TID 0000.0001)                 7.630734673343852E+08,      /* I = 29 */
(PID.TID 0000.0001)                 7.615115062009304E+08       /* I = 30 */
(PID.TID 0000.0001)     ;
(PID.TID 0000.0001) rAw =  /* rAw(1,:,1,:) ( units: m^2 ) */
(PID.TID 0000.0001)                 7.658765213139513E+08,      /* J =  1 */
(PID.TID 0000.0001)                 7.893768970448780E+08,      /* J =  2 */
(PID.TID 0000.0001)                 8.137283914516071E+08,      /* J =  3 */
(PID.TID 0000.0001)                 8.389460603348250E+08,      /* J =  4 */
(PID.TID 0000.0001)                 8.650445848102766E+08,      /* J =  5 */
(PID.TID 0000.0001)                 8.920382782103341E+08,      /* J =  6 */
(PID.TID 0000.0001)                 9.199411445401106E+08,      /* J =  7 */
(PID.TID 0000.0001)                 9.487668893433769E+08,      /* J =  8 */
(PID.TID 0000.0001)                 9.785289545527842E+08,      /* J =  9 */
(PID.TID 0000.0001)                 1.009240515336406E+09,      /* J = 10 */
(PID.TID 0000.0001)                 1.040914522930714E+09,      /* J = 11 */
(PID.TID 0000.0001)                 1.073563715488477E+09,      /* J = 12 */
(PID.TID 0000.0001)                 1.107200612276400E+09,      /* J = 13 */
(PID.TID 0000.0001)                 1.141837554111466E+09,      /* J = 14 */
(PID.TID 0000.0001)                 1.177486672294872E+09,      /* J = 15 */
(PID.TID 0000.0001)                 1.214159933192917E+09,      /* J = 16 */
(PID.TID 0000.0001)                 1.251869095602249E+09,      /* J = 17 */
(PID.TID 0000.0001)                 1.290625742284441E+09,      /* J = 18 */
(PID.TID 0000.0001)                 1.330441258846839E+09,      /* J = 19 */
(PID.TID 0000.0001)                 1.371326820624166E+09,      /* J = 20 */
(PID.TID 0000.0001)                 1.413293399742275E+09,      /* J = 21 */
(PID.TID 0000.0001)                 1.456351737475827E+09,      /* J = 22 */
(PID.TID 0000.0001)                 1.500512320083793E+09,      /* J = 23 */
(PID.TID 0000.0001)                 1.545785394792978E+09,      /* J = 24 */
(PID.TID 0000.0001)                 1.592180902277974E+09,      /* J = 25 */
(PID.TID 0000.0001)                 1.639708504465653E+09,      /* J = 26 */
(PID.TID 0000.0001)                 1.688377519501836E+09,      /* J = 27 */
(PID.TID 0000.0001)                 1.738196956421325E+09,      /* J = 28 */
(PID.TID 0000.0001)                 1.789175499722981E+09,      /* J = 29 */
(PID.TID 0000.0001)                 1.841321602441802E+09       /* J = 30 */
(PID.TID 0000.0001)     ;
(PID.TID 0000.0001) rAs =  /* rAs(:,1,:,1) ( units: m^2 ) */
(PID.TID 0000.0001)                 7.550751050606852E+08,      /* I =  1 */
(PID.TID 0000.0001)                 7.562658447772087E+08,      /* I =  2 */
(PID.TID 0000.0001)                 7.573533970032284E+08,      /* I =  3 */
(PID.TID 0000.0001)                 7.583387692957978E+08,      /* I =  4 */
(PID.TID 0000.0001)                 7.592229121974397E+08,      /* I =  5 */
(PID.TID 0000.0001)                 7.600066705467438E+08,      /* I =  6 */
(PID.TID 0000.0001)                 7.606907923080522E+08,      /* I =  7 */
(PID.TID 0000.0001)                 7.612759532224941E+08,      /* I =  8 */
(PID.TID 0000.0001)                 7.617627129118443E+08,      /* I =  9 */
(PID.TID 0000.0001)                 7.621515550445726E+08,      /* I = 10 */
(PID.TID 0000.0001)                 7.624428588466020E+08,      /* I = 11 */
(PID.TID 0000.0001)                 7.626369483673384E+08,      /* I = 12 */
(PID.TID 0000.0001)                 7.627333738515058E+08,      /* I = 13 */
(PID.TID 0000.0001)                 7.627333728604188E+08,      /* I = 14 */
(PID.TID 0000.0001)                 7.626369508901051E+08,      /* I = 15 */
(PID.TID 0000.0001)                 7.624428655319341E+08,      /* I = 16 */
(PID.TID 0000.0001)                 7.621515526659639E+08,      /* I = 17 */
(PID.TID 0000.0001)                 7.617627197953936E+08,      /* I = 18 */
(PID.TID 0000.0001)                 7.612759510961621E+08,      /* I = 19 */
(PID.TID 0000.0001)                 7.606907969030919E+08,      /* I = 20 */
(PID.TID 0000.0001)                 7.600066694295187E+08,      /* I = 21 */
(PID.TID 0000.0001)                 7.592229103594238E+08,      /* I = 22 */
(PID.TID 0000.0001)                 7.583387684488690E+08,      /* I = 23 */
(PID.TID 0000.0001)                 7.573533915792797E+08,      /* I = 24 */
(PID.TID 0000.0001)                 7.562658465071062E+08,      /* I = 25 */
(PID.TID 0000.0001)                 7.550751079979067E+08,      /* I = 26 */
(PID.TID 0000.0001)                 7.537800585200102E+08,      /* I = 27 */
(PID.TID 0000.0001)                 7.523795064624999E+08,      /* I = 28 */
(PID.TID 0000.0001)                 7.508721675027735E+08,      /* I = 29 */
(PID.TID 0000.0001)                 7.492566800675046E+08       /* I = 30 */
(PID.TID 0000.0001)     ;
(PID.TID 0000.0001) rAs =  /* rAs(1,:,1,:) ( units: m^2 ) */
(PID.TID 0000.0001)                 7.550751050606852E+08,      /* J =  1 */
(PID.TID 0000.0001)                 7.781568160584769E+08,      /* J =  2 */
(PID.TID 0000.0001)                 8.020831616625657E+08,      /* J =  3 */
(PID.TID 0000.0001)                 8.268695937660589E+08,      /* J =  4 */
(PID.TID 0000.0001)                 8.525311818286231E+08,      /* J =  5 */
(PID.TID 0000.0001)                 8.790826547724357E+08,      /* J =  6 */
(PID.TID 0000.0001)                 9.065383887828039E+08,      /* J =  7 */
(PID.TID 0000.0001)                 9.349124897125442E+08,      /* J =  8 */
(PID.TID 0000.0001)                 9.642187819277472E+08,      /* J =  9 */
(PID.TID 0000.0001)                 9.944708240750725E+08,      /* J = 10 */
(PID.TID 0000.0001)                 1.025681954725808E+09,      /* J = 11 */
(PID.TID 0000.0001)                 1.057865313008499E+09,      /* J = 12 */
(PID.TID 0000.0001)                 1.091033805921100E+09,      /* J = 13 */
(PID.TID 0000.0001)                 1.125200178247652E+09,      /* J = 14 */
(PID.TID 0000.0001)                 1.160376979600140E+09,      /* J = 15 */
(PID.TID 0000.0001)                 1.196576586510721E+09,      /* J = 16 */
(PID.TID 0000.0001)                 1.233811208089928E+09,      /* J = 17 */
(PID.TID 0000.0001)                 1.272092866313053E+09,      /* J = 18 */
(PID.TID 0000.0001)                 1.311433405822894E+09,      /* J = 19 */
(PID.TID 0000.0001)                 1.351844507714875E+09,      /* J = 20 */
(PID.TID 0000.0001)                 1.393337606051485E+09,      /* J = 21 */
(PID.TID 0000.0001)                 1.435923987908001E+09,      /* J = 22 */
(PID.TID 0000.0001)                 1.479614675036705E+09,      /* J = 23 */
(PID.TID 0000.0001)                 1.524420466465598E+09,      /* J = 24 */
(PID.TID 0000.0001)                 1.570351910729954E+09,      /* J = 25 */
(PID.TID 0000.0001)                 1.617419255741331E+09,      /* J = 26 */
(PID.TID 0000.0001)                 1.665632470339211E+09,      /* J = 27 */
(PID.TID 0000.0001)                 1.715001205152071E+09,      /* J = 28 */
(PID.TID 0000.0001)                 1.765534790867491E+09,      /* J = 29 */
(PID.TID 0000.0001)                 1.817242347954489E+09       /* J = 30 */
(PID.TID 0000.0001)     ;
(PID.TID 0000.0001) globalArea = /* Integrated horizontal Area (m^2) */
(PID.TID 0000.0001)                 3.580138611494435E+14
(PID.TID 0000.0001)     ;
(PID.TID 0000.0001) hasWetCSCorners = /* Domain contains CS corners (True/False) */
(PID.TID 0000.0001)                   F
(PID.TID 0000.0001)     ;
(PID.TID 0000.0001) // =======================================================
(PID.TID 0000.0001) // End of Model config. summary
(PID.TID 0000.0001) // =======================================================
(PID.TID 0000.0001) 
(PID.TID 0000.0001) == Packages configuration : Check & print summary ==
(PID.TID 0000.0001) 
(PID.TID 0000.0001) GGL90_CHECK: #define ALLOW_GGL90
(PID.TID 0000.0001) GGL90_CHECK: Some form of convection has been enabled
(PID.TID 0000.0001) GMREDI_CHECK: #define GMREDI
(PID.TID 0000.0001) GM_AdvForm =     /* if FALSE => use SkewFlux Form */
(PID.TID 0000.0001)                   T
(PID.TID 0000.0001)     ;
(PID.TID 0000.0001) GM_InMomAsStress = /* if TRUE => apply as Eddy Stress */
(PID.TID 0000.0001)                   F
(PID.TID 0000.0001)     ;
(PID.TID 0000.0001) GM_AdvSeparate = /* Calc Bolus & Euler Adv. separately */
(PID.TID 0000.0001)                   F
(PID.TID 0000.0001)     ;
(PID.TID 0000.0001) GM_ExtraDiag =   /* Tensor Extra Diag (line 1&2) non 0 */
(PID.TID 0000.0001)                   T
(PID.TID 0000.0001)     ;
(PID.TID 0000.0001) GM_isopycK =    /* Background Isopyc. Diffusivity [m^2/s] */
(PID.TID 0000.0001)                 1.000000000000000E+03
(PID.TID 0000.0001)     ;
(PID.TID 0000.0001) GM_skewflx*K =  /* Background GM_SkewFlx Diffusivity [m^2/s] */
(PID.TID 0000.0001)                 0.000000000000000E+00
(PID.TID 0000.0001)     ;
(PID.TID 0000.0001) GM_advec*K =    /* Backg. GM-Advec(=Bolus) Diffusivity [m^2/s]*/
(PID.TID 0000.0001)                 1.000000000000000E+03
(PID.TID 0000.0001)     ;
(PID.TID 0000.0001) GM_Kmin_horiz = /* Minimum Horizontal Diffusivity [m^2/s] */
(PID.TID 0000.0001)                 1.000000000000000E+02
(PID.TID 0000.0001)     ;
(PID.TID 0000.0001) GM_Visbeck_alpha = /* Visbeck alpha coeff. [-] */
(PID.TID 0000.0001)                 0.000000000000000E+00
(PID.TID 0000.0001)     ;
(PID.TID 0000.0001) GM_Small_Number =  /* epsilon used in slope calc */
(PID.TID 0000.0001)                 9.999999999999999E-21
(PID.TID 0000.0001)     ;
(PID.TID 0000.0001) GM_slopeSqCutoff = /* Slope^2 cut-off value */
(PID.TID 0000.0001)                 1.000000000000000E+08
(PID.TID 0000.0001)     ;
(PID.TID 0000.0001) GM_taper_scheme =  /* Type of Tapering/Clipping scheme */
(PID.TID 0000.0001)               'stableGmAdjTap                          '
(PID.TID 0000.0001)     ;
(PID.TID 0000.0001) GM_maxSlope =  /* Maximum Slope (Tapering/Clipping) */
(PID.TID 0000.0001)                 4.000000000000000E-03
(PID.TID 0000.0001)     ;
(PID.TID 0000.0001) GM_facTrL2dz = /* Minimum Trans.Layer Thick. (factor of dz) */
(PID.TID 0000.0001)                 1.000000000000000E+00
(PID.TID 0000.0001)     ;
(PID.TID 0000.0001) GM_facTrL2ML = /* Max.Trans.Layer Thick. (factor of MxL Depth)*/
(PID.TID 0000.0001)                 5.000000000000000E+00
(PID.TID 0000.0001)     ;
(PID.TID 0000.0001) GM_maxTransLay = /* Maximum Transition Layer Thickness [m] */
(PID.TID 0000.0001)                 5.000000000000000E+02
(PID.TID 0000.0001)     ;
(PID.TID 0000.0001) GM_UseBVP = /* if TRUE => use bvp a la Ferrari et al. (2010) */
(PID.TID 0000.0001)                   F
(PID.TID 0000.0001)     ;
(PID.TID 0000.0001) GM_BVP_ModeNumber = /* Vertical mode number for BVP wave speed */
(PID.TID 0000.0001)                       1
(PID.TID 0000.0001)     ;
(PID.TID 0000.0001) GM_BVP_cMin = /* Minimum wave speed for BVP [m/s] */
(PID.TID 0000.0001)                 1.000000000000000E-01
(PID.TID 0000.0001)     ;
(PID.TID 0000.0001) GM_useSubMeso = /* if TRUE => use Sub-Meso param. (B.Fox-Kemper) */
(PID.TID 0000.0001)                   F
(PID.TID 0000.0001)     ;
(PID.TID 0000.0001) subMeso_Ceff = /* efficiency coeff. of Mixed-Layer Eddies [-] */
(PID.TID 0000.0001)                 7.000000000000001E-02
(PID.TID 0000.0001)     ;
(PID.TID 0000.0001) subMeso_invTau = /* inverse of Sub-Meso mixing time-scale [/s] */
(PID.TID 0000.0001)                 2.000000000000000E-06
(PID.TID 0000.0001)     ;
(PID.TID 0000.0001) subMeso_LfMin = /* minimum length-scale "Lf" [m] */
(PID.TID 0000.0001)                 1.000000000000000E+03
(PID.TID 0000.0001)     ;
(PID.TID 0000.0001) subMeso_Lmax = /* maximum grid-scale length [m] */
(PID.TID 0000.0001)                 1.100000000000000E+05
(PID.TID 0000.0001)     ;
(PID.TID 0000.0001) SEAICE_CHECK: #define ALLOW_SEAICE
(PID.TID 0000.0001) CTRL_CHECK: #define ALLOW_CTRL
(PID.TID 0000.0001) GAD_CHECK: #define ALLOW_GENERIC_ADVDIFF
(PID.TID 0000.0001) // =======================================================
(PID.TID 0000.0001) // Check Model config. (CONFIG_CHECK):
(PID.TID 0000.0001) // CONFIG_CHECK : Normal End
(PID.TID 0000.0001) // =======================================================
(PID.TID 0000.0001) 
(PID.TID 0000.0001)  MDS_READ_META: opening file: pickup.0000000001.meta
(PID.TID 0000.0001)  nRecords = 403 ; filePrec =  64 ; fileIter =     26280
(PID.TID 0000.0001)     nDims =   2 , dims:
(PID.TID 0000.0001)    1:  90   1  90
(PID.TID 0000.0001)    2:1170   11170
(PID.TID 0000.0001)     nFlds =  11 , nFl3D =   8 , fields:
(PID.TID 0000.0001)  >Uvel    < >Vvel    < >Theta   < >Salt    < >GuNm1   < >GuNm2   < >GvNm1   < >GvNm2   < >EtaN    < >dEtaHdt < >EtaH    <
(PID.TID 0000.0001) missingVal=  1.00000000000000E+00 ; nTimRec =   1 , timeList:
(PID.TID 0000.0001)   9.460800000000E+07
(PID.TID 0000.0001) READ_MFLDS_3D_RL: read field: "Uvel    ", #   1 in fldList, rec=   1
(PID.TID 0000.0001)  MDS_READ_FIELD: opening global file: pickup.0000000001.data
(PID.TID 0000.0001) READ_MFLDS_3D_RL: read field: "Vvel    ", #   2 in fldList, rec=   2
(PID.TID 0000.0001)  MDS_READ_FIELD: opening global file: pickup.0000000001.data
(PID.TID 0000.0001) READ_MFLDS_3D_RL: read field: "Theta   ", #   3 in fldList, rec=   3
(PID.TID 0000.0001)  MDS_READ_FIELD: opening global file: pickup.0000000001.data
(PID.TID 0000.0001) READ_MFLDS_3D_RL: read field: "Salt    ", #   4 in fldList, rec=   4
(PID.TID 0000.0001)  MDS_READ_FIELD: opening global file: pickup.0000000001.data
(PID.TID 0000.0001) READ_MFLDS_3D_RL: read field: "GuNm1   ", #   5 in fldList, rec=   5
(PID.TID 0000.0001)  MDS_READ_FIELD: opening global file: pickup.0000000001.data
(PID.TID 0000.0001) READ_MFLDS_3D_RL: read field: "GvNm1   ", #   7 in fldList, rec=   7
(PID.TID 0000.0001)  MDS_READ_FIELD: opening global file: pickup.0000000001.data
(PID.TID 0000.0001) READ_MFLDS_3D_RL: read field: "EtaN    ", #   9 in fldList, rec= 401
(PID.TID 0000.0001)  MDS_READ_FIELD: opening global file: pickup.0000000001.data
(PID.TID 0000.0001) READ_MFLDS_3D_RL: read field: "dEtaHdt ", #  10 in fldList, rec= 402
(PID.TID 0000.0001)  MDS_READ_FIELD: opening global file: pickup.0000000001.data
(PID.TID 0000.0001) READ_MFLDS_3D_RL: read field: "EtaH    ", #  11 in fldList, rec= 403
(PID.TID 0000.0001)  MDS_READ_FIELD: opening global file: pickup.0000000001.data
(PID.TID 0000.0001) READ_MFLDS_CHECK: - normal end ; reset MFLDS file-name: pickup.0000000001
(PID.TID 0000.0001)  MDS_READ_FIELD: opening global file: geothermalFlux.bin
(PID.TID 0000.0001)  write diagnostics summary to file ioUnit:     36
Iter.Nb:         1 ; Time(s):  9.0000000000000E+02
------------------------------------------------------------------------
2D/3D diagnostics: Number of lists:     5
------------------------------------------------------------------------
listId=    1 ; file name: surfDiag
 nFlds, nActive,       freq     &     phase        , nLev               
   10  |   10  |      3600.000000         0.000000 |   1
 levels:   1
 diag# | name   |   ipt  |  iMate | kLev|   count |   mate.C|           
    86 |oceQnet |      1 |      0 |   1 |       0 |
    87 |oceQsw  |      2 |      0 |   1 |       0 |
    84 |oceFWflx|      3 |      0 |   1 |       0 |
    85 |oceSflux|      4 |      0 |   1 |       0 |
    80 |oceTAUX |      5 |      6 |   1 |       0 |       0 |
    81 |oceTAUY |      6 |      5 |   1 |       0 |       0 |
    26 |THETA   |      7 |      0 |  50 |       0 |
    27 |SALT    |     57 |      0 |  50 |       0 |
    30 |UVEL    |    107 |    157 |  50 |       0 |       0 |
    31 |VVEL    |    157 |    107 |  50 |       0 |       0 |
------------------------------------------------------------------------
listId=    2 ; file name: iceDiag
 nFlds, nActive,       freq     &     phase        , nLev               
    8  |    8  |      3600.000000         0.000000 |   1
 levels:   1
 diag# | name   |   ipt  |  iMate | kLev|   count |   mate.C|           
   214 |SIarea  |    207 |      0 |   1 |       0 |
   217 |SIheff  |    208 |      0 |   1 |       0 |
   219 |SIhsnow |    209 |      0 |   1 |       0 |
    83 |sIceLoad|    210 |      0 |   1 |       0 |
   223 |SIuice  |    211 |    212 |   1 |       0 |       0 |
   224 |SIvice  |    212 |    211 |   1 |       0 |       0 |
   225 |SItaux  |    213 |    214 |   1 |       0 |       0 |
   226 |SItauy  |    214 |    213 |   1 |       0 |       0 |
------------------------------------------------------------------------
listId=    3 ; file name: iceNcat
 nFlds, nActive,       freq     &     phase        , nLev               
   11  |   11  |      3600.000000         0.000000 |   5
 levels:   1   2   3   4   5
 diag# | name   |   ipt  |  iMate | kLev|   count |   mate.C|           
   285 |SIareaN |    215 |      0 |   5 |       0 |
   284 |SIheffN |    220 |      0 |   5 |       0 |
   286 |SIhsnowN|    225 |      0 |   5 |       0 |
   290 |SIqSnow |    230 |      0 |   5 |       0 |
   291 |SImeltPd|    235 |      0 |   5 |       0 |
   288 |SItIces |    240 |      0 |   5 |       0 |
   292 |SIiceAge|    245 |      0 |   5 |       0 |
   293 |SI_dArea|    250 |      0 |   5 |       0 |
   294 |SI_dHeff|    255 |      0 |   5 |       0 |
   295 |SI_dHsnw|    260 |      0 |   5 |       0 |
   298 |SI_dQSnw|    265 |      0 |   5 |       0 |
------------------------------------------------------------------------
listId=    4 ; file name: iceEnerg
 nFlds, nActive,       freq     &     phase        , nLev               
    2  |    2  |     -3600.000000         0.000000 |  20
 levels:   1   2   3   4   5   6   7   8   9  10  11  12  13  14  15  16  17  18  19  20
 diag# | name   |   ipt  |  iMate | kLev|   count |   mate.C|           
   289 |SIqIce  |    270 |      0 |  20 |       0 |
   297 |SI_dQIce|    290 |      0 |  20 |       0 |
------------------------------------------------------------------------
listId=    5 ; file name: snowEnerg
 nFlds, nActive,       freq     &     phase        , nLev               
    2  |    2  |     -3600.000000         0.000000 |   5
 levels:   1   2   3   4   5
 diag# | name   |   ipt  |  iMate | kLev|   count |   mate.C|           
   290 |SIqSnow |    310 |      0 |   5 |       0 |
   298 |SI_dQSnw|    315 |      0 |   5 |       0 |
------------------------------------------------------------------------
Global & Regional Statistics diagnostics: Number of lists:     1
------------------------------------------------------------------------
listId=   1 ; file name: iceStDiag
 nFlds, nActive,       freq     &     phase        |                    
   21  |   21  |      3600.000000         0.000000 |
 Regions:   0
 diag# | name   |   ipt  |  iMate |    Volume   |   mate-Vol. |         
   214 |SIarea  |      1 |      0 | 0.00000E+00 |
   217 |SIheff  |      2 |      0 | 0.00000E+00 |
   219 |SIhsnow |      3 |      0 | 0.00000E+00 |
    83 |sIceLoad|      4 |      0 | 0.00000E+00 |
   223 |SIuice  |      5 |      0 | 0.00000E+00 |
   224 |SIvice  |      6 |      0 | 0.00000E+00 |
   225 |SItaux  |      7 |      0 | 0.00000E+00 |
   226 |SItauy  |      8 |      0 | 0.00000E+00 |
   285 |SIareaN |      9 |      0 | 0.00000E+00 |
   284 |SIheffN |     14 |      0 | 0.00000E+00 |
   286 |SIhsnowN|     19 |      0 | 0.00000E+00 |
   290 |SIqSnow |     24 |      0 | 0.00000E+00 |
   289 |SIqIce  |     29 |      0 | 0.00000E+00 |
   291 |SImeltPd|     49 |      0 | 0.00000E+00 |
   288 |SItIces |     54 |      0 | 0.00000E+00 |
   292 |SIiceAge|     59 |      0 | 0.00000E+00 |
   293 |SI_dArea|     64 |      0 | 0.00000E+00 |
   294 |SI_dHeff|     69 |      0 | 0.00000E+00 |
   295 |SI_dHsnw|     74 |      0 | 0.00000E+00 |
   298 |SI_dQSnw|     79 |      0 | 0.00000E+00 |
   297 |SI_dQIce|     84 |      0 | 0.00000E+00 |
------------------------------------------------------------------------
(PID.TID 0000.0001)  MDS_READ_FIELD: opening global file: pickup_ggl90.0000000001.data
(PID.TID 0000.0001)  MDS_READ_META: opening file: pickup_seaice.0000000001.meta
(PID.TID 0000.0001)  nRecords =   6 ; filePrec =  64 ; fileIter =     17532
(PID.TID 0000.0001)     nDims =   2 , dims:
(PID.TID 0000.0001)    1:  90   1  90
(PID.TID 0000.0001)    2:1170   11170
(PID.TID 0000.0001)     nFlds =   6 , nFl3D =   0 , fields:
(PID.TID 0000.0001)  >siTICE  < >siAREA  < >siHEFF  < >siHSNOW < >siUICE  < >siVICE  <
(PID.TID 0000.0001) missingVal=  1.00000000000000E+00 ; nTimRec =   1 , timeList:
(PID.TID 0000.0001)   6.311520000000E+07
(PID.TID 0000.0001) READ_MFLDS_3D_RL: field: "siTICES " missing in file: pickup_seaice.0000000001
(PID.TID 0000.0001) READ_MFLDS_LEV_RL: read field: "siTICE  ", #   1 in fldList, rec=   1
(PID.TID 0000.0001)  MDS_READ_FIELD: opening global file: pickup_seaice.0000000001.data
(PID.TID 0000.0001) READ_MFLDS_3D_RL: field: "siAREAn " missing in file: pickup_seaice.0000000001
(PID.TID 0000.0001) READ_MFLDS_3D_RL: read field: "siAREA  ", #   2 in fldList, rec=   2
(PID.TID 0000.0001)  MDS_READ_FIELD: opening global file: pickup_seaice.0000000001.data
(PID.TID 0000.0001) READ_MFLDS_3D_RL: read field: "siHEFF  ", #   3 in fldList, rec=   3
(PID.TID 0000.0001)  MDS_READ_FIELD: opening global file: pickup_seaice.0000000001.data
(PID.TID 0000.0001) READ_MFLDS_3D_RL: read field: "siHSNOW ", #   4 in fldList, rec=   4
(PID.TID 0000.0001)  MDS_READ_FIELD: opening global file: pickup_seaice.0000000001.data
(PID.TID 0000.0001) READ_MFLDS_3D_RL: read field: "siUICE  ", #   5 in fldList, rec=   5
(PID.TID 0000.0001)  MDS_READ_FIELD: opening global file: pickup_seaice.0000000001.data
(PID.TID 0000.0001) READ_MFLDS_3D_RL: read field: "siVICE  ", #   6 in fldList, rec=   6
(PID.TID 0000.0001)  MDS_READ_FIELD: opening global file: pickup_seaice.0000000001.data
(PID.TID 0000.0001)  MDS_READ_FIELD: opening global file: wt_ones.data
(PID.TID 0000.0001)  MDS_READ_FIELD: opening global file: xx_kapgm.0000000012.data
(PID.TID 0000.0001)  MDS_READ_FIELD: opening global file: wt_ones.data
(PID.TID 0000.0001)  MDS_READ_FIELD: opening global file: xx_kapredi.0000000012.data
(PID.TID 0000.0001)  MDS_READ_FIELD: opening global file: wt_ones.data
(PID.TID 0000.0001)  MDS_READ_FIELD: opening global file: xx_diffkr.0000000012.data
(PID.TID 0000.0001) // =======================================================
(PID.TID 0000.0001) // Model current state
(PID.TID 0000.0001) // =======================================================
(PID.TID 0000.0001) 
(PID.TID 0000.0001) SOLVE_FOR_PRESSURE: putPmEinXvector =    F
 cg2d: Sum(rhs),rhsMax =   4.77878886618850E+01  3.21872946039948E-01
 cg2d: Sum(rhs),rhsMax =   4.75034077510528E+01  3.19380328026602E-01
 cg2d: Sum(rhs),rhsMax =   4.82589380935976E+01  3.25307195712550E-01
 Computing Diagnostic #     86  oceQnet      Counter:       3   Parms: SM      U1      
 Computing Diagnostic #     87  oceQsw       Counter:       3   Parms: SM      U1      
 Computing Diagnostic #     84  oceFWflx     Counter:       3   Parms: SM      U1      
 Computing Diagnostic #     85  oceSflux     Counter:       3   Parms: SM      U1      
 Computing Diagnostic #     80  oceTAUX      Counter:       3   Parms: UU      U1      
           Vector  Mate for  oceTAUX      Diagnostic #     81  oceTAUY  exists 
 Computing Diagnostic #     81  oceTAUY      Counter:       3   Parms: VV      U1      
           Vector  Mate for  oceTAUY      Diagnostic #     80  oceTAUX  exists 
 Computing Diagnostic #     26  THETA        Counter:       3   Parms: SMR     MR      
 Computing Diagnostic #     27  SALT         Counter:       3   Parms: SMR     MR      
 Computing Diagnostic #     30  UVEL         Counter:       3   Parms: UUR     MR      
           Vector  Mate for  UVEL         Diagnostic #     31  VVEL     exists 
 Computing Diagnostic #     31  VVEL         Counter:       3   Parms: VVR     MR      
           Vector  Mate for  VVEL         Diagnostic #     30  UVEL     exists 
 Computing Diagnostic #    214  SIarea       Counter:       3   Parms: SM      M1      
 Computing Diagnostic #    217  SIheff       Counter:       3   Parms: SM      M1      
 Computing Diagnostic #    219  SIhsnow      Counter:       3   Parms: SM      M1      
 Computing Diagnostic #     83  sIceLoad     Counter:       3   Parms: SM      U1      
 Computing Diagnostic #    223  SIuice       Counter:       3   Parms: UU      M1      
           Vector  Mate for  SIuice       Diagnostic #    224  SIvice   exists 
 Computing Diagnostic #    224  SIvice       Counter:       3   Parms: VV      M1      
           Vector  Mate for  SIvice       Diagnostic #    223  SIuice   exists 
 Computing Diagnostic #    225  SItaux       Counter:       3   Parms: UU      U1      
           Vector  Mate for  SItaux       Diagnostic #    226  SItauy   exists 
 Computing Diagnostic #    226  SItauy       Counter:       3   Parms: VV      U1      
           Vector  Mate for  SItauy       Diagnostic #    225  SItaux   exists 
 Computing Diagnostic #    285  SIareaN      Counter:       3   Parms: SM      MX      
 Computing Diagnostic #    284  SIheffN      Counter:       3   Parms: SM      MX      
 Computing Diagnostic #    286  SIhsnowN     Counter:       3   Parms: SM      MX      
 Computing Diagnostic #    290  SIqSnow      Counter:       3   Parms: SM      MX      
 Computing Diagnostic #    291  SImeltPd     Counter:       3   Parms: SM      MX      
 Computing Diagnostic #    288  SItIces      Counter:       3   Parms: SM      MX      
 Computing Diagnostic #    292  SIiceAge     Counter:       3   Parms: SM      MX      
 Computing Diagnostic #    293  SI_dArea     Counter:       3   Parms: SM      MX      
 Computing Diagnostic #    294  SI_dHeff     Counter:       3   Parms: SM      MX      
 Computing Diagnostic #    295  SI_dHsnw     Counter:       3   Parms: SM      MX      
 Computing Diagnostic #    298  SI_dQSnw     Counter:       3   Parms: SM      MX      
 Compute Stats, Diag. #    214  SIarea    vol(   0 ): 1.074E+15  Parms: SM      M1      
 Compute Stats, Diag. #    217  SIheff    vol(   0 ): 1.074E+15  Parms: SM      M1      
 Compute Stats, Diag. #    219  SIhsnow   vol(   0 ): 1.074E+15  Parms: SM      M1      
 Compute Stats, Diag. #     83  sIceLoad  vol(   0 ): 1.074E+15  Parms: SM      U1      
 Compute Stats, Diag. #    223  SIuice    vol(   0 ): 1.054E+15  Parms: UU      M1      
 Compute Stats, Diag. #    224  SIvice    vol(   0 ): 1.052E+15  Parms: VV      M1      
 Compute Stats, Diag. #    225  SItaux    vol(   0 ): 1.054E+15  Parms: UU      U1      
 Compute Stats, Diag. #    226  SItauy    vol(   0 ): 1.052E+15  Parms: VV      U1      
 Compute Stats, Diag. #    285  SIareaN   vol(   0 ): 5.370E+15  Parms: SM      MX      
 Compute Stats, Diag. #    284  SIheffN   vol(   0 ): 5.370E+15  Parms: SM      MX      
 Compute Stats, Diag. #    286  SIhsnowN  vol(   0 ): 5.370E+15  Parms: SM      MX      
 Compute Stats, Diag. #    290  SIqSnow   vol(   0 ): 5.370E+15  Parms: SM      MX      
 Compute Stats, Diag. #    289  SIqIce    vol(   0 ): 2.148E+16  Parms: SM      MX      
 Compute Stats, Diag. #    291  SImeltPd  vol(   0 ): 5.370E+15  Parms: SM      MX      
 Compute Stats, Diag. #    288  SItIces   vol(   0 ): 5.370E+15  Parms: SM      MX      
 Compute Stats, Diag. #    292  SIiceAge  vol(   0 ): 5.370E+15  Parms: SM      MX      
 Compute Stats, Diag. #    293  SI_dArea  vol(   0 ): 5.370E+15  Parms: SM      MX      
 Compute Stats, Diag. #    294  SI_dHeff  vol(   0 ): 5.370E+15  Parms: SM      MX      
 Compute Stats, Diag. #    295  SI_dHsnw  vol(   0 ): 5.370E+15  Parms: SM      MX      
 Compute Stats, Diag. #    298  SI_dQSnw  vol(   0 ): 5.370E+15  Parms: SM      MX      
 Compute Stats, Diag. #    297  SI_dQIce  vol(   0 ): 2.148E+16  Parms: SM      MX      
 cg2d: Sum(rhs),rhsMax =   4.92276845877438E+01  3.24677988721838E-01
 Computing Diagnostic #    289  SIqIce       Counter:       1   Parms: SM      MX      
 Computing Diagnostic #    297  SI_dQIce     Counter:       1   Parms: SM      MX      
 Computing Diagnostic #    290  SIqSnow      Counter:       1   Parms: SM      MX      
 Computing Diagnostic #    298  SI_dQSnw     Counter:       1   Parms: SM      MX      
 cg2d: Sum(rhs),rhsMax =   5.02544819335069E+01  3.19241031146847E-01
 cg2d: Sum(rhs),rhsMax =   5.13165187541486E+01  3.12608727776652E-01
 cg2d: Sum(rhs),rhsMax =   5.24338944219715E+01  3.09725374528028E-01
(PID.TID 0000.0001)      cg2d_init_res =   1.13844112117759E+00
(PID.TID 0000.0001)      cg2d_iters(min,last) =      -1      37
(PID.TID 0000.0001)      cg2d_last_res =   2.42891021431184E-05
(PID.TID 0000.0001) // =======================================================
(PID.TID 0000.0001) // Begin MONITOR dynamic field statistics
(PID.TID 0000.0001) // =======================================================
(PID.TID 0000.0001) %MON time_tsnumber                =                     8
(PID.TID 0000.0001) %MON time_secondsf                =   7.2000000000000E+03
(PID.TID 0000.0001) %MON dynstat_eta_max              =   1.1156239106620E+00
(PID.TID 0000.0001) %MON dynstat_eta_min              =  -4.5896023178960E+00
(PID.TID 0000.0001) %MON dynstat_eta_mean             =  -1.6586515433143E-03
(PID.TID 0000.0001) %MON dynstat_eta_sd               =   7.3557600311825E-01
(PID.TID 0000.0001) %MON dynstat_eta_del2             =   1.2085700200964E-04
(PID.TID 0000.0001) %MON dynstat_uvel_max             =   8.4815820723447E-01
(PID.TID 0000.0001) %MON dynstat_uvel_min             =  -1.0256314824426E+00
(PID.TID 0000.0001) %MON dynstat_uvel_mean            =   1.8217461795542E-03
(PID.TID 0000.0001) %MON dynstat_uvel_sd              =   2.1818438973192E-02
(PID.TID 0000.0001) %MON dynstat_uvel_del2            =   1.7243504968168E-05
(PID.TID 0000.0001) %MON dynstat_vvel_max             =   8.4203875600630E-01
(PID.TID 0000.0001) %MON dynstat_vvel_min             =  -9.4140329815675E-01
(PID.TID 0000.0001) %MON dynstat_vvel_mean            =   1.2417888726725E-03
(PID.TID 0000.0001) %MON dynstat_vvel_sd              =   2.3827565240945E-02
(PID.TID 0000.0001) %MON dynstat_vvel_del2            =   1.8553793540395E-05
(PID.TID 0000.0001) %MON dynstat_wvel_max             =   1.8556497473036E-03
(PID.TID 0000.0001) %MON dynstat_wvel_min             =  -1.4976153353732E-03
(PID.TID 0000.0001) %MON dynstat_wvel_mean            =   8.6469446925457E-08
(PID.TID 0000.0001) %MON dynstat_wvel_sd              =   3.3443034101678E-05
(PID.TID 0000.0001) %MON dynstat_wvel_del2            =   4.3071632152367E-08
(PID.TID 0000.0001) %MON dynstat_theta_max            =   3.2662249750694E+01
(PID.TID 0000.0001) %MON dynstat_theta_min            =  -2.0421176419781E+00
(PID.TID 0000.0001) %MON dynstat_theta_mean           =   3.5905906141620E+00
(PID.TID 0000.0001) %MON dynstat_theta_sd             =   4.4366066627966E+00
(PID.TID 0000.0001) %MON dynstat_theta_del2           =   1.0924513543375E-04
(PID.TID 0000.0001) %MON dynstat_salt_max             =   4.0711527338268E+01
(PID.TID 0000.0001) %MON dynstat_salt_min             =   1.8898786933908E+01
(PID.TID 0000.0001) %MON dynstat_salt_mean            =   3.4725774788930E+01
(PID.TID 0000.0001) %MON dynstat_salt_sd              =   3.7776391738129E-01
(PID.TID 0000.0001) %MON dynstat_salt_del2            =   2.6968533362691E-05
(PID.TID 0000.0001) %MON dynstat_sst_max              =   3.2662249750694E+01
(PID.TID 0000.0001) %MON dynstat_sst_min              =  -1.9517045756466E+00
(PID.TID 0000.0001) %MON dynstat_sst_mean             =   1.8503781031491E+01
(PID.TID 0000.0001) %MON dynstat_sst_sd               =   1.0093565767985E+01
(PID.TID 0000.0001) %MON dynstat_sst_del2             =   8.7936790569610E-04
(PID.TID 0000.0001) %MON dynstat_sss_max              =   3.9666484676163E+01
(PID.TID 0000.0001) %MON dynstat_sss_min              =   1.8898786933908E+01
(PID.TID 0000.0001) %MON dynstat_sss_mean             =   3.4713415914861E+01
(PID.TID 0000.0001) %MON dynstat_sss_sd               =   1.1591736138724E+00
(PID.TID 0000.0001) %MON dynstat_sss_del2             =   3.9102884912488E-04
(PID.TID 0000.0001) %MON forcing_qnet_max             =   4.3783990473428E+03
(PID.TID 0000.0001) %MON forcing_qnet_min             =  -1.3464955175350E+03
(PID.TID 0000.0001) %MON forcing_qnet_mean            =  -2.3716959447363E+01
(PID.TID 0000.0001) %MON forcing_qnet_sd              =   2.2348377555474E+02
(PID.TID 0000.0001) %MON forcing_qnet_del2            =   8.1330880126532E-01
(PID.TID 0000.0001) %MON forcing_qsw_max              =   0.0000000000000E+00
(PID.TID 0000.0001) %MON forcing_qsw_min              =  -1.1192438090884E+02
(PID.TID 0000.0001) %MON forcing_qsw_mean             =  -2.2457376903967E+01
(PID.TID 0000.0001) %MON forcing_qsw_sd               =   3.0400080832464E+01
(PID.TID 0000.0001) %MON forcing_qsw_del2             =   2.3081370127394E-02
(PID.TID 0000.0001) %MON forcing_empmr_max            =   3.7137859035283E-03
(PID.TID 0000.0001) %MON forcing_empmr_min            =  -9.1399997472763E-02
(PID.TID 0000.0001) %MON forcing_empmr_mean           =   4.0412444116000E-05
(PID.TID 0000.0001) %MON forcing_empmr_sd             =   5.7136067283492E-04
(PID.TID 0000.0001) %MON forcing_empmr_del2           =   3.9394020207490E-06
(PID.TID 0000.0001) %MON forcing_fu_max               =   1.3794595079898E+00
(PID.TID 0000.0001) %MON forcing_fu_min               =  -1.3599671278067E+00
(PID.TID 0000.0001) %MON forcing_fu_mean              =   1.1858763131853E-02
(PID.TID 0000.0001) %MON forcing_fu_sd                =   1.2350587232989E-01
(PID.TID 0000.0001) %MON forcing_fu_del2              =   2.0099239673273E-04
(PID.TID 0000.0001) %MON forcing_fv_max               =   1.1110210577007E+00
(PID.TID 0000.0001) %MON forcing_fv_min               =  -8.6330357764177E-01
(PID.TID 0000.0001) %MON forcing_fv_mean              =  -4.7631221458762E-03
(PID.TID 0000.0001) %MON forcing_fv_sd                =   1.1660303348363E-01
(PID.TID 0000.0001) %MON forcing_fv_del2              =   1.6870605809059E-04
(PID.TID 0000.0001) %MON trAdv_CFL_u_max              =   1.6705075155076E-02
(PID.TID 0000.0001) %MON trAdv_CFL_v_max              =   2.4200080732170E-02
(PID.TID 0000.0001) %MON trAdv_CFL_w_max              =   7.3813727000586E-02
(PID.TID 0000.0001) %MON advcfl_uvel_max              =   1.6968986169526E-02
(PID.TID 0000.0001) %MON advcfl_vvel_max              =   2.1513936589433E-02
(PID.TID 0000.0001) %MON advcfl_wvel_max              =   7.6160364840772E-02
(PID.TID 0000.0001) %MON advcfl_W_hf_max              =   7.6465666522446E-02
(PID.TID 0000.0001) %MON pe_b_mean                    =   7.1173083369621E-04
(PID.TID 0000.0001) %MON ke_max                       =   5.0710380936838E-01
(PID.TID 0000.0001) %MON ke_mean                      =   5.0565936437422E-04
(PID.TID 0000.0001) %MON ke_vol                       =   1.3349972957735E+18
(PID.TID 0000.0001) %MON vort_r_min                   =  -3.3601608812586E-05
(PID.TID 0000.0001) %MON vort_r_max                   =   3.3654870127763E-05
(PID.TID 0000.0001) %MON vort_a_mean                  =  -1.9727864647440E-05
(PID.TID 0000.0001) %MON vort_a_sd                    =   7.4543395152491E-05
(PID.TID 0000.0001) %MON vort_p_mean                  =  -2.1760537992338E-05
(PID.TID 0000.0001) %MON vort_p_sd                    =   9.7241270890291E-05
(PID.TID 0000.0001) %MON surfExpan_theta_mean         =  -2.2570638690139E-06
(PID.TID 0000.0001) %MON surfExpan_salt_mean          =  -2.8880333941242E-07
(PID.TID 0000.0001) // =======================================================
(PID.TID 0000.0001) // End MONITOR dynamic field statistics
(PID.TID 0000.0001) // =======================================================
(PID.TID 0000.0001) // =======================================================
(PID.TID 0000.0001) // Begin MONITOR SEAICE statistics
(PID.TID 0000.0001) // =======================================================
(PID.TID 0000.0001) %MON seaice_tsnumber              =                     8
(PID.TID 0000.0001) %MON seaice_time_sec              =   7.2000000000000E+03
(PID.TID 0000.0001) %MON seaice_uice_max              =   7.9837829495281E-01
(PID.TID 0000.0001) %MON seaice_uice_min              =  -7.7332001882293E-01
(PID.TID 0000.0001) %MON seaice_uice_mean             =   9.1911760857662E-04
(PID.TID 0000.0001) %MON seaice_uice_sd               =   1.4750584529364E-01
(PID.TID 0000.0001) %MON seaice_uice_del2             =   2.2449664106970E-04
(PID.TID 0000.0001) %MON seaice_vice_max              =   8.7064870709926E-01
(PID.TID 0000.0001) %MON seaice_vice_min              =  -9.2829536357687E-01
(PID.TID 0000.0001) %MON seaice_vice_mean             =  -1.7466546482123E-03
(PID.TID 0000.0001) %MON seaice_vice_sd               =   1.3343681812570E-01
(PID.TID 0000.0001) %MON seaice_vice_del2             =   2.1110565250459E-04
(PID.TID 0000.0001) %MON seaice_area_max              =   1.0000000000000E+00
(PID.TID 0000.0001) %MON seaice_area_min              =   0.0000000000000E+00
(PID.TID 0000.0001) %MON seaice_area_mean             =   7.2948381565055E-02
(PID.TID 0000.0001) %MON seaice_area_sd               =   2.3781165316795E-01
(PID.TID 0000.0001) %MON seaice_area_del2             =   4.6363664017465E-04
(PID.TID 0000.0001) %MON seaice_heff_max              =   2.5178838830230E+01
(PID.TID 0000.0001) %MON seaice_heff_min              =   0.0000000000000E+00
(PID.TID 0000.0001) %MON seaice_heff_mean             =   2.1599551017427E-01
(PID.TID 0000.0001) %MON seaice_heff_sd               =   1.0610394449727E+00
(PID.TID 0000.0001) %MON seaice_heff_del2             =   3.8003675327561E-03
(PID.TID 0000.0001) %MON seaice_hsnow_max             =   8.3160700224774E+00
(PID.TID 0000.0001) %MON seaice_hsnow_min             =   0.0000000000000E+00
(PID.TID 0000.0001) %MON seaice_hsnow_mean            =   2.4662855355981E-02
(PID.TID 0000.0001) %MON seaice_hsnow_sd              =   1.5742439051904E-01
(PID.TID 0000.0001) %MON seaice_hsnow_del2            =   1.2160155645627E-03
(PID.TID 0000.0001) // =======================================================
(PID.TID 0000.0001) // End MONITOR SEAICE statistics
(PID.TID 0000.0001) // =======================================================
 Computing Diagnostic #     86  oceQnet      Counter:       4   Parms: SM      U1      
 Computing Diagnostic #     87  oceQsw       Counter:       4   Parms: SM      U1      
 Computing Diagnostic #     84  oceFWflx     Counter:       4   Parms: SM      U1      
 Computing Diagnostic #     85  oceSflux     Counter:       4   Parms: SM      U1      
 Computing Diagnostic #     80  oceTAUX      Counter:       4   Parms: UU      U1      
           Vector  Mate for  oceTAUX      Diagnostic #     81  oceTAUY  exists 
 Computing Diagnostic #     81  oceTAUY      Counter:       4   Parms: VV      U1      
           Vector  Mate for  oceTAUY      Diagnostic #     80  oceTAUX  exists 
 Computing Diagnostic #     26  THETA        Counter:       4   Parms: SMR     MR      
 Computing Diagnostic #     27  SALT         Counter:       4   Parms: SMR     MR      
 Computing Diagnostic #     30  UVEL         Counter:       4   Parms: UUR     MR      
           Vector  Mate for  UVEL         Diagnostic #     31  VVEL     exists 
 Computing Diagnostic #     31  VVEL         Counter:       4   Parms: VVR     MR      
           Vector  Mate for  VVEL         Diagnostic #     30  UVEL     exists 
 Computing Diagnostic #    214  SIarea       Counter:       4   Parms: SM      M1      
 Computing Diagnostic #    217  SIheff       Counter:       4   Parms: SM      M1      
 Computing Diagnostic #    219  SIhsnow      Counter:       4   Parms: SM      M1      
 Computing Diagnostic #     83  sIceLoad     Counter:       4   Parms: SM      U1      
 Computing Diagnostic #    223  SIuice       Counter:       4   Parms: UU      M1      
           Vector  Mate for  SIuice       Diagnostic #    224  SIvice   exists 
 Computing Diagnostic #    224  SIvice       Counter:       4   Parms: VV      M1      
           Vector  Mate for  SIvice       Diagnostic #    223  SIuice   exists 
 Computing Diagnostic #    225  SItaux       Counter:       4   Parms: UU      U1      
           Vector  Mate for  SItaux       Diagnostic #    226  SItauy   exists 
 Computing Diagnostic #    226  SItauy       Counter:       4   Parms: VV      U1      
           Vector  Mate for  SItauy       Diagnostic #    225  SItaux   exists 
 Computing Diagnostic #    285  SIareaN      Counter:       4   Parms: SM      MX      
 Computing Diagnostic #    284  SIheffN      Counter:       4   Parms: SM      MX      
 Computing Diagnostic #    286  SIhsnowN     Counter:       4   Parms: SM      MX      
 Computing Diagnostic #    290  SIqSnow      Counter:       4   Parms: SM      MX      
 Computing Diagnostic #    291  SImeltPd     Counter:       4   Parms: SM      MX      
 Computing Diagnostic #    288  SItIces      Counter:       4   Parms: SM      MX      
 Computing Diagnostic #    292  SIiceAge     Counter:       4   Parms: SM      MX      
 Computing Diagnostic #    293  SI_dArea     Counter:       4   Parms: SM      MX      
 Computing Diagnostic #    294  SI_dHeff     Counter:       4   Parms: SM      MX      
 Computing Diagnostic #    295  SI_dHsnw     Counter:       4   Parms: SM      MX      
 Computing Diagnostic #    298  SI_dQSnw     Counter:       4   Parms: SM      MX      
 Compute Stats, Diag. #    214  SIarea    vol(   0 ): 1.432E+15  Parms: SM      M1      
 Compute Stats, Diag. #    217  SIheff    vol(   0 ): 1.432E+15  Parms: SM      M1      
 Compute Stats, Diag. #    219  SIhsnow   vol(   0 ): 1.432E+15  Parms: SM      M1      
 Compute Stats, Diag. #     83  sIceLoad  vol(   0 ): 1.432E+15  Parms: SM      U1      
 Compute Stats, Diag. #    223  SIuice    vol(   0 ): 1.405E+15  Parms: UU      M1      
 Compute Stats, Diag. #    224  SIvice    vol(   0 ): 1.403E+15  Parms: VV      M1      
 Compute Stats, Diag. #    225  SItaux    vol(   0 ): 1.405E+15  Parms: UU      U1      
 Compute Stats, Diag. #    226  SItauy    vol(   0 ): 1.403E+15  Parms: VV      U1      
 Compute Stats, Diag. #    285  SIareaN   vol(   0 ): 7.160E+15  Parms: SM      MX      
 Compute Stats, Diag. #    284  SIheffN   vol(   0 ): 7.160E+15  Parms: SM      MX      
 Compute Stats, Diag. #    286  SIhsnowN  vol(   0 ): 7.160E+15  Parms: SM      MX      
 Compute Stats, Diag. #    290  SIqSnow   vol(   0 ): 7.160E+15  Parms: SM      MX      
 Compute Stats, Diag. #    289  SIqIce    vol(   0 ): 2.864E+16  Parms: SM      MX      
 Compute Stats, Diag. #    291  SImeltPd  vol(   0 ): 7.160E+15  Parms: SM      MX      
 Compute Stats, Diag. #    288  SItIces   vol(   0 ): 7.160E+15  Parms: SM      MX      
 Compute Stats, Diag. #    292  SIiceAge  vol(   0 ): 7.160E+15  Parms: SM      MX      
 Compute Stats, Diag. #    293  SI_dArea  vol(   0 ): 7.160E+15  Parms: SM      MX      
 Compute Stats, Diag. #    294  SI_dHeff  vol(   0 ): 7.160E+15  Parms: SM      MX      
 Compute Stats, Diag. #    295  SI_dHsnw  vol(   0 ): 7.160E+15  Parms: SM      MX      
 Compute Stats, Diag. #    298  SI_dQSnw  vol(   0 ): 7.160E+15  Parms: SM      MX      
 Compute Stats, Diag. #    297  SI_dQIce  vol(   0 ): 2.864E+16  Parms: SM      MX      
 SEAICE_LSR: Residual Initial ipass,Uice,Vice=    1  4.12729685E-02  4.50276471E-02
 SEAICE_LSR (ipass=   1) iters,dU,Resid=   112  9.69461119E-05  8.66794077E-03
 SEAICE_LSR (ipass=   1) iters,dV,Resid=   112  9.90870812E-05  9.62988060E-03
 SEAICE_LSR: Residual Initial ipass,Uice,Vice=    2  3.71999678E-02  4.10925585E-02
 SEAICE_LSR (ipass=   2) iters,dU,Resid=    74  9.00623796E-05  8.20799389E-03
 SEAICE_LSR (ipass=   2) iters,dV,Resid=    74  9.96533704E-05  1.02914385E-02
 cg2d: Sum(rhs),rhsMax =   5.35886984748469E+01  3.07105900065097E-01
 Computing Diagnostic #    289  SIqIce       Counter:       1   Parms: SM      MX      
 Computing Diagnostic #    297  SI_dQIce     Counter:       1   Parms: SM      MX      
 Computing Diagnostic #    290  SIqSnow      Counter:       1   Parms: SM      MX      
 Computing Diagnostic #    298  SI_dQSnw     Counter:       1   Parms: SM      MX      
 cg2d: Sum(rhs),rhsMax =   5.47605366182818E+01  3.04120310236104E-01
 cg2d: Sum(rhs),rhsMax =   5.59271316947638E+01  3.01091135169444E-01
 cg2d: Sum(rhs),rhsMax =   5.70893781735362E+01  2.98286916100988E-01
 Computing Diagnostic #     86  oceQnet      Counter:       4   Parms: SM      U1      
 Computing Diagnostic #     87  oceQsw       Counter:       4   Parms: SM      U1      
 Computing Diagnostic #     84  oceFWflx     Counter:       4   Parms: SM      U1      
 Computing Diagnostic #     85  oceSflux     Counter:       4   Parms: SM      U1      
 Computing Diagnostic #     80  oceTAUX      Counter:       4   Parms: UU      U1      
           Vector  Mate for  oceTAUX      Diagnostic #     81  oceTAUY  exists 
 Computing Diagnostic #     81  oceTAUY      Counter:       4   Parms: VV      U1      
           Vector  Mate for  oceTAUY      Diagnostic #     80  oceTAUX  exists 
 Computing Diagnostic #     26  THETA        Counter:       4   Parms: SMR     MR      
 Computing Diagnostic #     27  SALT         Counter:       4   Parms: SMR     MR      
 Computing Diagnostic #     30  UVEL         Counter:       4   Parms: UUR     MR      
           Vector  Mate for  UVEL         Diagnostic #     31  VVEL     exists 
 Computing Diagnostic #     31  VVEL         Counter:       4   Parms: VVR     MR      
           Vector  Mate for  VVEL         Diagnostic #     30  UVEL     exists 
 Computing Diagnostic #    214  SIarea       Counter:       4   Parms: SM      M1      
 Computing Diagnostic #    217  SIheff       Counter:       4   Parms: SM      M1      
 Computing Diagnostic #    219  SIhsnow      Counter:       4   Parms: SM      M1      
 Computing Diagnostic #     83  sIceLoad     Counter:       4   Parms: SM      U1      
 Computing Diagnostic #    223  SIuice       Counter:       4   Parms: UU      M1      
           Vector  Mate for  SIuice       Diagnostic #    224  SIvice   exists 
 Computing Diagnostic #    224  SIvice       Counter:       4   Parms: VV      M1      
           Vector  Mate for  SIvice       Diagnostic #    223  SIuice   exists 
 Computing Diagnostic #    225  SItaux       Counter:       4   Parms: UU      U1      
           Vector  Mate for  SItaux       Diagnostic #    226  SItauy   exists 
 Computing Diagnostic #    226  SItauy       Counter:       4   Parms: VV      U1      
           Vector  Mate for  SItauy       Diagnostic #    225  SItaux   exists 
 Computing Diagnostic #    285  SIareaN      Counter:       4   Parms: SM      MX      
 Computing Diagnostic #    284  SIheffN      Counter:       4   Parms: SM      MX      
 Computing Diagnostic #    286  SIhsnowN     Counter:       4   Parms: SM      MX      
 Computing Diagnostic #    290  SIqSnow      Counter:       4   Parms: SM      MX      
 Computing Diagnostic #    291  SImeltPd     Counter:       4   Parms: SM      MX      
 Computing Diagnostic #    288  SItIces      Counter:       4   Parms: SM      MX      
 Computing Diagnostic #    292  SIiceAge     Counter:       4   Parms: SM      MX      
 Computing Diagnostic #    293  SI_dArea     Counter:       4   Parms: SM      MX      
 Computing Diagnostic #    294  SI_dHeff     Counter:       4   Parms: SM      MX      
 Computing Diagnostic #    295  SI_dHsnw     Counter:       4   Parms: SM      MX      
 Computing Diagnostic #    298  SI_dQSnw     Counter:       4   Parms: SM      MX      
 Compute Stats, Diag. #    214  SIarea    vol(   0 ): 1.432E+15  Parms: SM      M1      
 Compute Stats, Diag. #    217  SIheff    vol(   0 ): 1.432E+15  Parms: SM      M1      
 Compute Stats, Diag. #    219  SIhsnow   vol(   0 ): 1.432E+15  Parms: SM      M1      
 Compute Stats, Diag. #     83  sIceLoad  vol(   0 ): 1.432E+15  Parms: SM      U1      
 Compute Stats, Diag. #    223  SIuice    vol(   0 ): 1.405E+15  Parms: UU      M1      
 Compute Stats, Diag. #    224  SIvice    vol(   0 ): 1.403E+15  Parms: VV      M1      
 Compute Stats, Diag. #    225  SItaux    vol(   0 ): 1.405E+15  Parms: UU      U1      
 Compute Stats, Diag. #    226  SItauy    vol(   0 ): 1.403E+15  Parms: VV      U1      
 Compute Stats, Diag. #    285  SIareaN   vol(   0 ): 7.160E+15  Parms: SM      MX      
 Compute Stats, Diag. #    284  SIheffN   vol(   0 ): 7.160E+15  Parms: SM      MX      
 Compute Stats, Diag. #    286  SIhsnowN  vol(   0 ): 7.160E+15  Parms: SM      MX      
 Compute Stats, Diag. #    290  SIqSnow   vol(   0 ): 7.160E+15  Parms: SM      MX      
 Compute Stats, Diag. #    289  SIqIce    vol(   0 ): 2.864E+16  Parms: SM      MX      
 Compute Stats, Diag. #    291  SImeltPd  vol(   0 ): 7.160E+15  Parms: SM      MX      
 Compute Stats, Diag. #    288  SItIces   vol(   0 ): 7.160E+15  Parms: SM      MX      
 Compute Stats, Diag. #    292  SIiceAge  vol(   0 ): 7.160E+15  Parms: SM      MX      
 Compute Stats, Diag. #    293  SI_dArea  vol(   0 ): 7.160E+15  Parms: SM      MX      
 Compute Stats, Diag. #    294  SI_dHeff  vol(   0 ): 7.160E+15  Parms: SM      MX      
 Compute Stats, Diag. #    295  SI_dHsnw  vol(   0 ): 7.160E+15  Parms: SM      MX      
 Compute Stats, Diag. #    298  SI_dQSnw  vol(   0 ): 7.160E+15  Parms: SM      MX      
 Compute Stats, Diag. #    297  SI_dQIce  vol(   0 ): 2.864E+16  Parms: SM      MX      
 cg2d: Sum(rhs),rhsMax =   5.82275895168236E+01  2.95861293518305E-01
 Computing Diagnostic #    289  SIqIce       Counter:       1   Parms: SM      MX      
 Computing Diagnostic #    297  SI_dQIce     Counter:       1   Parms: SM      MX      
 Computing Diagnostic #    290  SIqSnow      Counter:       1   Parms: SM      MX      
 Computing Diagnostic #    298  SI_dQSnw     Counter:       1   Parms: SM      MX      
 cg2d: Sum(rhs),rhsMax =   5.93311215608173E+01  2.93876375974946E-01
 cg2d: Sum(rhs),rhsMax =   6.03990256155342E+01  2.92328016670413E-01
 cg2d: Sum(rhs),rhsMax =   6.14242540585502E+01  2.91156764100106E-01
(PID.TID 0000.0001)      cg2d_init_res =   7.94296313270349E-01
(PID.TID 0000.0001)      cg2d_iters(min,last) =      -1      34
(PID.TID 0000.0001)      cg2d_last_res =   2.49148647077118E-05
(PID.TID 0000.0001) // =======================================================
(PID.TID 0000.0001) // Begin MONITOR dynamic field statistics
(PID.TID 0000.0001) // =======================================================
(PID.TID 0000.0001) %MON time_tsnumber                =                    16
(PID.TID 0000.0001) %MON time_secondsf                =   1.4400000000000E+04
(PID.TID 0000.0001) %MON dynstat_eta_max              =   1.1138792419371E+00
(PID.TID 0000.0001) %MON dynstat_eta_min              =  -4.2952948959055E+00
(PID.TID 0000.0001) %MON dynstat_eta_mean             =  -1.9430453319230E-03
(PID.TID 0000.0001) %MON dynstat_eta_sd               =   7.2642016626758E-01
(PID.TID 0000.0001) %MON dynstat_eta_del2             =   1.0325073145669E-04
(PID.TID 0000.0001) %MON dynstat_uvel_max             =   8.6120720020141E-01
(PID.TID 0000.0001) %MON dynstat_uvel_min             =  -1.0832433184114E+00
(PID.TID 0000.0001) %MON dynstat_uvel_mean            =   1.9638461538572E-03
(PID.TID 0000.0001) %MON dynstat_uvel_sd              =   2.1913674276295E-02
(PID.TID 0000.0001) %MON dynstat_uvel_del2            =   1.5272248497141E-05
(PID.TID 0000.0001) %MON dynstat_vvel_max             =   9.9969124800000E-01
(PID.TID 0000.0001) %MON dynstat_vvel_min             =  -9.3683083947231E-01
(PID.TID 0000.0001) %MON dynstat_vvel_mean            =   1.2002795631639E-03
(PID.TID 0000.0001) %MON dynstat_vvel_sd              =   2.3711505837671E-02
(PID.TID 0000.0001) %MON dynstat_vvel_del2            =   1.6595209541962E-05
(PID.TID 0000.0001) %MON dynstat_wvel_max             =   2.3535947436110E-03
(PID.TID 0000.0001) %MON dynstat_wvel_min             =  -2.6515676379960E-03
(PID.TID 0000.0001) %MON dynstat_wvel_mean            =  -1.3787207268103E-08
(PID.TID 0000.0001) %MON dynstat_wvel_sd              =   3.2090762286891E-05
(PID.TID 0000.0001) %MON dynstat_wvel_del2            =   4.0016363249745E-08
(PID.TID 0000.0001) %MON dynstat_theta_max            =   3.2656597426908E+01
(PID.TID 0000.0001) %MON dynstat_theta_min            =  -2.0420986472255E+00
(PID.TID 0000.0001) %MON dynstat_theta_mean           =   3.5906038837365E+00
(PID.TID 0000.0001) %MON dynstat_theta_sd             =   4.4366330880333E+00
(PID.TID 0000.0001) %MON dynstat_theta_del2           =   1.0875542197480E-04
(PID.TID 0000.0001) %MON dynstat_salt_max             =   4.0711524457666E+01
(PID.TID 0000.0001) %MON dynstat_salt_min             =   1.8883836875033E+01
(PID.TID 0000.0001) %MON dynstat_salt_mean            =   3.4725725116043E+01
(PID.TID 0000.0001) %MON dynstat_salt_sd              =   3.7757475013073E-01
(PID.TID 0000.0001) %MON dynstat_salt_del2            =   2.6937619770448E-05
(PID.TID 0000.0001) %MON dynstat_sst_max              =   3.2656597426908E+01
(PID.TID 0000.0001) %MON dynstat_sst_min              =  -1.9432303599915E+00
(PID.TID 0000.0001) %MON dynstat_sst_mean             =   1.8503974240768E+01
(PID.TID 0000.0001) %MON dynstat_sst_sd               =   1.0096797973260E+01
(PID.TID 0000.0001) %MON dynstat_sst_del2             =   8.7278976453999E-04
(PID.TID 0000.0001) %MON dynstat_sss_max              =   3.9618155559499E+01
(PID.TID 0000.0001) %MON dynstat_sss_min              =   1.8883836875033E+01
(PID.TID 0000.0001) %MON dynstat_sss_mean             =   3.4697948763799E+01
(PID.TID 0000.0001) %MON dynstat_sss_sd               =   1.1424356292360E+00
(PID.TID 0000.0001) %MON dynstat_sss_del2             =   4.0621987095161E-04
(PID.TID 0000.0001) %MON forcing_qnet_max             =   6.9463281875603E+03
(PID.TID 0000.0001) %MON forcing_qnet_min             =  -1.1426528183191E+03
(PID.TID 0000.0001) %MON forcing_qnet_mean            =  -2.3961646791480E+01
(PID.TID 0000.0001) %MON forcing_qnet_sd              =   2.2480988611915E+02
(PID.TID 0000.0001) %MON forcing_qnet_del2            =   7.8269862515370E-01
(PID.TID 0000.0001) %MON forcing_qsw_max              =   0.0000000000000E+00
(PID.TID 0000.0001) %MON forcing_qsw_min              =  -1.1026016236623E+02
(PID.TID 0000.0001) %MON forcing_qsw_mean             =  -2.1543644419193E+01
(PID.TID 0000.0001) %MON forcing_qsw_sd               =   3.0199581377867E+01
(PID.TID 0000.0001) %MON forcing_qsw_del2             =   2.1741850938197E-02
(PID.TID 0000.0001) %MON forcing_empmr_max            =   5.4702418856323E-03
(PID.TID 0000.0001) %MON forcing_empmr_min            =  -7.1063138544559E-02
(PID.TID 0000.0001) %MON forcing_empmr_mean           =   3.7079729183778E-05
(PID.TID 0000.0001) %MON forcing_empmr_sd             =   4.6112335782434E-04
(PID.TID 0000.0001) %MON forcing_empmr_del2           =   3.1084465081101E-06
(PID.TID 0000.0001) %MON forcing_fu_max               =   1.2769131516201E+00
(PID.TID 0000.0001) %MON forcing_fu_min               =  -1.2402658693769E+00
(PID.TID 0000.0001) %MON forcing_fu_mean              =   1.1531891986182E-02
(PID.TID 0000.0001) %MON forcing_fu_sd                =   1.2025903034665E-01
(PID.TID 0000.0001) %MON forcing_fu_del2              =   1.8845496119089E-04
(PID.TID 0000.0001) %MON forcing_fv_max               =   1.1362050441451E+00
(PID.TID 0000.0001) %MON forcing_fv_min               =  -8.6951578941335E-01
(PID.TID 0000.0001) %MON forcing_fv_mean              =  -4.2064958610497E-03
(PID.TID 0000.0001) %MON forcing_fv_sd                =   1.1172654277600E-01
(PID.TID 0000.0001) %MON forcing_fv_del2              =   1.6454450316354E-04
(PID.TID 0000.0001) %MON trAdv_CFL_u_max              =   1.8125356597798E-02
(PID.TID 0000.0001) %MON trAdv_CFL_v_max              =   2.1026978283472E-02
(PID.TID 0000.0001) %MON trAdv_CFL_w_max              =   6.0389409576346E-02
(PID.TID 0000.0001) %MON advcfl_uvel_max              =   1.8364198293619E-02
(PID.TID 0000.0001) %MON advcfl_vvel_max              =   1.8904465247686E-02
(PID.TID 0000.0001) %MON advcfl_wvel_max              =   6.1892804282365E-02
(PID.TID 0000.0001) %MON advcfl_W_hf_max              =   6.5485653557261E-02
(PID.TID 0000.0001) %MON pe_b_mean                    =   6.9412452979576E-04
(PID.TID 0000.0001) %MON ke_max                       =   5.8346703749943E-01
(PID.TID 0000.0001) %MON ke_mean                      =   5.0521684542386E-04
(PID.TID 0000.0001) %MON ke_vol                       =   1.3349971929130E+18
(PID.TID 0000.0001) %MON vort_r_min                   =  -3.1553101481436E-05
(PID.TID 0000.0001) %MON vort_r_max                   =   3.3626320626029E-05
(PID.TID 0000.0001) %MON vort_a_mean                  =  -1.9727864647440E-05
(PID.TID 0000.0001) %MON vort_a_sd                    =   7.4543375863159E-05
(PID.TID 0000.0001) %MON vort_p_mean                  =  -2.1760540275562E-05
(PID.TID 0000.0001) %MON vort_p_sd                    =   9.7242589542605E-05
(PID.TID 0000.0001) %MON surfExpan_theta_mean         =  -2.6147768981314E-06
(PID.TID 0000.0001) %MON surfExpan_salt_mean          =  -3.3196901454350E-07
(PID.TID 0000.0001) // =======================================================
(PID.TID 0000.0001) // End MONITOR dynamic field statistics
(PID.TID 0000.0001) // =======================================================
(PID.TID 0000.0001) // =======================================================
(PID.TID 0000.0001) // Begin MONITOR SEAICE statistics
(PID.TID 0000.0001) // =======================================================
(PID.TID 0000.0001) %MON seaice_tsnumber              =                    16
(PID.TID 0000.0001) %MON seaice_time_sec              =   1.4400000000000E+04
(PID.TID 0000.0001) %MON seaice_uice_max              =   8.5347315271456E-01
(PID.TID 0000.0001) %MON seaice_uice_min              =  -8.7415412788303E-01
(PID.TID 0000.0001) %MON seaice_uice_mean             =   1.2536303421078E-05
(PID.TID 0000.0001) %MON seaice_uice_sd               =   1.5488729560734E-01
(PID.TID 0000.0001) %MON seaice_uice_del2             =   2.2267343987082E-04
(PID.TID 0000.0001) %MON seaice_vice_max              =   8.1259337375901E-01
(PID.TID 0000.0001) %MON seaice_vice_min              =  -9.2470509000982E-01
(PID.TID 0000.0001) %MON seaice_vice_mean             =  -2.5714793661615E-03
(PID.TID 0000.0001) %MON seaice_vice_sd               =   1.3335676017471E-01
(PID.TID 0000.0001) %MON seaice_vice_del2             =   1.9758704728058E-04
(PID.TID 0000.0001) %MON seaice_area_max              =   1.0000000000000E+00
(PID.TID 0000.0001) %MON seaice_area_min              =   0.0000000000000E+00
(PID.TID 0000.0001) %MON seaice_area_mean             =   7.2508428959657E-02
(PID.TID 0000.0001) %MON seaice_area_sd               =   2.3763941177708E-01
(PID.TID 0000.0001) %MON seaice_area_del2             =   4.4663232244462E-04
(PID.TID 0000.0001) %MON seaice_heff_max              =   2.5136831978874E+01
(PID.TID 0000.0001) %MON seaice_heff_min              =   0.0000000000000E+00
(PID.TID 0000.0001) %MON seaice_heff_mean             =   2.1633974593263E-01
(PID.TID 0000.0001) %MON seaice_heff_sd               =   1.0622879897643E+00
(PID.TID 0000.0001) %MON seaice_heff_del2             =   3.6702458735309E-03
(PID.TID 0000.0001) %MON seaice_hsnow_max             =   8.3021968785366E+00
(PID.TID 0000.0001) %MON seaice_hsnow_min             =   0.0000000000000E+00
(PID.TID 0000.0001) %MON seaice_hsnow_mean            =   2.4648160305046E-02
(PID.TID 0000.0001) %MON seaice_hsnow_sd              =   1.5653923266440E-01
(PID.TID 0000.0001) %MON seaice_hsnow_del2            =   1.1728750338540E-03
(PID.TID 0000.0001) // =======================================================
(PID.TID 0000.0001) // End MONITOR SEAICE statistics
(PID.TID 0000.0001) // =======================================================
 Computing Diagnostic #     86  oceQnet      Counter:       4   Parms: SM      U1      
 Computing Diagnostic #     87  oceQsw       Counter:       4   Parms: SM      U1      
 Computing Diagnostic #     84  oceFWflx     Counter:       4   Parms: SM      U1      
 Computing Diagnostic #     85  oceSflux     Counter:       4   Parms: SM      U1      
 Computing Diagnostic #     80  oceTAUX      Counter:       4   Parms: UU      U1      
           Vector  Mate for  oceTAUX      Diagnostic #     81  oceTAUY  exists 
 Computing Diagnostic #     81  oceTAUY      Counter:       4   Parms: VV      U1      
           Vector  Mate for  oceTAUY      Diagnostic #     80  oceTAUX  exists 
 Computing Diagnostic #     26  THETA        Counter:       4   Parms: SMR     MR      
 Computing Diagnostic #     27  SALT         Counter:       4   Parms: SMR     MR      
 Computing Diagnostic #     30  UVEL         Counter:       4   Parms: UUR     MR      
           Vector  Mate for  UVEL         Diagnostic #     31  VVEL     exists 
 Computing Diagnostic #     31  VVEL         Counter:       4   Parms: VVR     MR      
           Vector  Mate for  VVEL         Diagnostic #     30  UVEL     exists 
 Computing Diagnostic #    214  SIarea       Counter:       4   Parms: SM      M1      
 Computing Diagnostic #    217  SIheff       Counter:       4   Parms: SM      M1      
 Computing Diagnostic #    219  SIhsnow      Counter:       4   Parms: SM      M1      
 Computing Diagnostic #     83  sIceLoad     Counter:       4   Parms: SM      U1      
 Computing Diagnostic #    223  SIuice       Counter:       4   Parms: UU      M1      
           Vector  Mate for  SIuice       Diagnostic #    224  SIvice   exists 
 Computing Diagnostic #    224  SIvice       Counter:       4   Parms: VV      M1      
           Vector  Mate for  SIvice       Diagnostic #    223  SIuice   exists 
 Computing Diagnostic #    225  SItaux       Counter:       4   Parms: UU      U1      
           Vector  Mate for  SItaux       Diagnostic #    226  SItauy   exists 
 Computing Diagnostic #    226  SItauy       Counter:       4   Parms: VV      U1      
           Vector  Mate for  SItauy       Diagnostic #    225  SItaux   exists 
 Computing Diagnostic #    285  SIareaN      Counter:       4   Parms: SM      MX      
 Computing Diagnostic #    284  SIheffN      Counter:       4   Parms: SM      MX      
 Computing Diagnostic #    286  SIhsnowN     Counter:       4   Parms: SM      MX      
 Computing Diagnostic #    290  SIqSnow      Counter:       4   Parms: SM      MX      
 Computing Diagnostic #    291  SImeltPd     Counter:       4   Parms: SM      MX      
 Computing Diagnostic #    288  SItIces      Counter:       4   Parms: SM      MX      
 Computing Diagnostic #    292  SIiceAge     Counter:       4   Parms: SM      MX      
 Computing Diagnostic #    293  SI_dArea     Counter:       4   Parms: SM      MX      
 Computing Diagnostic #    294  SI_dHeff     Counter:       4   Parms: SM      MX      
 Computing Diagnostic #    295  SI_dHsnw     Counter:       4   Parms: SM      MX      
 Computing Diagnostic #    298  SI_dQSnw     Counter:       4   Parms: SM      MX      
 Compute Stats, Diag. #    214  SIarea    vol(   0 ): 1.432E+15  Parms: SM      M1      
 Compute Stats, Diag. #    217  SIheff    vol(   0 ): 1.432E+15  Parms: SM      M1      
 Compute Stats, Diag. #    219  SIhsnow   vol(   0 ): 1.432E+15  Parms: SM      M1      
 Compute Stats, Diag. #     83  sIceLoad  vol(   0 ): 1.432E+15  Parms: SM      U1      
 Compute Stats, Diag. #    223  SIuice    vol(   0 ): 1.405E+15  Parms: UU      M1      
 Compute Stats, Diag. #    224  SIvice    vol(   0 ): 1.403E+15  Parms: VV      M1      
 Compute Stats, Diag. #    225  SItaux    vol(   0 ): 1.405E+15  Parms: UU      U1      
 Compute Stats, Diag. #    226  SItauy    vol(   0 ): 1.403E+15  Parms: VV      U1      
 Compute Stats, Diag. #    285  SIareaN   vol(   0 ): 7.160E+15  Parms: SM      MX      
 Compute Stats, Diag. #    284  SIheffN   vol(   0 ): 7.160E+15  Parms: SM      MX      
 Compute Stats, Diag. #    286  SIhsnowN  vol(   0 ): 7.160E+15  Parms: SM      MX      
 Compute Stats, Diag. #    290  SIqSnow   vol(   0 ): 7.160E+15  Parms: SM      MX      
 Compute Stats, Diag. #    289  SIqIce    vol(   0 ): 2.864E+16  Parms: SM      MX      
 Compute Stats, Diag. #    291  SImeltPd  vol(   0 ): 7.160E+15  Parms: SM      MX      
 Compute Stats, Diag. #    288  SItIces   vol(   0 ): 7.160E+15  Parms: SM      MX      
 Compute Stats, Diag. #    292  SIiceAge  vol(   0 ): 7.160E+15  Parms: SM      MX      
 Compute Stats, Diag. #    293  SI_dArea  vol(   0 ): 7.160E+15  Parms: SM      MX      
 Compute Stats, Diag. #    294  SI_dHeff  vol(   0 ): 7.160E+15  Parms: SM      MX      
 Compute Stats, Diag. #    295  SI_dHsnw  vol(   0 ): 7.160E+15  Parms: SM      MX      
 Compute Stats, Diag. #    298  SI_dQSnw  vol(   0 ): 7.160E+15  Parms: SM      MX      
 Compute Stats, Diag. #    297  SI_dQIce  vol(   0 ): 2.864E+16  Parms: SM      MX      
 SEAICE_LSR: Residual Initial ipass,Uice,Vice=    1  3.31997977E-02  3.84010565E-02
 SEAICE_LSR (ipass=   1) iters,dU,Resid=    68  8.56609727E-05  4.74678249E-03
 SEAICE_LSR (ipass=   1) iters,dV,Resid=    68  9.99611287E-05  1.80819133E-02
 SEAICE_LSR: Residual Initial ipass,Uice,Vice=    2  3.01163979E-02  3.55569778E-02
 SEAICE_LSR (ipass=   2) iters,dU,Resid=    44  7.62840468E-05  5.21228762E-03
 SEAICE_LSR (ipass=   2) iters,dV,Resid=    44  9.95022351E-05  1.88975629E-02
 cg2d: Sum(rhs),rhsMax =   6.24089537435152E+01  2.90280756844209E-01
 Computing Diagnostic #    289  SIqIce       Counter:       1   Parms: SM      MX      
 Computing Diagnostic #    297  SI_dQIce     Counter:       1   Parms: SM      MX      
 Computing Diagnostic #    290  SIqSnow      Counter:       1   Parms: SM      MX      
 Computing Diagnostic #    298  SI_dQSnw     Counter:       1   Parms: SM      MX      
 cg2d: Sum(rhs),rhsMax =   6.33581591981586E+01  2.89611472102697E-01
 cg2d: Sum(rhs),rhsMax =   6.42659826228874E+01  2.89067314637493E-01
 cg2d: Sum(rhs),rhsMax =   6.51257557170168E+01  2.88607633965467E-01
 Computing Diagnostic #     86  oceQnet      Counter:       4   Parms: SM      U1      
 Computing Diagnostic #     87  oceQsw       Counter:       4   Parms: SM      U1      
 Computing Diagnostic #     84  oceFWflx     Counter:       4   Parms: SM      U1      
 Computing Diagnostic #     85  oceSflux     Counter:       4   Parms: SM      U1      
 Computing Diagnostic #     80  oceTAUX      Counter:       4   Parms: UU      U1      
           Vector  Mate for  oceTAUX      Diagnostic #     81  oceTAUY  exists 
 Computing Diagnostic #     81  oceTAUY      Counter:       4   Parms: VV      U1      
           Vector  Mate for  oceTAUY      Diagnostic #     80  oceTAUX  exists 
 Computing Diagnostic #     26  THETA        Counter:       4   Parms: SMR     MR      
 Computing Diagnostic #     27  SALT         Counter:       4   Parms: SMR     MR      
 Computing Diagnostic #     30  UVEL         Counter:       4   Parms: UUR     MR      
           Vector  Mate for  UVEL         Diagnostic #     31  VVEL     exists 
 Computing Diagnostic #     31  VVEL         Counter:       4   Parms: VVR     MR      
           Vector  Mate for  VVEL         Diagnostic #     30  UVEL     exists 
 Computing Diagnostic #    214  SIarea       Counter:       4   Parms: SM      M1      
 Computing Diagnostic #    217  SIheff       Counter:       4   Parms: SM      M1      
 Computing Diagnostic #    219  SIhsnow      Counter:       4   Parms: SM      M1      
 Computing Diagnostic #     83  sIceLoad     Counter:       4   Parms: SM      U1      
 Computing Diagnostic #    223  SIuice       Counter:       4   Parms: UU      M1      
           Vector  Mate for  SIuice       Diagnostic #    224  SIvice   exists 
 Computing Diagnostic #    224  SIvice       Counter:       4   Parms: VV      M1      
           Vector  Mate for  SIvice       Diagnostic #    223  SIuice   exists 
 Computing Diagnostic #    225  SItaux       Counter:       4   Parms: UU      U1      
           Vector  Mate for  SItaux       Diagnostic #    226  SItauy   exists 
 Computing Diagnostic #    226  SItauy       Counter:       4   Parms: VV      U1      
           Vector  Mate for  SItauy       Diagnostic #    225  SItaux   exists 
 Computing Diagnostic #    285  SIareaN      Counter:       4   Parms: SM      MX      
 Computing Diagnostic #    284  SIheffN      Counter:       4   Parms: SM      MX      
 Computing Diagnostic #    286  SIhsnowN     Counter:       4   Parms: SM      MX      
 Computing Diagnostic #    290  SIqSnow      Counter:       4   Parms: SM      MX      
 Computing Diagnostic #    291  SImeltPd     Counter:       4   Parms: SM      MX      
 Computing Diagnostic #    288  SItIces      Counter:       4   Parms: SM      MX      
 Computing Diagnostic #    292  SIiceAge     Counter:       4   Parms: SM      MX      
 Computing Diagnostic #    293  SI_dArea     Counter:       4   Parms: SM      MX      
 Computing Diagnostic #    294  SI_dHeff     Counter:       4   Parms: SM      MX      
 Computing Diagnostic #    295  SI_dHsnw     Counter:       4   Parms: SM      MX      
 Computing Diagnostic #    298  SI_dQSnw     Counter:       4   Parms: SM      MX      
 Compute Stats, Diag. #    214  SIarea    vol(   0 ): 1.432E+15  Parms: SM      M1      
 Compute Stats, Diag. #    217  SIheff    vol(   0 ): 1.432E+15  Parms: SM      M1      
 Compute Stats, Diag. #    219  SIhsnow   vol(   0 ): 1.432E+15  Parms: SM      M1      
 Compute Stats, Diag. #     83  sIceLoad  vol(   0 ): 1.432E+15  Parms: SM      U1      
 Compute Stats, Diag. #    223  SIuice    vol(   0 ): 1.405E+15  Parms: UU      M1      
 Compute Stats, Diag. #    224  SIvice    vol(   0 ): 1.403E+15  Parms: VV      M1      
 Compute Stats, Diag. #    225  SItaux    vol(   0 ): 1.405E+15  Parms: UU      U1      
 Compute Stats, Diag. #    226  SItauy    vol(   0 ): 1.403E+15  Parms: VV      U1      
 Compute Stats, Diag. #    285  SIareaN   vol(   0 ): 7.160E+15  Parms: SM      MX      
 Compute Stats, Diag. #    284  SIheffN   vol(   0 ): 7.160E+15  Parms: SM      MX      
 Compute Stats, Diag. #    286  SIhsnowN  vol(   0 ): 7.160E+15  Parms: SM      MX      
 Compute Stats, Diag. #    290  SIqSnow   vol(   0 ): 7.160E+15  Parms: SM      MX      
 Compute Stats, Diag. #    289  SIqIce    vol(   0 ): 2.864E+16  Parms: SM      MX      
 Compute Stats, Diag. #    291  SImeltPd  vol(   0 ): 7.160E+15  Parms: SM      MX      
 Compute Stats, Diag. #    288  SItIces   vol(   0 ): 7.160E+15  Parms: SM      MX      
 Compute Stats, Diag. #    292  SIiceAge  vol(   0 ): 7.160E+15  Parms: SM      MX      
 Compute Stats, Diag. #    293  SI_dArea  vol(   0 ): 7.160E+15  Parms: SM      MX      
 Compute Stats, Diag. #    294  SI_dHeff  vol(   0 ): 7.160E+15  Parms: SM      MX      
 Compute Stats, Diag. #    295  SI_dHsnw  vol(   0 ): 7.160E+15  Parms: SM      MX      
 Compute Stats, Diag. #    298  SI_dQSnw  vol(   0 ): 7.160E+15  Parms: SM      MX      
 Compute Stats, Diag. #    297  SI_dQIce  vol(   0 ): 2.864E+16  Parms: SM      MX      
 cg2d: Sum(rhs),rhsMax =   6.59466756753935E+01  2.88249861501205E-01
 Computing Diagnostic #    289  SIqIce       Counter:       1   Parms: SM      MX      
 Computing Diagnostic #    297  SI_dQIce     Counter:       1   Parms: SM      MX      
 Computing Diagnostic #    290  SIqSnow      Counter:       1   Parms: SM      MX      
 Computing Diagnostic #    298  SI_dQSnw     Counter:       1   Parms: SM      MX      
 cg2d: Sum(rhs),rhsMax =   6.67326413335385E+01  2.88037055520951E-01
 cg2d: Sum(rhs),rhsMax =   6.74758992407106E+01  2.88049785808890E-01
 cg2d: Sum(rhs),rhsMax =   6.81783644567560E+01  2.88363229374675E-01
(PID.TID 0000.0001)      cg2d_init_res =   5.99686535389354E-01
(PID.TID 0000.0001)      cg2d_iters(min,last) =      -1      34
(PID.TID 0000.0001)      cg2d_last_res =   2.46624408473619E-05
(PID.TID 0000.0001) // =======================================================
(PID.TID 0000.0001) // Begin MONITOR dynamic field statistics
(PID.TID 0000.0001) // =======================================================
(PID.TID 0000.0001) %MON time_tsnumber                =                    24
(PID.TID 0000.0001) %MON time_secondsf                =   2.1600000000000E+04
(PID.TID 0000.0001) %MON dynstat_eta_max              =   1.1051850960009E+00
(PID.TID 0000.0001) %MON dynstat_eta_min              =  -3.9241907300787E+00
(PID.TID 0000.0001) %MON dynstat_eta_mean             =  -2.1566994150154E-03
(PID.TID 0000.0001) %MON dynstat_eta_sd               =   7.2124148818391E-01
(PID.TID 0000.0001) %MON dynstat_eta_del2             =   9.4138280992013E-05
(PID.TID 0000.0001) %MON dynstat_uvel_max             =   8.6230320137791E-01
(PID.TID 0000.0001) %MON dynstat_uvel_min             =  -1.1280408719732E+00
(PID.TID 0000.0001) %MON dynstat_uvel_mean            =   1.9045943664873E-03
(PID.TID 0000.0001) %MON dynstat_uvel_sd              =   2.1971437485903E-02
(PID.TID 0000.0001) %MON dynstat_uvel_del2            =   1.4146313025047E-05
(PID.TID 0000.0001) %MON dynstat_vvel_max             =   9.7268822009321E-01
(PID.TID 0000.0001) %MON dynstat_vvel_min             =  -9.3326822207485E-01
(PID.TID 0000.0001) %MON dynstat_vvel_mean            =   1.2855981016707E-03
(PID.TID 0000.0001) %MON dynstat_vvel_sd              =   2.3578843732669E-02
(PID.TID 0000.0001) %MON dynstat_vvel_del2            =   1.5255282809390E-05
(PID.TID 0000.0001) %MON dynstat_wvel_max             =   2.4507848518844E-03
(PID.TID 0000.0001) %MON dynstat_wvel_min             =  -3.6070947230347E-03
(PID.TID 0000.0001) %MON dynstat_wvel_mean            =   3.5300099416367E-08
(PID.TID 0000.0001) %MON dynstat_wvel_sd              =   3.3665207634239E-05
(PID.TID 0000.0001) %MON dynstat_wvel_del2            =   4.5024918483215E-08
(PID.TID 0000.0001) %MON dynstat_theta_max            =   3.2652622679034E+01
(PID.TID 0000.0001) %MON dynstat_theta_min            =  -2.0420747816697E+00
(PID.TID 0000.0001) %MON dynstat_theta_mean           =   3.5906092620286E+00
(PID.TID 0000.0001) %MON dynstat_theta_sd             =   4.4366434028493E+00
(PID.TID 0000.0001) %MON dynstat_theta_del2           =   1.0820688263593E-04
(PID.TID 0000.0001) %MON dynstat_salt_max             =   4.0711523309240E+01
(PID.TID 0000.0001) %MON dynstat_salt_min             =   1.8871604839210E+01
(PID.TID 0000.0001) %MON dynstat_salt_mean            =   3.4725694321913E+01
(PID.TID 0000.0001) %MON dynstat_salt_sd              =   3.7744505807660E-01
(PID.TID 0000.0001) %MON dynstat_salt_del2            =   2.6903987469941E-05
(PID.TID 0000.0001) %MON dynstat_sst_max              =   3.2652622679034E+01
(PID.TID 0000.0001) %MON dynstat_sst_min              =  -1.9417949141033E+00
(PID.TID 0000.0001) %MON dynstat_sst_mean             =   1.8502279926992E+01
(PID.TID 0000.0001) %MON dynstat_sst_sd               =   1.0100731670413E+01
(PID.TID 0000.0001) %MON dynstat_sst_del2             =   8.6857597330131E-04
(PID.TID 0000.0001) %MON dynstat_sss_max              =   3.9575347393419E+01
(PID.TID 0000.0001) %MON dynstat_sss_min              =   1.8871604839210E+01
(PID.TID 0000.0001) %MON dynstat_sss_mean             =   3.4690216750157E+01
(PID.TID 0000.0001) %MON dynstat_sss_sd               =   1.1329559563986E+00
(PID.TID 0000.0001) %MON dynstat_sss_del2             =   4.2138662654538E-04
(PID.TID 0000.0001) %MON forcing_qnet_max             =   1.4597729492188E+03
(PID.TID 0000.0001) %MON forcing_qnet_min             =  -1.0495817896666E+03
(PID.TID 0000.0001) %MON forcing_qnet_mean            =   8.1632845038407E-01
(PID.TID 0000.0001) %MON forcing_qnet_sd              =   2.0573691253354E+02
(PID.TID 0000.0001) %MON forcing_qnet_del2            =   4.9158197421669E-01
(PID.TID 0000.0001) %MON forcing_qsw_max              =   0.0000000000000E+00
(PID.TID 0000.0001) %MON forcing_qsw_min              =  -1.1177434021856E+02
(PID.TID 0000.0001) %MON forcing_qsw_mean             =  -1.8796829696803E+01
(PID.TID 0000.0001) %MON forcing_qsw_sd               =   2.7452129358363E+01
(PID.TID 0000.0001) %MON forcing_qsw_del2             =   2.2032122215372E-02
(PID.TID 0000.0001) %MON forcing_empmr_max            =   4.5796916820109E-03
(PID.TID 0000.0001) %MON forcing_empmr_min            =  -7.3491953313351E-02
(PID.TID 0000.0001) %MON forcing_empmr_mean           =   2.5406259599394E-05
(PID.TID 0000.0001) %MON forcing_empmr_sd             =   4.0299398772970E-04
(PID.TID 0000.0001) %MON forcing_empmr_del2           =   3.2280187454529E-06
(PID.TID 0000.0001) %MON forcing_fu_max               =   1.1558916708092E+00
(PID.TID 0000.0001) %MON forcing_fu_min               =  -1.0749890594192E+00
(PID.TID 0000.0001) %MON forcing_fu_mean              =   1.1679830987284E-02
(PID.TID 0000.0001) %MON forcing_fu_sd                =   1.1576066171229E-01
(PID.TID 0000.0001) %MON forcing_fu_del2              =   1.7898123184745E-04
(PID.TID 0000.0001) %MON forcing_fv_max               =   1.0735461120189E+00
(PID.TID 0000.0001) %MON forcing_fv_min               =  -7.1154939609268E-01
(PID.TID 0000.0001) %MON forcing_fv_mean              =  -4.6787339231814E-03
(PID.TID 0000.0001) %MON forcing_fv_sd                =   1.0855215922234E-01
(PID.TID 0000.0001) %MON forcing_fv_del2              =   1.5700127398780E-04
(PID.TID 0000.0001) %MON trAdv_CFL_u_max              =   1.8384119542886E-02
(PID.TID 0000.0001) %MON trAdv_CFL_v_max              =   1.8208652359345E-02
(PID.TID 0000.0001) %MON trAdv_CFL_w_max              =   6.6075546082618E-02
(PID.TID 0000.0001) %MON advcfl_uvel_max              =   1.8663340861559E-02
(PID.TID 0000.0001) %MON advcfl_vvel_max              =   1.7265979742776E-02
(PID.TID 0000.0001) %MON advcfl_wvel_max              =   6.7902556212080E-02
(PID.TID 0000.0001) %MON advcfl_W_hf_max              =   7.1514871179993E-02
(PID.TID 0000.0001) %MON pe_b_mean                    =   6.8426418883210E-04
(PID.TID 0000.0001) %MON ke_max                       =   6.0315053379665E-01
(PID.TID 0000.0001) %MON ke_mean                      =   5.0340517050212E-04
(PID.TID 0000.0001) %MON ke_vol                       =   1.3349971127665E+18
(PID.TID 0000.0001) %MON vort_r_min                   =  -3.2072524546582E-05
(PID.TID 0000.0001) %MON vort_r_max                   =   3.2900177092090E-05
(PID.TID 0000.0001) %MON vort_a_mean                  =  -1.9727864647440E-05
(PID.TID 0000.0001) %MON vort_a_sd                    =   7.4543360098197E-05
(PID.TID 0000.0001) %MON vort_p_mean                  =  -2.1760541704816E-05
(PID.TID 0000.0001) %MON vort_p_sd                    =   9.7243584335515E-05
(PID.TID 0000.0001) %MON surfExpan_theta_mean         =  -1.9342188592344E-06
(PID.TID 0000.0001) %MON surfExpan_salt_mean          =  -5.3608651259208E-07
(PID.TID 0000.0001) // =======================================================
(PID.TID 0000.0001) // End MONITOR dynamic field statistics
(PID.TID 0000.0001) // =======================================================
(PID.TID 0000.0001) // =======================================================
(PID.TID 0000.0001) // Begin MONITOR SEAICE statistics
(PID.TID 0000.0001) // =======================================================
(PID.TID 0000.0001) %MON seaice_tsnumber              =                    24
(PID.TID 0000.0001) %MON seaice_time_sec              =   2.1600000000000E+04
(PID.TID 0000.0001) %MON seaice_uice_max              =   8.0145115917435E-01
(PID.TID 0000.0001) %MON seaice_uice_min              =  -7.3942275358909E-01
(PID.TID 0000.0001) %MON seaice_uice_mean             =  -2.0129836873128E-03
(PID.TID 0000.0001) %MON seaice_uice_sd               =   1.5528981904257E-01
(PID.TID 0000.0001) %MON seaice_uice_del2             =   2.1819180123879E-04
(PID.TID 0000.0001) %MON seaice_vice_max              =   7.6670706630340E-01
(PID.TID 0000.0001) %MON seaice_vice_min              =  -9.2095597660564E-01
(PID.TID 0000.0001) %MON seaice_vice_mean             =  -4.6462547142423E-03
(PID.TID 0000.0001) %MON seaice_vice_sd               =   1.3518411185522E-01
(PID.TID 0000.0001) %MON seaice_vice_del2             =   1.8942540148024E-04
(PID.TID 0000.0001) %MON seaice_area_max              =   1.0000000000000E+00
(PID.TID 0000.0001) %MON seaice_area_min              =   0.0000000000000E+00
(PID.TID 0000.0001) %MON seaice_area_mean             =   7.2145698868931E-02
(PID.TID 0000.0001) %MON seaice_area_sd               =   2.3746843519046E-01
(PID.TID 0000.0001) %MON seaice_area_del2             =   4.3112499048501E-04
(PID.TID 0000.0001) %MON seaice_heff_max              =   2.5124865927243E+01
(PID.TID 0000.0001) %MON seaice_heff_min              =   0.0000000000000E+00
(PID.TID 0000.0001) %MON seaice_heff_mean             =   2.1657590662068E-01
(PID.TID 0000.0001) %MON seaice_heff_sd               =   1.0629689905125E+00
(PID.TID 0000.0001) %MON seaice_heff_del2             =   3.5431319252104E-03
(PID.TID 0000.0001) %MON seaice_hsnow_max             =   8.2982462565767E+00
(PID.TID 0000.0001) %MON seaice_hsnow_min             =   0.0000000000000E+00
(PID.TID 0000.0001) %MON seaice_hsnow_mean            =   2.4629288617815E-02
(PID.TID 0000.0001) %MON seaice_hsnow_sd              =   1.5567814374654E-01
(PID.TID 0000.0001) %MON seaice_hsnow_del2            =   1.1304480942359E-03
(PID.TID 0000.0001) // =======================================================
(PID.TID 0000.0001) // End MONITOR SEAICE statistics
(PID.TID 0000.0001) // =======================================================
 Computing Diagnostic #     86  oceQnet      Counter:       4   Parms: SM      U1      
 Computing Diagnostic #     87  oceQsw       Counter:       4   Parms: SM      U1      
 Computing Diagnostic #     84  oceFWflx     Counter:       4   Parms: SM      U1      
 Computing Diagnostic #     85  oceSflux     Counter:       4   Parms: SM      U1      
 Computing Diagnostic #     80  oceTAUX      Counter:       4   Parms: UU      U1      
           Vector  Mate for  oceTAUX      Diagnostic #     81  oceTAUY  exists 
 Computing Diagnostic #     81  oceTAUY      Counter:       4   Parms: VV      U1      
           Vector  Mate for  oceTAUY      Diagnostic #     80  oceTAUX  exists 
 Computing Diagnostic #     26  THETA        Counter:       4   Parms: SMR     MR      
 Computing Diagnostic #     27  SALT         Counter:       4   Parms: SMR     MR      
 Computing Diagnostic #     30  UVEL         Counter:       4   Parms: UUR     MR      
           Vector  Mate for  UVEL         Diagnostic #     31  VVEL     exists 
 Computing Diagnostic #     31  VVEL         Counter:       4   Parms: VVR     MR      
           Vector  Mate for  VVEL         Diagnostic #     30  UVEL     exists 
 Computing Diagnostic #    214  SIarea       Counter:       4   Parms: SM      M1      
 Computing Diagnostic #    217  SIheff       Counter:       4   Parms: SM      M1      
 Computing Diagnostic #    219  SIhsnow      Counter:       4   Parms: SM      M1      
 Computing Diagnostic #     83  sIceLoad     Counter:       4   Parms: SM      U1      
 Computing Diagnostic #    223  SIuice       Counter:       4   Parms: UU      M1      
           Vector  Mate for  SIuice       Diagnostic #    224  SIvice   exists 
 Computing Diagnostic #    224  SIvice       Counter:       4   Parms: VV      M1      
           Vector  Mate for  SIvice       Diagnostic #    223  SIuice   exists 
 Computing Diagnostic #    225  SItaux       Counter:       4   Parms: UU      U1      
           Vector  Mate for  SItaux       Diagnostic #    226  SItauy   exists 
 Computing Diagnostic #    226  SItauy       Counter:       4   Parms: VV      U1      
           Vector  Mate for  SItauy       Diagnostic #    225  SItaux   exists 
 Computing Diagnostic #    285  SIareaN      Counter:       4   Parms: SM      MX      
 Computing Diagnostic #    284  SIheffN      Counter:       4   Parms: SM      MX      
 Computing Diagnostic #    286  SIhsnowN     Counter:       4   Parms: SM      MX      
 Computing Diagnostic #    290  SIqSnow      Counter:       4   Parms: SM      MX      
 Computing Diagnostic #    291  SImeltPd     Counter:       4   Parms: SM      MX      
 Computing Diagnostic #    288  SItIces      Counter:       4   Parms: SM      MX      
 Computing Diagnostic #    292  SIiceAge     Counter:       4   Parms: SM      MX      
 Computing Diagnostic #    293  SI_dArea     Counter:       4   Parms: SM      MX      
 Computing Diagnostic #    294  SI_dHeff     Counter:       4   Parms: SM      MX      
 Computing Diagnostic #    295  SI_dHsnw     Counter:       4   Parms: SM      MX      
 Computing Diagnostic #    298  SI_dQSnw     Counter:       4   Parms: SM      MX      
 Compute Stats, Diag. #    214  SIarea    vol(   0 ): 1.432E+15  Parms: SM      M1      
 Compute Stats, Diag. #    217  SIheff    vol(   0 ): 1.432E+15  Parms: SM      M1      
 Compute Stats, Diag. #    219  SIhsnow   vol(   0 ): 1.432E+15  Parms: SM      M1      
 Compute Stats, Diag. #     83  sIceLoad  vol(   0 ): 1.432E+15  Parms: SM      U1      
 Compute Stats, Diag. #    223  SIuice    vol(   0 ): 1.405E+15  Parms: UU      M1      
 Compute Stats, Diag. #    224  SIvice    vol(   0 ): 1.403E+15  Parms: VV      M1      
 Compute Stats, Diag. #    225  SItaux    vol(   0 ): 1.405E+15  Parms: UU      U1      
 Compute Stats, Diag. #    226  SItauy    vol(   0 ): 1.403E+15  Parms: VV      U1      
 Compute Stats, Diag. #    285  SIareaN   vol(   0 ): 7.160E+15  Parms: SM      MX      
 Compute Stats, Diag. #    284  SIheffN   vol(   0 ): 7.160E+15  Parms: SM      MX      
 Compute Stats, Diag. #    286  SIhsnowN  vol(   0 ): 7.160E+15  Parms: SM      MX      
 Compute Stats, Diag. #    290  SIqSnow   vol(   0 ): 7.160E+15  Parms: SM      MX      
 Compute Stats, Diag. #    289  SIqIce    vol(   0 ): 2.864E+16  Parms: SM      MX      
 Compute Stats, Diag. #    291  SImeltPd  vol(   0 ): 7.160E+15  Parms: SM      MX      
 Compute Stats, Diag. #    288  SItIces   vol(   0 ): 7.160E+15  Parms: SM      MX      
 Compute Stats, Diag. #    292  SIiceAge  vol(   0 ): 7.160E+15  Parms: SM      MX      
 Compute Stats, Diag. #    293  SI_dArea  vol(   0 ): 7.160E+15  Parms: SM      MX      
 Compute Stats, Diag. #    294  SI_dHeff  vol(   0 ): 7.160E+15  Parms: SM      MX      
 Compute Stats, Diag. #    295  SI_dHsnw  vol(   0 ): 7.160E+15  Parms: SM      MX      
 Compute Stats, Diag. #    298  SI_dQSnw  vol(   0 ): 7.160E+15  Parms: SM      MX      
 Compute Stats, Diag. #    297  SI_dQIce  vol(   0 ): 2.864E+16  Parms: SM      MX      
 SEAICE_LSR: Residual Initial ipass,Uice,Vice=    1  2.66576061E-02  2.76448023E-02
 SEAICE_LSR (ipass=   1) iters,dU,Resid=    62  9.77876613E-05  9.26298000E-03
 SEAICE_LSR (ipass=   1) iters,dV,Resid=    62  4.25917237E-05  1.16156198E-02
 SEAICE_LSR: Residual Initial ipass,Uice,Vice=    2  2.37841711E-02  2.62344871E-02
 SEAICE_LSR (ipass=   2) iters,dU,Resid=    38  9.76685201E-05  9.74692069E-03
 SEAICE_LSR (ipass=   2) iters,dV,Resid=    38  4.46761843E-05  1.18770589E-02
 cg2d: Sum(rhs),rhsMax =   6.88431642150896E+01  2.89024112722616E-01
 Computing Diagnostic #    289  SIqIce       Counter:       1   Parms: SM      MX      
 Computing Diagnostic #    297  SI_dQIce     Counter:       1   Parms: SM      MX      
 Computing Diagnostic #    290  SIqSnow      Counter:       1   Parms: SM      MX      
 Computing Diagnostic #    298  SI_dQSnw     Counter:       1   Parms: SM      MX      
 cg2d: Sum(rhs),rhsMax =   6.94824930986854E+01  2.90041842354580E-01
 cg2d: Sum(rhs),rhsMax =   7.00858598325171E+01  2.91372929164994E-01
 cg2d: Sum(rhs),rhsMax =   7.06550711376608E+01  2.92928731667580E-01
 Computing Diagnostic #     86  oceQnet      Counter:       4   Parms: SM      U1      
 Computing Diagnostic #     87  oceQsw       Counter:       4   Parms: SM      U1      
 Computing Diagnostic #     84  oceFWflx     Counter:       4   Parms: SM      U1      
 Computing Diagnostic #     85  oceSflux     Counter:       4   Parms: SM      U1      
 Computing Diagnostic #     80  oceTAUX      Counter:       4   Parms: UU      U1      
           Vector  Mate for  oceTAUX      Diagnostic #     81  oceTAUY  exists 
 Computing Diagnostic #     81  oceTAUY      Counter:       4   Parms: VV      U1      
           Vector  Mate for  oceTAUY      Diagnostic #     80  oceTAUX  exists 
 Computing Diagnostic #     26  THETA        Counter:       4   Parms: SMR     MR      
 Computing Diagnostic #     27  SALT         Counter:       4   Parms: SMR     MR      
 Computing Diagnostic #     30  UVEL         Counter:       4   Parms: UUR     MR      
           Vector  Mate for  UVEL         Diagnostic #     31  VVEL     exists 
 Computing Diagnostic #     31  VVEL         Counter:       4   Parms: VVR     MR      
           Vector  Mate for  VVEL         Diagnostic #     30  UVEL     exists 
 Computing Diagnostic #    214  SIarea       Counter:       4   Parms: SM      M1      
 Computing Diagnostic #    217  SIheff       Counter:       4   Parms: SM      M1      
 Computing Diagnostic #    219  SIhsnow      Counter:       4   Parms: SM      M1      
 Computing Diagnostic #     83  sIceLoad     Counter:       4   Parms: SM      U1      
 Computing Diagnostic #    223  SIuice       Counter:       4   Parms: UU      M1      
           Vector  Mate for  SIuice       Diagnostic #    224  SIvice   exists 
 Computing Diagnostic #    224  SIvice       Counter:       4   Parms: VV      M1      
           Vector  Mate for  SIvice       Diagnostic #    223  SIuice   exists 
 Computing Diagnostic #    225  SItaux       Counter:       4   Parms: UU      U1      
           Vector  Mate for  SItaux       Diagnostic #    226  SItauy   exists 
 Computing Diagnostic #    226  SItauy       Counter:       4   Parms: VV      U1      
           Vector  Mate for  SItauy       Diagnostic #    225  SItaux   exists 
 Computing Diagnostic #    285  SIareaN      Counter:       4   Parms: SM      MX      
 Computing Diagnostic #    284  SIheffN      Counter:       4   Parms: SM      MX      
 Computing Diagnostic #    286  SIhsnowN     Counter:       4   Parms: SM      MX      
 Computing Diagnostic #    290  SIqSnow      Counter:       4   Parms: SM      MX      
 Computing Diagnostic #    291  SImeltPd     Counter:       4   Parms: SM      MX      
 Computing Diagnostic #    288  SItIces      Counter:       4   Parms: SM      MX      
 Computing Diagnostic #    292  SIiceAge     Counter:       4   Parms: SM      MX      
 Computing Diagnostic #    293  SI_dArea     Counter:       4   Parms: SM      MX      
 Computing Diagnostic #    294  SI_dHeff     Counter:       4   Parms: SM      MX      
 Computing Diagnostic #    295  SI_dHsnw     Counter:       4   Parms: SM      MX      
 Computing Diagnostic #    298  SI_dQSnw     Counter:       4   Parms: SM      MX      
 Compute Stats, Diag. #    214  SIarea    vol(   0 ): 1.432E+15  Parms: SM      M1      
 Compute Stats, Diag. #    217  SIheff    vol(   0 ): 1.432E+15  Parms: SM      M1      
 Compute Stats, Diag. #    219  SIhsnow   vol(   0 ): 1.432E+15  Parms: SM      M1      
 Compute Stats, Diag. #     83  sIceLoad  vol(   0 ): 1.432E+15  Parms: SM      U1      
 Compute Stats, Diag. #    223  SIuice    vol(   0 ): 1.405E+15  Parms: UU      M1      
 Compute Stats, Diag. #    224  SIvice    vol(   0 ): 1.403E+15  Parms: VV      M1      
 Compute Stats, Diag. #    225  SItaux    vol(   0 ): 1.405E+15  Parms: UU      U1      
 Compute Stats, Diag. #    226  SItauy    vol(   0 ): 1.403E+15  Parms: VV      U1      
 Compute Stats, Diag. #    285  SIareaN   vol(   0 ): 7.160E+15  Parms: SM      MX      
 Compute Stats, Diag. #    284  SIheffN   vol(   0 ): 7.160E+15  Parms: SM      MX      
 Compute Stats, Diag. #    286  SIhsnowN  vol(   0 ): 7.160E+15  Parms: SM      MX      
 Compute Stats, Diag. #    290  SIqSnow   vol(   0 ): 7.160E+15  Parms: SM      MX      
 Compute Stats, Diag. #    289  SIqIce    vol(   0 ): 2.864E+16  Parms: SM      MX      
 Compute Stats, Diag. #    291  SImeltPd  vol(   0 ): 7.160E+15  Parms: SM      MX      
 Compute Stats, Diag. #    288  SItIces   vol(   0 ): 7.160E+15  Parms: SM      MX      
 Compute Stats, Diag. #    292  SIiceAge  vol(   0 ): 7.160E+15  Parms: SM      MX      
 Compute Stats, Diag. #    293  SI_dArea  vol(   0 ): 7.160E+15  Parms: SM      MX      
 Compute Stats, Diag. #    294  SI_dHeff  vol(   0 ): 7.160E+15  Parms: SM      MX      
 Compute Stats, Diag. #    295  SI_dHsnw  vol(   0 ): 7.160E+15  Parms: SM      MX      
 Compute Stats, Diag. #    298  SI_dQSnw  vol(   0 ): 7.160E+15  Parms: SM      MX      
 Compute Stats, Diag. #    297  SI_dQIce  vol(   0 ): 2.864E+16  Parms: SM      MX      
 cg2d: Sum(rhs),rhsMax =   7.11999653964517E+01  2.94593911357639E-01
 Computing Diagnostic #    289  SIqIce       Counter:       1   Parms: SM      MX      
 Computing Diagnostic #    297  SI_dQIce     Counter:       1   Parms: SM      MX      
 Computing Diagnostic #    290  SIqSnow      Counter:       1   Parms: SM      MX      
 Computing Diagnostic #    298  SI_dQSnw     Counter:       1   Parms: SM      MX      
 cg2d: Sum(rhs),rhsMax =   7.17114055976233E+01  2.96240841702793E-01
 cg2d: Sum(rhs),rhsMax =   7.21878495621848E+01  2.97731766151573E-01
 cg2d: Sum(rhs),rhsMax =   7.26281977090722E+01  2.98969538601138E-01
(PID.TID 0000.0001)      cg2d_init_res =   5.38087266606817E-01
(PID.TID 0000.0001)      cg2d_iters(min,last) =      -1      34
(PID.TID 0000.0001)      cg2d_last_res =   2.78084698997637E-05
(PID.TID 0000.0001) // =======================================================
(PID.TID 0000.0001) // Begin MONITOR dynamic field statistics
(PID.TID 0000.0001) // =======================================================
(PID.TID 0000.0001) %MON time_tsnumber                =                    32
(PID.TID 0000.0001) %MON time_secondsf                =   2.8800000000000E+04
(PID.TID 0000.0001) %MON dynstat_eta_max              =   1.0920317563467E+00
(PID.TID 0000.0001) %MON dynstat_eta_min              =  -3.8021134787865E+00
(PID.TID 0000.0001) %MON dynstat_eta_mean             =  -2.2974618526106E-03
(PID.TID 0000.0001) %MON dynstat_eta_sd               =   7.1935781691559E-01
(PID.TID 0000.0001) %MON dynstat_eta_del2             =   8.8315393779144E-05
(PID.TID 0000.0001) %MON dynstat_uvel_max             =   7.1163657899287E-01
(PID.TID 0000.0001) %MON dynstat_uvel_min             =  -1.1580492624609E+00
(PID.TID 0000.0001) %MON dynstat_uvel_mean            =   1.8696046997777E-03
(PID.TID 0000.0001) %MON dynstat_uvel_sd              =   2.1919832061987E-02
(PID.TID 0000.0001) %MON dynstat_uvel_del2            =   1.3463235132425E-05
(PID.TID 0000.0001) %MON dynstat_vvel_max             =   9.3801440280204E-01
(PID.TID 0000.0001) %MON dynstat_vvel_min             =  -9.3132587052446E-01
(PID.TID 0000.0001) %MON dynstat_vvel_mean            =   1.3805400285405E-03
(PID.TID 0000.0001) %MON dynstat_vvel_sd              =   2.3409501329923E-02
(PID.TID 0000.0001) %MON dynstat_vvel_del2            =   1.4458495514492E-05
(PID.TID 0000.0001) %MON dynstat_wvel_max             =   2.7995740865941E-03
(PID.TID 0000.0001) %MON dynstat_wvel_min             =  -3.9196997027583E-03
(PID.TID 0000.0001) %MON dynstat_wvel_mean            =   6.7810618787484E-08
(PID.TID 0000.0001) %MON dynstat_wvel_sd              =   3.5284948649923E-05
(PID.TID 0000.0001) %MON dynstat_wvel_del2            =   4.9611881336407E-08
(PID.TID 0000.0001) %MON dynstat_theta_max            =   3.2656024047225E+01
(PID.TID 0000.0001) %MON dynstat_theta_min            =  -2.0420414701773E+00
(PID.TID 0000.0001) %MON dynstat_theta_mean           =   3.5906014095952E+00
(PID.TID 0000.0001) %MON dynstat_theta_sd             =   4.4366084933800E+00
(PID.TID 0000.0001) %MON dynstat_theta_del2           =   1.0758218958314E-04
(PID.TID 0000.0001) %MON dynstat_salt_max             =   4.0711522966425E+01
(PID.TID 0000.0001) %MON dynstat_salt_min             =   1.8877744044196E+01
(PID.TID 0000.0001) %MON dynstat_salt_mean            =   3.4725672130560E+01
(PID.TID 0000.0001) %MON dynstat_salt_sd              =   3.7734912981833E-01
(PID.TID 0000.0001) %MON dynstat_salt_del2            =   2.6928824626912E-05
(PID.TID 0000.0001) %MON dynstat_sst_max              =   3.2656024047225E+01
(PID.TID 0000.0001) %MON dynstat_sst_min              =  -1.9405181957371E+00
(PID.TID 0000.0001) %MON dynstat_sst_mean             =   1.8497706658088E+01
(PID.TID 0000.0001) %MON dynstat_sst_sd               =   1.0103523855523E+01
(PID.TID 0000.0001) %MON dynstat_sst_del2             =   8.6503305066359E-04
(PID.TID 0000.0001) %MON dynstat_sss_max              =   3.9537414470478E+01
(PID.TID 0000.0001) %MON dynstat_sss_min              =   1.8877744044196E+01
(PID.TID 0000.0001) %MON dynstat_sss_mean             =   3.4685934043794E+01
(PID.TID 0000.0001) %MON dynstat_sss_sd               =   1.1273918101139E+00
(PID.TID 0000.0001) %MON dynstat_sss_del2             =   4.4175512622876E-04
(PID.TID 0000.0001) %MON forcing_qnet_max             =   2.6750440420611E+03
(PID.TID 0000.0001) %MON forcing_qnet_min             =  -8.5056969450977E+02
(PID.TID 0000.0001) %MON forcing_qnet_mean            =   2.9121453488199E+01
(PID.TID 0000.0001) %MON forcing_qnet_sd              =   1.9202468394001E+02
(PID.TID 0000.0001) %MON forcing_qnet_del2            =   5.3212331349993E-01
(PID.TID 0000.0001) %MON forcing_qsw_max              =   0.0000000000000E+00
(PID.TID 0000.0001) %MON forcing_qsw_min              =  -1.0931364195066E+02
(PID.TID 0000.0001) %MON forcing_qsw_mean             =  -1.6403720154772E+01
(PID.TID 0000.0001) %MON forcing_qsw_sd               =   2.5515183559149E+01
(PID.TID 0000.0001) %MON forcing_qsw_del2             =   2.0756486025197E-02
(PID.TID 0000.0001) %MON forcing_empmr_max            =   3.2796224113554E-03
(PID.TID 0000.0001) %MON forcing_empmr_min            =  -8.0753050744534E-02
(PID.TID 0000.0001) %MON forcing_empmr_mean           =   1.5926196882573E-05
(PID.TID 0000.0001) %MON forcing_empmr_sd             =   4.1472324048910E-04
(PID.TID 0000.0001) %MON forcing_empmr_del2           =   4.4550862938366E-06
(PID.TID 0000.0001) %MON forcing_fu_max               =   1.0992321005693E+00
(PID.TID 0000.0001) %MON forcing_fu_min               =  -9.8352124949414E-01
(PID.TID 0000.0001) %MON forcing_fu_mean              =   1.2284008906044E-02
(PID.TID 0000.0001) %MON forcing_fu_sd                =   1.1303309200796E-01
(PID.TID 0000.0001) %MON forcing_fu_del2              =   1.6911971311163E-04
(PID.TID 0000.0001) %MON forcing_fv_max               =   9.6016501270201E-01
(PID.TID 0000.0001) %MON forcing_fv_min               =  -7.0748987538851E-01
(PID.TID 0000.0001) %MON forcing_fv_mean              =  -5.8675810751104E-03
(PID.TID 0000.0001) %MON forcing_fv_sd                =   1.0723853461128E-01
(PID.TID 0000.0001) %MON forcing_fv_del2              =   1.4723714599064E-04
(PID.TID 0000.0001) %MON trAdv_CFL_u_max              =   1.8880723622987E-02
(PID.TID 0000.0001) %MON trAdv_CFL_v_max              =   1.7794473808757E-02
(PID.TID 0000.0001) %MON trAdv_CFL_w_max              =   5.5384603247799E-02
(PID.TID 0000.0001) %MON advcfl_uvel_max              =   1.9159827145251E-02
(PID.TID 0000.0001) %MON advcfl_vvel_max              =   1.6650492257077E-02
(PID.TID 0000.0001) %MON advcfl_wvel_max              =   5.6627782027011E-02
(PID.TID 0000.0001) %MON advcfl_W_hf_max              =   5.9527481023866E-02
(PID.TID 0000.0001) %MON pe_b_mean                    =   6.8069554525037E-04
(PID.TID 0000.0001) %MON ke_max                       =   6.3387980208447E-01
(PID.TID 0000.0001) %MON ke_mean                      =   4.9853414347228E-04
(PID.TID 0000.0001) %MON ke_vol                       =   1.3349970594031E+18
(PID.TID 0000.0001) %MON vort_r_min                   =  -3.2550566058477E-05
(PID.TID 0000.0001) %MON vort_r_max                   =   3.3044246279871E-05
(PID.TID 0000.0001) %MON vort_a_mean                  =  -1.9727864647440E-05
(PID.TID 0000.0001) %MON vort_a_sd                    =   7.4543345052867E-05
(PID.TID 0000.0001) %MON vort_p_mean                  =  -2.1760542983893E-05
(PID.TID 0000.0001) %MON vort_p_sd                    =   9.7244167048934E-05
(PID.TID 0000.0001) %MON surfExpan_theta_mean         =  -1.5020057710075E-06
(PID.TID 0000.0001) %MON surfExpan_salt_mean          =  -3.9378978309315E-07
(PID.TID 0000.0001) // =======================================================
(PID.TID 0000.0001) // End MONITOR dynamic field statistics
(PID.TID 0000.0001) // =======================================================
(PID.TID 0000.0001) // =======================================================
(PID.TID 0000.0001) // Begin MONITOR SEAICE statistics
(PID.TID 0000.0001) // =======================================================
(PID.TID 0000.0001) %MON seaice_tsnumber              =                    32
(PID.TID 0000.0001) %MON seaice_time_sec              =   2.8800000000000E+04
(PID.TID 0000.0001) %MON seaice_uice_max              =   6.9160677491457E-01
(PID.TID 0000.0001) %MON seaice_uice_min              =  -7.0996736078072E-01
(PID.TID 0000.0001) %MON seaice_uice_mean             =  -3.1057784577336E-03
(PID.TID 0000.0001) %MON seaice_uice_sd               =   1.5218243039568E-01
(PID.TID 0000.0001) %MON seaice_uice_del2             =   2.1265438766421E-04
(PID.TID 0000.0001) %MON seaice_vice_max              =   7.2806219870514E-01
(PID.TID 0000.0001) %MON seaice_vice_min              =  -9.1692854586163E-01
(PID.TID 0000.0001) %MON seaice_vice_mean             =  -7.6125792653986E-03
(PID.TID 0000.0001) %MON seaice_vice_sd               =   1.3593190638547E-01
(PID.TID 0000.0001) %MON seaice_vice_del2             =   1.8399732098030E-04
(PID.TID 0000.0001) %MON seaice_area_max              =   1.0000000000000E+00
(PID.TID 0000.0001) %MON seaice_area_min              =   0.0000000000000E+00
(PID.TID 0000.0001) %MON seaice_area_mean             =   7.1846955495009E-02
(PID.TID 0000.0001) %MON seaice_area_sd               =   2.3730329246882E-01
(PID.TID 0000.0001) %MON seaice_area_del2             =   4.1804809560873E-04
(PID.TID 0000.0001) %MON seaice_heff_max              =   2.5117052156342E+01
(PID.TID 0000.0001) %MON seaice_heff_min              =   0.0000000000000E+00
(PID.TID 0000.0001) %MON seaice_heff_mean             =   2.1672780156525E-01
(PID.TID 0000.0001) %MON seaice_heff_sd               =   1.0633490648947E+00
(PID.TID 0000.0001) %MON seaice_heff_del2             =   3.4361776495272E-03
(PID.TID 0000.0001) %MON seaice_hsnow_max             =   8.2956670866094E+00
(PID.TID 0000.0001) %MON seaice_hsnow_min             =   0.0000000000000E+00
(PID.TID 0000.0001) %MON seaice_hsnow_mean            =   2.4616744937940E-02
(PID.TID 0000.0001) %MON seaice_hsnow_sd              =   1.5496739158412E-01
(PID.TID 0000.0001) %MON seaice_hsnow_del2            =   1.0945869684444E-03
(PID.TID 0000.0001) // =======================================================
(PID.TID 0000.0001) // End MONITOR SEAICE statistics
(PID.TID 0000.0001) // =======================================================
 Computing Diagnostic #     86  oceQnet      Counter:       4   Parms: SM      U1      
 Computing Diagnostic #     87  oceQsw       Counter:       4   Parms: SM      U1      
 Computing Diagnostic #     84  oceFWflx     Counter:       4   Parms: SM      U1      
 Computing Diagnostic #     85  oceSflux     Counter:       4   Parms: SM      U1      
 Computing Diagnostic #     80  oceTAUX      Counter:       4   Parms: UU      U1      
           Vector  Mate for  oceTAUX      Diagnostic #     81  oceTAUY  exists 
 Computing Diagnostic #     81  oceTAUY      Counter:       4   Parms: VV      U1      
           Vector  Mate for  oceTAUY      Diagnostic #     80  oceTAUX  exists 
 Computing Diagnostic #     26  THETA        Counter:       4   Parms: SMR     MR      
 Computing Diagnostic #     27  SALT         Counter:       4   Parms: SMR     MR      
 Computing Diagnostic #     30  UVEL         Counter:       4   Parms: UUR     MR      
           Vector  Mate for  UVEL         Diagnostic #     31  VVEL     exists 
 Computing Diagnostic #     31  VVEL         Counter:       4   Parms: VVR     MR      
           Vector  Mate for  VVEL         Diagnostic #     30  UVEL     exists 
 Computing Diagnostic #    214  SIarea       Counter:       4   Parms: SM      M1      
 Computing Diagnostic #    217  SIheff       Counter:       4   Parms: SM      M1      
 Computing Diagnostic #    219  SIhsnow      Counter:       4   Parms: SM      M1      
 Computing Diagnostic #     83  sIceLoad     Counter:       4   Parms: SM      U1      
 Computing Diagnostic #    223  SIuice       Counter:       4   Parms: UU      M1      
           Vector  Mate for  SIuice       Diagnostic #    224  SIvice   exists 
 Computing Diagnostic #    224  SIvice       Counter:       4   Parms: VV      M1      
           Vector  Mate for  SIvice       Diagnostic #    223  SIuice   exists 
 Computing Diagnostic #    225  SItaux       Counter:       4   Parms: UU      U1      
           Vector  Mate for  SItaux       Diagnostic #    226  SItauy   exists 
 Computing Diagnostic #    226  SItauy       Counter:       4   Parms: VV      U1      
           Vector  Mate for  SItauy       Diagnostic #    225  SItaux   exists 
 Computing Diagnostic #    285  SIareaN      Counter:       4   Parms: SM      MX      
 Computing Diagnostic #    284  SIheffN      Counter:       4   Parms: SM      MX      
 Computing Diagnostic #    286  SIhsnowN     Counter:       4   Parms: SM      MX      
 Computing Diagnostic #    290  SIqSnow      Counter:       4   Parms: SM      MX      
 Computing Diagnostic #    291  SImeltPd     Counter:       4   Parms: SM      MX      
 Computing Diagnostic #    288  SItIces      Counter:       4   Parms: SM      MX      
 Computing Diagnostic #    292  SIiceAge     Counter:       4   Parms: SM      MX      
 Computing Diagnostic #    293  SI_dArea     Counter:       4   Parms: SM      MX      
 Computing Diagnostic #    294  SI_dHeff     Counter:       4   Parms: SM      MX      
 Computing Diagnostic #    295  SI_dHsnw     Counter:       4   Parms: SM      MX      
 Computing Diagnostic #    298  SI_dQSnw     Counter:       4   Parms: SM      MX      
 Compute Stats, Diag. #    214  SIarea    vol(   0 ): 1.432E+15  Parms: SM      M1      
 Compute Stats, Diag. #    217  SIheff    vol(   0 ): 1.432E+15  Parms: SM      M1      
 Compute Stats, Diag. #    219  SIhsnow   vol(   0 ): 1.432E+15  Parms: SM      M1      
 Compute Stats, Diag. #     83  sIceLoad  vol(   0 ): 1.432E+15  Parms: SM      U1      
 Compute Stats, Diag. #    223  SIuice    vol(   0 ): 1.405E+15  Parms: UU      M1      
 Compute Stats, Diag. #    224  SIvice    vol(   0 ): 1.403E+15  Parms: VV      M1      
 Compute Stats, Diag. #    225  SItaux    vol(   0 ): 1.405E+15  Parms: UU      U1      
 Compute Stats, Diag. #    226  SItauy    vol(   0 ): 1.403E+15  Parms: VV      U1      
 Compute Stats, Diag. #    285  SIareaN   vol(   0 ): 7.160E+15  Parms: SM      MX      
 Compute Stats, Diag. #    284  SIheffN   vol(   0 ): 7.160E+15  Parms: SM      MX      
 Compute Stats, Diag. #    286  SIhsnowN  vol(   0 ): 7.160E+15  Parms: SM      MX      
 Compute Stats, Diag. #    290  SIqSnow   vol(   0 ): 7.160E+15  Parms: SM      MX      
 Compute Stats, Diag. #    289  SIqIce    vol(   0 ): 2.864E+16  Parms: SM      MX      
 Compute Stats, Diag. #    291  SImeltPd  vol(   0 ): 7.160E+15  Parms: SM      MX      
 Compute Stats, Diag. #    288  SItIces   vol(   0 ): 7.160E+15  Parms: SM      MX      
 Compute Stats, Diag. #    292  SIiceAge  vol(   0 ): 7.160E+15  Parms: SM      MX      
 Compute Stats, Diag. #    293  SI_dArea  vol(   0 ): 7.160E+15  Parms: SM      MX      
 Compute Stats, Diag. #    294  SI_dHeff  vol(   0 ): 7.160E+15  Parms: SM      MX      
 Compute Stats, Diag. #    295  SI_dHsnw  vol(   0 ): 7.160E+15  Parms: SM      MX      
 Compute Stats, Diag. #    298  SI_dQSnw  vol(   0 ): 7.160E+15  Parms: SM      MX      
 Compute Stats, Diag. #    297  SI_dQIce  vol(   0 ): 2.864E+16  Parms: SM      MX      
 SEAICE_LSR: Residual Initial ipass,Uice,Vice=    1  2.22556842E-02  2.09630420E-02
 SEAICE_LSR (ipass=   1) iters,dU,Resid=    44  9.92383373E-05  1.25269708E-02
 SEAICE_LSR (ipass=   1) iters,dV,Resid=    44  9.09662275E-05  8.90980240E-03
 SEAICE_LSR: Residual Initial ipass,Uice,Vice=    2  2.09740465E-02  1.95409804E-02
 SEAICE_LSR (ipass=   2) iters,dU,Resid=    26  9.95974327E-05  1.28047433E-02
 SEAICE_LSR (ipass=   2) iters,dV,Resid=    26  8.55645239E-05  9.38055688E-03
 cg2d: Sum(rhs),rhsMax =   7.30291912102220E+01  2.99882675922578E-01
 Computing Diagnostic #    289  SIqIce       Counter:       1   Parms: SM      MX      
 Computing Diagnostic #    297  SI_dQIce     Counter:       1   Parms: SM      MX      
 Computing Diagnostic #    290  SIqSnow      Counter:       1   Parms: SM      MX      
 Computing Diagnostic #    298  SI_dQSnw     Counter:       1   Parms: SM      MX      
 cg2d: Sum(rhs),rhsMax =   7.34044664012885E+01  3.00438752160498E-01
 cg2d: Sum(rhs),rhsMax =   7.37467025685296E+01  3.00643376175660E-01
 cg2d: Sum(rhs),rhsMax =   7.40607741264680E+01  3.00539209485509E-01
 Computing Diagnostic #     86  oceQnet      Counter:       4   Parms: SM      U1      
 Computing Diagnostic #     87  oceQsw       Counter:       4   Parms: SM      U1      
 Computing Diagnostic #     84  oceFWflx     Counter:       4   Parms: SM      U1      
 Computing Diagnostic #     85  oceSflux     Counter:       4   Parms: SM      U1      
 Computing Diagnostic #     80  oceTAUX      Counter:       4   Parms: UU      U1      
           Vector  Mate for  oceTAUX      Diagnostic #     81  oceTAUY  exists 
 Computing Diagnostic #     81  oceTAUY      Counter:       4   Parms: VV      U1      
           Vector  Mate for  oceTAUY      Diagnostic #     80  oceTAUX  exists 
 Computing Diagnostic #     26  THETA        Counter:       4   Parms: SMR     MR      
 Computing Diagnostic #     27  SALT         Counter:       4   Parms: SMR     MR      
 Computing Diagnostic #     30  UVEL         Counter:       4   Parms: UUR     MR      
           Vector  Mate for  UVEL         Diagnostic #     31  VVEL     exists 
 Computing Diagnostic #     31  VVEL         Counter:       4   Parms: VVR     MR      
           Vector  Mate for  VVEL         Diagnostic #     30  UVEL     exists 
 Computing Diagnostic #    214  SIarea       Counter:       4   Parms: SM      M1      
 Computing Diagnostic #    217  SIheff       Counter:       4   Parms: SM      M1      
 Computing Diagnostic #    219  SIhsnow      Counter:       4   Parms: SM      M1      
 Computing Diagnostic #     83  sIceLoad     Counter:       4   Parms: SM      U1      
 Computing Diagnostic #    223  SIuice       Counter:       4   Parms: UU      M1      
           Vector  Mate for  SIuice       Diagnostic #    224  SIvice   exists 
 Computing Diagnostic #    224  SIvice       Counter:       4   Parms: VV      M1      
           Vector  Mate for  SIvice       Diagnostic #    223  SIuice   exists 
 Computing Diagnostic #    225  SItaux       Counter:       4   Parms: UU      U1      
           Vector  Mate for  SItaux       Diagnostic #    226  SItauy   exists 
 Computing Diagnostic #    226  SItauy       Counter:       4   Parms: VV      U1      
           Vector  Mate for  SItauy       Diagnostic #    225  SItaux   exists 
 Computing Diagnostic #    285  SIareaN      Counter:       4   Parms: SM      MX      
 Computing Diagnostic #    284  SIheffN      Counter:       4   Parms: SM      MX      
 Computing Diagnostic #    286  SIhsnowN     Counter:       4   Parms: SM      MX      
 Computing Diagnostic #    290  SIqSnow      Counter:       4   Parms: SM      MX      
 Computing Diagnostic #    291  SImeltPd     Counter:       4   Parms: SM      MX      
 Computing Diagnostic #    288  SItIces      Counter:       4   Parms: SM      MX      
 Computing Diagnostic #    292  SIiceAge     Counter:       4   Parms: SM      MX      
 Computing Diagnostic #    293  SI_dArea     Counter:       4   Parms: SM      MX      
 Computing Diagnostic #    294  SI_dHeff     Counter:       4   Parms: SM      MX      
 Computing Diagnostic #    295  SI_dHsnw     Counter:       4   Parms: SM      MX      
 Computing Diagnostic #    298  SI_dQSnw     Counter:       4   Parms: SM      MX      
 Compute Stats, Diag. #    214  SIarea    vol(   0 ): 1.432E+15  Parms: SM      M1      
 Compute Stats, Diag. #    217  SIheff    vol(   0 ): 1.432E+15  Parms: SM      M1      
 Compute Stats, Diag. #    219  SIhsnow   vol(   0 ): 1.432E+15  Parms: SM      M1      
 Compute Stats, Diag. #     83  sIceLoad  vol(   0 ): 1.432E+15  Parms: SM      U1      
 Compute Stats, Diag. #    223  SIuice    vol(   0 ): 1.405E+15  Parms: UU      M1      
 Compute Stats, Diag. #    224  SIvice    vol(   0 ): 1.403E+15  Parms: VV      M1      
 Compute Stats, Diag. #    225  SItaux    vol(   0 ): 1.405E+15  Parms: UU      U1      
 Compute Stats, Diag. #    226  SItauy    vol(   0 ): 1.403E+15  Parms: VV      U1      
 Compute Stats, Diag. #    285  SIareaN   vol(   0 ): 7.160E+15  Parms: SM      MX      
 Compute Stats, Diag. #    284  SIheffN   vol(   0 ): 7.160E+15  Parms: SM      MX      
 Compute Stats, Diag. #    286  SIhsnowN  vol(   0 ): 7.160E+15  Parms: SM      MX      
 Compute Stats, Diag. #    290  SIqSnow   vol(   0 ): 7.160E+15  Parms: SM      MX      
 Compute Stats, Diag. #    289  SIqIce    vol(   0 ): 2.864E+16  Parms: SM      MX      
 Compute Stats, Diag. #    291  SImeltPd  vol(   0 ): 7.160E+15  Parms: SM      MX      
 Compute Stats, Diag. #    288  SItIces   vol(   0 ): 7.160E+15  Parms: SM      MX      
 Compute Stats, Diag. #    292  SIiceAge  vol(   0 ): 7.160E+15  Parms: SM      MX      
 Compute Stats, Diag. #    293  SI_dArea  vol(   0 ): 7.160E+15  Parms: SM      MX      
 Compute Stats, Diag. #    294  SI_dHeff  vol(   0 ): 7.160E+15  Parms: SM      MX      
 Compute Stats, Diag. #    295  SI_dHsnw  vol(   0 ): 7.160E+15  Parms: SM      MX      
 Compute Stats, Diag. #    298  SI_dQSnw  vol(   0 ): 7.160E+15  Parms: SM      MX      
 Compute Stats, Diag. #    297  SI_dQIce  vol(   0 ): 2.864E+16  Parms: SM      MX      
 cg2d: Sum(rhs),rhsMax =   7.43443706908006E+01  3.00194105892497E-01
 Computing Diagnostic #    289  SIqIce       Counter:       1   Parms: SM      MX      
 Computing Diagnostic #    297  SI_dQIce     Counter:       1   Parms: SM      MX      
 Computing Diagnostic #    290  SIqSnow      Counter:       1   Parms: SM      MX      
 Computing Diagnostic #    298  SI_dQSnw     Counter:       1   Parms: SM      MX      
 cg2d: Sum(rhs),rhsMax =   7.45999979491962E+01  2.99688221070286E-01
 cg2d: Sum(rhs),rhsMax =   7.48404243619550E+01  2.99105241817802E-01
 cg2d: Sum(rhs),rhsMax =   7.50560894214348E+01  2.98524554354364E-01
(PID.TID 0000.0001)      cg2d_init_res =   4.63963776411067E-01
(PID.TID 0000.0001)      cg2d_iters(min,last) =      -1      33
(PID.TID 0000.0001)      cg2d_last_res =   2.41683193552918E-05
(PID.TID 0000.0001) // =======================================================
(PID.TID 0000.0001) // Begin MONITOR dynamic field statistics
(PID.TID 0000.0001) // =======================================================
(PID.TID 0000.0001) %MON time_tsnumber                =                    40
(PID.TID 0000.0001) %MON time_secondsf                =   3.6000000000000E+04
(PID.TID 0000.0001) %MON dynstat_eta_max              =   1.0841003716839E+00
(PID.TID 0000.0001) %MON dynstat_eta_min              =  -3.6195792823130E+00
(PID.TID 0000.0001) %MON dynstat_eta_mean             =  -2.3742638216443E-03
(PID.TID 0000.0001) %MON dynstat_eta_sd               =   7.1776566792433E-01
(PID.TID 0000.0001) %MON dynstat_eta_del2             =   8.4110701701574E-05
(PID.TID 0000.0001) %MON dynstat_uvel_max             =   6.5015272775248E-01
(PID.TID 0000.0001) %MON dynstat_uvel_min             =  -1.1198281349251E+00
(PID.TID 0000.0001) %MON dynstat_uvel_mean            =   1.8102152760180E-03
(PID.TID 0000.0001) %MON dynstat_uvel_sd              =   2.1789613555958E-02
(PID.TID 0000.0001) %MON dynstat_uvel_del2            =   1.3091060035763E-05
(PID.TID 0000.0001) %MON dynstat_vvel_max             =   9.2635931300945E-01
(PID.TID 0000.0001) %MON dynstat_vvel_min             =  -9.3004500287289E-01
(PID.TID 0000.0001) %MON dynstat_vvel_mean            =   1.4605933015229E-03
(PID.TID 0000.0001) %MON dynstat_vvel_sd              =   2.3253314697226E-02
(PID.TID 0000.0001) %MON dynstat_vvel_del2            =   1.3947331551135E-05
(PID.TID 0000.0001) %MON dynstat_wvel_max             =   2.8467418204448E-03
(PID.TID 0000.0001) %MON dynstat_wvel_min             =  -3.9581026538089E-03
(PID.TID 0000.0001) %MON dynstat_wvel_mean            =   6.0680786449719E-08
(PID.TID 0000.0001) %MON dynstat_wvel_sd              =   3.5828073424746E-05
(PID.TID 0000.0001) %MON dynstat_wvel_del2            =   5.2292767101045E-08
(PID.TID 0000.0001) %MON dynstat_theta_max            =   3.2661777951377E+01
(PID.TID 0000.0001) %MON dynstat_theta_min            =  -2.0420041016915E+00
(PID.TID 0000.0001) %MON dynstat_theta_mean           =   3.5905814657507E+00
(PID.TID 0000.0001) %MON dynstat_theta_sd             =   4.4365275921005E+00
(PID.TID 0000.0001) %MON dynstat_theta_del2           =   1.0691322676992E-04
(PID.TID 0000.0001) %MON dynstat_salt_max             =   4.0711522572818E+01
(PID.TID 0000.0001) %MON dynstat_salt_min             =   1.8886853803241E+01
(PID.TID 0000.0001) %MON dynstat_salt_mean            =   3.4725655840903E+01
(PID.TID 0000.0001) %MON dynstat_salt_sd              =   3.7727734352863E-01
(PID.TID 0000.0001) %MON dynstat_salt_del2            =   2.7163213779337E-05
(PID.TID 0000.0001) %MON dynstat_sst_max              =   3.2661777951377E+01
(PID.TID 0000.0001) %MON dynstat_sst_min              =  -1.9391987374694E+00
(PID.TID 0000.0001) %MON dynstat_sst_mean             =   1.8491090930077E+01
(PID.TID 0000.0001) %MON dynstat_sst_sd               =   1.0104892237144E+01
(PID.TID 0000.0001) %MON dynstat_sst_del2             =   8.6079919739340E-04
(PID.TID 0000.0001) %MON dynstat_sss_max              =   3.9503677319212E+01
(PID.TID 0000.0001) %MON dynstat_sss_min              =   1.8886853803241E+01
(PID.TID 0000.0001) %MON dynstat_sss_mean             =   3.4683850911867E+01
(PID.TID 0000.0001) %MON dynstat_sss_sd               =   1.1245424187688E+00
(PID.TID 0000.0001) %MON dynstat_sss_del2             =   4.7967661037441E-04
(PID.TID 0000.0001) %MON forcing_qnet_max             =   2.3342465820312E+03
(PID.TID 0000.0001) %MON forcing_qnet_min             =  -9.9714217905119E+02
(PID.TID 0000.0001) %MON forcing_qnet_mean            =   5.1486632906537E+01
(PID.TID 0000.0001) %MON forcing_qnet_sd              =   1.8393731654537E+02
(PID.TID 0000.0001) %MON forcing_qnet_del2            =   4.7870301417103E-01
(PID.TID 0000.0001) %MON forcing_qsw_max              =   0.0000000000000E+00
(PID.TID 0000.0001) %MON forcing_qsw_min              =  -1.0905062298206E+02
(PID.TID 0000.0001) %MON forcing_qsw_mean             =  -1.4206903002616E+01
(PID.TID 0000.0001) %MON forcing_qsw_sd               =   2.5785858682410E+01
(PID.TID 0000.0001) %MON forcing_qsw_del2             =   1.9170310604176E-02
(PID.TID 0000.0001) %MON forcing_empmr_max            =   3.5430036950856E-03
(PID.TID 0000.0001) %MON forcing_empmr_min            =  -1.2421041727066E-01
(PID.TID 0000.0001) %MON forcing_empmr_mean           =   7.8000196487045E-06
(PID.TID 0000.0001) %MON forcing_empmr_sd             =   5.0154990700490E-04
(PID.TID 0000.0001) %MON forcing_empmr_del2           =   7.0977646945480E-06
(PID.TID 0000.0001) %MON forcing_fu_max               =   1.0653226512986E+00
(PID.TID 0000.0001) %MON forcing_fu_min               =  -9.2063892420148E-01
(PID.TID 0000.0001) %MON forcing_fu_mean              =   1.2610063676678E-02
(PID.TID 0000.0001) %MON forcing_fu_sd                =   1.1116840522008E-01
(PID.TID 0000.0001) %MON forcing_fu_del2              =   1.6181570644331E-04
(PID.TID 0000.0001) %MON forcing_fv_max               =   8.5698307006912E-01
(PID.TID 0000.0001) %MON forcing_fv_min               =  -6.7060743568837E-01
(PID.TID 0000.0001) %MON forcing_fv_mean              =  -7.1793804411727E-03
(PID.TID 0000.0001) %MON forcing_fv_sd                =   1.0634929281386E-01
(PID.TID 0000.0001) %MON forcing_fv_del2              =   1.3986412016882E-04
(PID.TID 0000.0001) %MON trAdv_CFL_u_max              =   1.8265439373127E-02
(PID.TID 0000.0001) %MON trAdv_CFL_v_max              =   1.7574850675967E-02
(PID.TID 0000.0001) %MON trAdv_CFL_w_max              =   6.4997449670360E-02
(PID.TID 0000.0001) %MON advcfl_uvel_max              =   1.8527461821408E-02
(PID.TID 0000.0001) %MON advcfl_vvel_max              =   1.6443605260707E-02
(PID.TID 0000.0001) %MON advcfl_wvel_max              =   6.2122113074166E-02
(PID.TID 0000.0001) %MON advcfl_W_hf_max              =   6.4174663695463E-02
(PID.TID 0000.0001) %MON pe_b_mean                    =   6.7768624148133E-04
(PID.TID 0000.0001) %MON ke_max                       =   5.8846476083480E-01
(PID.TID 0000.0001) %MON ke_mean                      =   4.9227955408942E-04
(PID.TID 0000.0001) %MON ke_vol                       =   1.3349970293624E+18
(PID.TID 0000.0001) %MON vort_r_min                   =  -3.1119921752080E-05
(PID.TID 0000.0001) %MON vort_r_max                   =   3.1535030066454E-05
(PID.TID 0000.0001) %MON vort_a_mean                  =  -1.9727864647440E-05
(PID.TID 0000.0001) %MON vort_a_sd                    =   7.4543339647452E-05
(PID.TID 0000.0001) %MON vort_p_mean                  =  -2.1760543824540E-05
(PID.TID 0000.0001) %MON vort_p_sd                    =   9.7244540882560E-05
(PID.TID 0000.0001) %MON surfExpan_theta_mean         =  -1.6949546684695E-06
(PID.TID 0000.0001) %MON surfExpan_salt_mean          =  -3.0928070830507E-07
(PID.TID 0000.0001) // =======================================================
(PID.TID 0000.0001) // End MONITOR dynamic field statistics
(PID.TID 0000.0001) // =======================================================
(PID.TID 0000.0001) // =======================================================
(PID.TID 0000.0001) // Begin MONITOR SEAICE statistics
(PID.TID 0000.0001) // =======================================================
(PID.TID 0000.0001) %MON seaice_tsnumber              =                    40
(PID.TID 0000.0001) %MON seaice_time_sec              =   3.6000000000000E+04
(PID.TID 0000.0001) %MON seaice_uice_max              =   6.5229506362621E-01
(PID.TID 0000.0001) %MON seaice_uice_min              =  -6.5013670588028E-01
(PID.TID 0000.0001) %MON seaice_uice_mean             =  -3.1264449028863E-03
(PID.TID 0000.0001) %MON seaice_uice_sd               =   1.4811527662876E-01
(PID.TID 0000.0001) %MON seaice_uice_del2             =   2.0790936936621E-04
(PID.TID 0000.0001) %MON seaice_vice_max              =   7.2216286743766E-01
(PID.TID 0000.0001) %MON seaice_vice_min              =  -9.1413198417717E-01
(PID.TID 0000.0001) %MON seaice_vice_mean             =  -1.1135938808102E-02
(PID.TID 0000.0001) %MON seaice_vice_sd               =   1.3519280145361E-01
(PID.TID 0000.0001) %MON seaice_vice_del2             =   1.8107388901057E-04
(PID.TID 0000.0001) %MON seaice_area_max              =   1.0000000000000E+00
(PID.TID 0000.0001) %MON seaice_area_min              =   0.0000000000000E+00
(PID.TID 0000.0001) %MON seaice_area_mean             =   7.1595784276646E-02
(PID.TID 0000.0001) %MON seaice_area_sd               =   2.3714413140771E-01
(PID.TID 0000.0001) %MON seaice_area_del2             =   4.0722738843656E-04
(PID.TID 0000.0001) %MON seaice_heff_max              =   2.5110674788472E+01
(PID.TID 0000.0001) %MON seaice_heff_min              =   0.0000000000000E+00
(PID.TID 0000.0001) %MON seaice_heff_mean             =   2.1682237677209E-01
(PID.TID 0000.0001) %MON seaice_heff_sd               =   1.0635774280081E+00
(PID.TID 0000.0001) %MON seaice_heff_del2             =   3.3520084902815E-03
(PID.TID 0000.0001) %MON seaice_hsnow_max             =   8.2935626398699E+00
(PID.TID 0000.0001) %MON seaice_hsnow_min             =   0.0000000000000E+00
(PID.TID 0000.0001) %MON seaice_hsnow_mean            =   2.4610746400099E-02
(PID.TID 0000.0001) %MON seaice_hsnow_sd              =   1.5440934336206E-01
(PID.TID 0000.0001) %MON seaice_hsnow_del2            =   1.0663188961061E-03
(PID.TID 0000.0001) // =======================================================
(PID.TID 0000.0001) // End MONITOR SEAICE statistics
(PID.TID 0000.0001) // =======================================================
 Computing Diagnostic #     86  oceQnet      Counter:       4   Parms: SM      U1      
 Computing Diagnostic #     87  oceQsw       Counter:       4   Parms: SM      U1      
 Computing Diagnostic #     84  oceFWflx     Counter:       4   Parms: SM      U1      
 Computing Diagnostic #     85  oceSflux     Counter:       4   Parms: SM      U1      
 Computing Diagnostic #     80  oceTAUX      Counter:       4   Parms: UU      U1      
           Vector  Mate for  oceTAUX      Diagnostic #     81  oceTAUY  exists 
 Computing Diagnostic #     81  oceTAUY      Counter:       4   Parms: VV      U1      
           Vector  Mate for  oceTAUY      Diagnostic #     80  oceTAUX  exists 
 Computing Diagnostic #     26  THETA        Counter:       4   Parms: SMR     MR      
 Computing Diagnostic #     27  SALT         Counter:       4   Parms: SMR     MR      
 Computing Diagnostic #     30  UVEL         Counter:       4   Parms: UUR     MR      
           Vector  Mate for  UVEL         Diagnostic #     31  VVEL     exists 
 Computing Diagnostic #     31  VVEL         Counter:       4   Parms: VVR     MR      
           Vector  Mate for  VVEL         Diagnostic #     30  UVEL     exists 
 Computing Diagnostic #    214  SIarea       Counter:       4   Parms: SM      M1      
 Computing Diagnostic #    217  SIheff       Counter:       4   Parms: SM      M1      
 Computing Diagnostic #    219  SIhsnow      Counter:       4   Parms: SM      M1      
 Computing Diagnostic #     83  sIceLoad     Counter:       4   Parms: SM      U1      
 Computing Diagnostic #    223  SIuice       Counter:       4   Parms: UU      M1      
           Vector  Mate for  SIuice       Diagnostic #    224  SIvice   exists 
 Computing Diagnostic #    224  SIvice       Counter:       4   Parms: VV      M1      
           Vector  Mate for  SIvice       Diagnostic #    223  SIuice   exists 
 Computing Diagnostic #    225  SItaux       Counter:       4   Parms: UU      U1      
           Vector  Mate for  SItaux       Diagnostic #    226  SItauy   exists 
 Computing Diagnostic #    226  SItauy       Counter:       4   Parms: VV      U1      
           Vector  Mate for  SItauy       Diagnostic #    225  SItaux   exists 
 Computing Diagnostic #    285  SIareaN      Counter:       4   Parms: SM      MX      
 Computing Diagnostic #    284  SIheffN      Counter:       4   Parms: SM      MX      
 Computing Diagnostic #    286  SIhsnowN     Counter:       4   Parms: SM      MX      
 Computing Diagnostic #    290  SIqSnow      Counter:       4   Parms: SM      MX      
 Computing Diagnostic #    291  SImeltPd     Counter:       4   Parms: SM      MX      
 Computing Diagnostic #    288  SItIces      Counter:       4   Parms: SM      MX      
 Computing Diagnostic #    292  SIiceAge     Counter:       4   Parms: SM      MX      
 Computing Diagnostic #    293  SI_dArea     Counter:       4   Parms: SM      MX      
 Computing Diagnostic #    294  SI_dHeff     Counter:       4   Parms: SM      MX      
 Computing Diagnostic #    295  SI_dHsnw     Counter:       4   Parms: SM      MX      
 Computing Diagnostic #    298  SI_dQSnw     Counter:       4   Parms: SM      MX      
 Compute Stats, Diag. #    214  SIarea    vol(   0 ): 1.432E+15  Parms: SM      M1      
 Compute Stats, Diag. #    217  SIheff    vol(   0 ): 1.432E+15  Parms: SM      M1      
 Compute Stats, Diag. #    219  SIhsnow   vol(   0 ): 1.432E+15  Parms: SM      M1      
 Compute Stats, Diag. #     83  sIceLoad  vol(   0 ): 1.432E+15  Parms: SM      U1      
 Compute Stats, Diag. #    223  SIuice    vol(   0 ): 1.405E+15  Parms: UU      M1      
 Compute Stats, Diag. #    224  SIvice    vol(   0 ): 1.403E+15  Parms: VV      M1      
 Compute Stats, Diag. #    225  SItaux    vol(   0 ): 1.405E+15  Parms: UU      U1      
 Compute Stats, Diag. #    226  SItauy    vol(   0 ): 1.403E+15  Parms: VV      U1      
 Compute Stats, Diag. #    285  SIareaN   vol(   0 ): 7.160E+15  Parms: SM      MX      
 Compute Stats, Diag. #    284  SIheffN   vol(   0 ): 7.160E+15  Parms: SM      MX      
 Compute Stats, Diag. #    286  SIhsnowN  vol(   0 ): 7.160E+15  Parms: SM      MX      
 Compute Stats, Diag. #    290  SIqSnow   vol(   0 ): 7.160E+15  Parms: SM      MX      
 Compute Stats, Diag. #    289  SIqIce    vol(   0 ): 2.864E+16  Parms: SM      MX      
 Compute Stats, Diag. #    291  SImeltPd  vol(   0 ): 7.160E+15  Parms: SM      MX      
 Compute Stats, Diag. #    288  SItIces   vol(   0 ): 7.160E+15  Parms: SM      MX      
 Compute Stats, Diag. #    292  SIiceAge  vol(   0 ): 7.160E+15  Parms: SM      MX      
 Compute Stats, Diag. #    293  SI_dArea  vol(   0 ): 7.160E+15  Parms: SM      MX      
 Compute Stats, Diag. #    294  SI_dHeff  vol(   0 ): 7.160E+15  Parms: SM      MX      
 Compute Stats, Diag. #    295  SI_dHsnw  vol(   0 ): 7.160E+15  Parms: SM      MX      
 Compute Stats, Diag. #    298  SI_dQSnw  vol(   0 ): 7.160E+15  Parms: SM      MX      
 Compute Stats, Diag. #    297  SI_dQIce  vol(   0 ): 2.864E+16  Parms: SM      MX      
 SEAICE_LSR: Residual Initial ipass,Uice,Vice=    1  2.02269497E-02  1.84531125E-02
 SEAICE_LSR (ipass=   1) iters,dU,Resid=    44  9.97115325E-05  1.12640950E-02
 SEAICE_LSR (ipass=   1) iters,dV,Resid=    44  7.33684827E-05  6.34516309E-03
 SEAICE_LSR: Residual Initial ipass,Uice,Vice=    2  1.93169944E-02  1.69496219E-02
 SEAICE_LSR (ipass=   2) iters,dU,Resid=    28  9.94325767E-05  1.15855162E-02
 SEAICE_LSR (ipass=   2) iters,dV,Resid=    28  7.35876241E-05  6.81632662E-03
 cg2d: Sum(rhs),rhsMax =   7.52528652396309E+01  2.98010578037170E-01
 Computing Diagnostic #    289  SIqIce       Counter:       1   Parms: SM      MX      
 Computing Diagnostic #    297  SI_dQIce     Counter:       1   Parms: SM      MX      
 Computing Diagnostic #    290  SIqSnow      Counter:       1   Parms: SM      MX      
 Computing Diagnostic #    298  SI_dQSnw     Counter:       1   Parms: SM      MX      
 cg2d: Sum(rhs),rhsMax =   7.54341270534819E+01  2.97609770968710E-01
 cg2d: Sum(rhs),rhsMax =   7.55980938362436E+01  2.97348888977694E-01
 cg2d: Sum(rhs),rhsMax =   7.57587235259111E+01  2.97236081978748E-01
 Computing Diagnostic #     86  oceQnet      Counter:       4   Parms: SM      U1      
 Computing Diagnostic #     87  oceQsw       Counter:       4   Parms: SM      U1      
 Computing Diagnostic #     84  oceFWflx     Counter:       4   Parms: SM      U1      
 Computing Diagnostic #     85  oceSflux     Counter:       4   Parms: SM      U1      
 Computing Diagnostic #     80  oceTAUX      Counter:       4   Parms: UU      U1      
           Vector  Mate for  oceTAUX      Diagnostic #     81  oceTAUY  exists 
 Computing Diagnostic #     81  oceTAUY      Counter:       4   Parms: VV      U1      
           Vector  Mate for  oceTAUY      Diagnostic #     80  oceTAUX  exists 
 Computing Diagnostic #     26  THETA        Counter:       4   Parms: SMR     MR      
 Computing Diagnostic #     27  SALT         Counter:       4   Parms: SMR     MR      
 Computing Diagnostic #     30  UVEL         Counter:       4   Parms: UUR     MR      
           Vector  Mate for  UVEL         Diagnostic #     31  VVEL     exists 
 Computing Diagnostic #     31  VVEL         Counter:       4   Parms: VVR     MR      
           Vector  Mate for  VVEL         Diagnostic #     30  UVEL     exists 
 Computing Diagnostic #    214  SIarea       Counter:       4   Parms: SM      M1      
 Computing Diagnostic #    217  SIheff       Counter:       4   Parms: SM      M1      
 Computing Diagnostic #    219  SIhsnow      Counter:       4   Parms: SM      M1      
 Computing Diagnostic #     83  sIceLoad     Counter:       4   Parms: SM      U1      
 Computing Diagnostic #    223  SIuice       Counter:       4   Parms: UU      M1      
           Vector  Mate for  SIuice       Diagnostic #    224  SIvice   exists 
 Computing Diagnostic #    224  SIvice       Counter:       4   Parms: VV      M1      
           Vector  Mate for  SIvice       Diagnostic #    223  SIuice   exists 
 Computing Diagnostic #    225  SItaux       Counter:       4   Parms: UU      U1      
           Vector  Mate for  SItaux       Diagnostic #    226  SItauy   exists 
 Computing Diagnostic #    226  SItauy       Counter:       4   Parms: VV      U1      
           Vector  Mate for  SItauy       Diagnostic #    225  SItaux   exists 
 Computing Diagnostic #    285  SIareaN      Counter:       4   Parms: SM      MX      
 Computing Diagnostic #    284  SIheffN      Counter:       4   Parms: SM      MX      
 Computing Diagnostic #    286  SIhsnowN     Counter:       4   Parms: SM      MX      
 Computing Diagnostic #    290  SIqSnow      Counter:       4   Parms: SM      MX      
 Computing Diagnostic #    291  SImeltPd     Counter:       4   Parms: SM      MX      
 Computing Diagnostic #    288  SItIces      Counter:       4   Parms: SM      MX      
 Computing Diagnostic #    292  SIiceAge     Counter:       4   Parms: SM      MX      
 Computing Diagnostic #    293  SI_dArea     Counter:       4   Parms: SM      MX      
 Computing Diagnostic #    294  SI_dHeff     Counter:       4   Parms: SM      MX      
 Computing Diagnostic #    295  SI_dHsnw     Counter:       4   Parms: SM      MX      
 Computing Diagnostic #    298  SI_dQSnw     Counter:       4   Parms: SM      MX      
 Compute Stats, Diag. #    214  SIarea    vol(   0 ): 1.432E+15  Parms: SM      M1      
 Compute Stats, Diag. #    217  SIheff    vol(   0 ): 1.432E+15  Parms: SM      M1      
 Compute Stats, Diag. #    219  SIhsnow   vol(   0 ): 1.432E+15  Parms: SM      M1      
 Compute Stats, Diag. #     83  sIceLoad  vol(   0 ): 1.432E+15  Parms: SM      U1      
 Compute Stats, Diag. #    223  SIuice    vol(   0 ): 1.405E+15  Parms: UU      M1      
 Compute Stats, Diag. #    224  SIvice    vol(   0 ): 1.403E+15  Parms: VV      M1      
 Compute Stats, Diag. #    225  SItaux    vol(   0 ): 1.405E+15  Parms: UU      U1      
 Compute Stats, Diag. #    226  SItauy    vol(   0 ): 1.403E+15  Parms: VV      U1      
 Compute Stats, Diag. #    285  SIareaN   vol(   0 ): 7.160E+15  Parms: SM      MX      
 Compute Stats, Diag. #    284  SIheffN   vol(   0 ): 7.160E+15  Parms: SM      MX      
 Compute Stats, Diag. #    286  SIhsnowN  vol(   0 ): 7.160E+15  Parms: SM      MX      
 Compute Stats, Diag. #    290  SIqSnow   vol(   0 ): 7.160E+15  Parms: SM      MX      
 Compute Stats, Diag. #    289  SIqIce    vol(   0 ): 2.864E+16  Parms: SM      MX      
 Compute Stats, Diag. #    291  SImeltPd  vol(   0 ): 7.160E+15  Parms: SM      MX      
 Compute Stats, Diag. #    288  SItIces   vol(   0 ): 7.160E+15  Parms: SM      MX      
 Compute Stats, Diag. #    292  SIiceAge  vol(   0 ): 7.160E+15  Parms: SM      MX      
 Compute Stats, Diag. #    293  SI_dArea  vol(   0 ): 7.160E+15  Parms: SM      MX      
 Compute Stats, Diag. #    294  SI_dHeff  vol(   0 ): 7.160E+15  Parms: SM      MX      
 Compute Stats, Diag. #    295  SI_dHsnw  vol(   0 ): 7.160E+15  Parms: SM      MX      
 Compute Stats, Diag. #    298  SI_dQSnw  vol(   0 ): 7.160E+15  Parms: SM      MX      
 Compute Stats, Diag. #    297  SI_dQIce  vol(   0 ): 2.864E+16  Parms: SM      MX      
 cg2d: Sum(rhs),rhsMax =   7.59018496240964E+01  2.97261644553889E-01
 Computing Diagnostic #    289  SIqIce       Counter:       1   Parms: SM      MX      
 Computing Diagnostic #    297  SI_dQIce     Counter:       1   Parms: SM      MX      
 Computing Diagnostic #    290  SIqSnow      Counter:       1   Parms: SM      MX      
 Computing Diagnostic #    298  SI_dQSnw     Counter:       1   Parms: SM      MX      
 cg2d: Sum(rhs),rhsMax =   7.60275343923435E+01  2.97403004934789E-01
 cg2d: Sum(rhs),rhsMax =   7.61353413392312E+01  2.97625020595201E-01
 cg2d: Sum(rhs),rhsMax =   7.62241031428685E+01  2.97896019838132E-01
(PID.TID 0000.0001)      cg2d_init_res =   3.98344600228600E-01
(PID.TID 0000.0001)      cg2d_iters(min,last) =      -1      31
(PID.TID 0000.0001)      cg2d_last_res =   2.31616874587875E-05
(PID.TID 0000.0001) // =======================================================
(PID.TID 0000.0001) // Begin MONITOR dynamic field statistics
(PID.TID 0000.0001) // =======================================================
(PID.TID 0000.0001) %MON time_tsnumber                =                    48
(PID.TID 0000.0001) %MON time_secondsf                =   4.3200000000000E+04
(PID.TID 0000.0001) %MON dynstat_eta_max              =   1.0844523245204E+00
(PID.TID 0000.0001) %MON dynstat_eta_min              =  -3.4033618594829E+00
(PID.TID 0000.0001) %MON dynstat_eta_mean             =  -2.4112118260416E-03
(PID.TID 0000.0001) %MON dynstat_eta_sd               =   7.1390824457267E-01
(PID.TID 0000.0001) %MON dynstat_eta_del2             =   8.3945930333251E-05
(PID.TID 0000.0001) %MON dynstat_uvel_max             =   7.5720074517380E-01
(PID.TID 0000.0001) %MON dynstat_uvel_min             =  -1.0782572337067E+00
(PID.TID 0000.0001) %MON dynstat_uvel_mean            =   1.7638572015010E-03
(PID.TID 0000.0001) %MON dynstat_uvel_sd              =   2.1699387126074E-02
(PID.TID 0000.0001) %MON dynstat_uvel_del2            =   1.2951124694041E-05
(PID.TID 0000.0001) %MON dynstat_vvel_max             =   9.6699343837666E-01
(PID.TID 0000.0001) %MON dynstat_vvel_min             =  -9.2797008225984E-01
(PID.TID 0000.0001) %MON dynstat_vvel_mean            =   1.5353700873855E-03
(PID.TID 0000.0001) %MON dynstat_vvel_sd              =   2.3108997463602E-02
(PID.TID 0000.0001) %MON dynstat_vvel_del2            =   1.3632173073241E-05
(PID.TID 0000.0001) %MON dynstat_wvel_max             =   3.3118656528634E-03
(PID.TID 0000.0001) %MON dynstat_wvel_min             =  -3.3949555214479E-03
(PID.TID 0000.0001) %MON dynstat_wvel_mean            =   6.4479786943986E-08
(PID.TID 0000.0001) %MON dynstat_wvel_sd              =   3.5345868031662E-05
(PID.TID 0000.0001) %MON dynstat_wvel_del2            =   5.3393496651996E-08
(PID.TID 0000.0001) %MON dynstat_theta_max            =   3.2662965388372E+01
(PID.TID 0000.0001) %MON dynstat_theta_min            =  -2.0419796599738E+00
(PID.TID 0000.0001) %MON dynstat_theta_mean           =   3.5905555009944E+00
(PID.TID 0000.0001) %MON dynstat_theta_sd             =   4.4364220231523E+00
(PID.TID 0000.0001) %MON dynstat_theta_del2           =   1.0624063303923E-04
(PID.TID 0000.0001) %MON dynstat_salt_max             =   4.0711522150680E+01
(PID.TID 0000.0001) %MON dynstat_salt_min             =   1.8892623949161E+01
(PID.TID 0000.0001) %MON dynstat_salt_mean            =   3.4725643855060E+01
(PID.TID 0000.0001) %MON dynstat_salt_sd              =   3.7722401869855E-01
(PID.TID 0000.0001) %MON dynstat_salt_del2            =   2.7750783635439E-05
(PID.TID 0000.0001) %MON dynstat_sst_max              =   3.2662965388372E+01
(PID.TID 0000.0001) %MON dynstat_sst_min              =  -1.9206432720357E+00
(PID.TID 0000.0001) %MON dynstat_sst_mean             =   1.8484422795498E+01
(PID.TID 0000.0001) %MON dynstat_sst_sd               =   1.0105343964877E+01
(PID.TID 0000.0001) %MON dynstat_sst_del2             =   8.5592092462070E-04
(PID.TID 0000.0001) %MON dynstat_sss_max              =   3.9473497604913E+01
(PID.TID 0000.0001) %MON dynstat_sss_min              =   1.8892623949161E+01
(PID.TID 0000.0001) %MON dynstat_sss_mean             =   3.4683270239993E+01
(PID.TID 0000.0001) %MON dynstat_sss_sd               =   1.1236531714662E+00
(PID.TID 0000.0001) %MON dynstat_sss_del2             =   5.4261129349473E-04
(PID.TID 0000.0001) %MON forcing_qnet_max             =   1.5948551025391E+03
(PID.TID 0000.0001) %MON forcing_qnet_min             =  -1.3998703693933E+03
(PID.TID 0000.0001) %MON forcing_qnet_mean            =   5.6090881815186E+01
(PID.TID 0000.0001) %MON forcing_qnet_sd              =   1.7577660544503E+02
(PID.TID 0000.0001) %MON forcing_qnet_del2            =   4.5473874829172E-01
(PID.TID 0000.0001) %MON forcing_qsw_max              =   0.0000000000000E+00
(PID.TID 0000.0001) %MON forcing_qsw_min              =  -1.1133777118879E+02
(PID.TID 0000.0001) %MON forcing_qsw_mean             =  -1.3431134713997E+01
(PID.TID 0000.0001) %MON forcing_qsw_sd               =   2.4629836134900E+01
(PID.TID 0000.0001) %MON forcing_qsw_del2             =   1.9264430121554E-02
(PID.TID 0000.0001) %MON forcing_empmr_max            =   2.9519654344767E-03
(PID.TID 0000.0001) %MON forcing_empmr_min            =  -1.3671158254147E-01
(PID.TID 0000.0001) %MON forcing_empmr_mean           =   3.2102734401956E-06
(PID.TID 0000.0001) %MON forcing_empmr_sd             =   5.2175703415571E-04
(PID.TID 0000.0001) %MON forcing_empmr_del2           =   7.9991460015718E-06
(PID.TID 0000.0001) %MON forcing_fu_max               =   1.0668912258713E+00
(PID.TID 0000.0001) %MON forcing_fu_min               =  -9.9507050447771E-01
(PID.TID 0000.0001) %MON forcing_fu_mean              =   1.2164712332639E-02
(PID.TID 0000.0001) %MON forcing_fu_sd                =   1.0959900689596E-01
(PID.TID 0000.0001) %MON forcing_fu_del2              =   1.5953679565302E-04
(PID.TID 0000.0001) %MON forcing_fv_max               =   1.1111062811496E+00
(PID.TID 0000.0001) %MON forcing_fv_min               =  -6.8082532198854E-01
(PID.TID 0000.0001) %MON forcing_fv_mean              =  -7.9326738763311E-03
(PID.TID 0000.0001) %MON forcing_fv_sd                =   1.0538599312729E-01
(PID.TID 0000.0001) %MON forcing_fv_del2              =   1.3685627723273E-04
(PID.TID 0000.0001) %MON trAdv_CFL_u_max              =   1.8814224972494E-02
(PID.TID 0000.0001) %MON trAdv_CFL_v_max              =   1.8261208719754E-02
(PID.TID 0000.0001) %MON trAdv_CFL_w_max              =   8.1636675588039E-02
(PID.TID 0000.0001) %MON advcfl_uvel_max              =   1.7839674775178E-02
(PID.TID 0000.0001) %MON advcfl_vvel_max              =   1.7164892895288E-02
(PID.TID 0000.0001) %MON advcfl_wvel_max              =   7.8877669609863E-02
(PID.TID 0000.0001) %MON advcfl_W_hf_max              =   8.2077785706226E-02
(PID.TID 0000.0001) %MON pe_b_mean                    =   6.7042207773368E-04
(PID.TID 0000.0001) %MON ke_max                       =   5.8150173628445E-01
(PID.TID 0000.0001) %MON ke_mean                      =   4.8718911305402E-04
(PID.TID 0000.0001) %MON ke_vol                       =   1.3349970146973E+18
(PID.TID 0000.0001) %MON vort_r_min                   =  -3.0042498924540E-05
(PID.TID 0000.0001) %MON vort_r_max                   =   2.9591076724644E-05
(PID.TID 0000.0001) %MON vort_a_mean                  =  -1.9727864647440E-05
(PID.TID 0000.0001) %MON vort_a_sd                    =   7.4543345687023E-05
(PID.TID 0000.0001) %MON vort_p_mean                  =  -2.1760544217673E-05
(PID.TID 0000.0001) %MON vort_p_sd                    =   9.7244819454369E-05
(PID.TID 0000.0001) %MON surfExpan_theta_mean         =  -2.3032798955670E-06
(PID.TID 0000.0001) %MON surfExpan_salt_mean          =  -2.3464405820862E-07
(PID.TID 0000.0001) // =======================================================
(PID.TID 0000.0001) // End MONITOR dynamic field statistics
(PID.TID 0000.0001) // =======================================================
(PID.TID 0000.0001) // =======================================================
(PID.TID 0000.0001) // Begin MONITOR SEAICE statistics
(PID.TID 0000.0001) // =======================================================
(PID.TID 0000.0001) %MON seaice_tsnumber              =                    48
(PID.TID 0000.0001) %MON seaice_time_sec              =   4.3200000000000E+04
(PID.TID 0000.0001) %MON seaice_uice_max              =   6.3475996566506E-01
(PID.TID 0000.0001) %MON seaice_uice_min              =  -6.4732106249171E-01
(PID.TID 0000.0001) %MON seaice_uice_mean             =  -2.3128545553926E-03
(PID.TID 0000.0001) %MON seaice_uice_sd               =   1.4421642630081E-01
(PID.TID 0000.0001) %MON seaice_uice_del2             =   2.0417540318305E-04
(PID.TID 0000.0001) %MON seaice_vice_max              =   7.4651086697691E-01
(PID.TID 0000.0001) %MON seaice_vice_min              =  -9.1249893041613E-01
(PID.TID 0000.0001) %MON seaice_vice_mean             =  -1.4061939627860E-02
(PID.TID 0000.0001) %MON seaice_vice_sd               =   1.3446266660396E-01
(PID.TID 0000.0001) %MON seaice_vice_del2             =   1.7874246120312E-04
(PID.TID 0000.0001) %MON seaice_area_max              =   1.0000000000000E+00
(PID.TID 0000.0001) %MON seaice_area_min              =   0.0000000000000E+00
(PID.TID 0000.0001) %MON seaice_area_mean             =   7.1383438254492E-02
(PID.TID 0000.0001) %MON seaice_area_sd               =   2.3700126108124E-01
(PID.TID 0000.0001) %MON seaice_area_del2             =   3.9779928329833E-04
(PID.TID 0000.0001) %MON seaice_heff_max              =   2.5105210384077E+01
(PID.TID 0000.0001) %MON seaice_heff_min              =   0.0000000000000E+00
(PID.TID 0000.0001) %MON seaice_heff_mean             =   2.1688030190090E-01
(PID.TID 0000.0001) %MON seaice_heff_sd               =   1.0636981076996E+00
(PID.TID 0000.0001) %MON seaice_heff_del2             =   3.2849982130817E-03
(PID.TID 0000.0001) %MON seaice_hsnow_max             =   8.2917607882700E+00
(PID.TID 0000.0001) %MON seaice_hsnow_min             =   0.0000000000000E+00
(PID.TID 0000.0001) %MON seaice_hsnow_mean            =   2.4606044307884E-02
(PID.TID 0000.0001) %MON seaice_hsnow_sd              =   1.5396217799866E-01
(PID.TID 0000.0001) %MON seaice_hsnow_del2            =   1.0439341495327E-03
(PID.TID 0000.0001) // =======================================================
(PID.TID 0000.0001) // End MONITOR SEAICE statistics
(PID.TID 0000.0001) // =======================================================
 Computing Diagnostic #     86  oceQnet      Counter:       4   Parms: SM      U1      
 Computing Diagnostic #     87  oceQsw       Counter:       4   Parms: SM      U1      
 Computing Diagnostic #     84  oceFWflx     Counter:       4   Parms: SM      U1      
 Computing Diagnostic #     85  oceSflux     Counter:       4   Parms: SM      U1      
 Computing Diagnostic #     80  oceTAUX      Counter:       4   Parms: UU      U1      
           Vector  Mate for  oceTAUX      Diagnostic #     81  oceTAUY  exists 
 Computing Diagnostic #     81  oceTAUY      Counter:       4   Parms: VV      U1      
           Vector  Mate for  oceTAUY      Diagnostic #     80  oceTAUX  exists 
 Computing Diagnostic #     26  THETA        Counter:       4   Parms: SMR     MR      
 Computing Diagnostic #     27  SALT         Counter:       4   Parms: SMR     MR      
 Computing Diagnostic #     30  UVEL         Counter:       4   Parms: UUR     MR      
           Vector  Mate for  UVEL         Diagnostic #     31  VVEL     exists 
 Computing Diagnostic #     31  VVEL         Counter:       4   Parms: VVR     MR      
           Vector  Mate for  VVEL         Diagnostic #     30  UVEL     exists 
 Computing Diagnostic #    214  SIarea       Counter:       4   Parms: SM      M1      
 Computing Diagnostic #    217  SIheff       Counter:       4   Parms: SM      M1      
 Computing Diagnostic #    219  SIhsnow      Counter:       4   Parms: SM      M1      
 Computing Diagnostic #     83  sIceLoad     Counter:       4   Parms: SM      U1      
 Computing Diagnostic #    223  SIuice       Counter:       4   Parms: UU      M1      
           Vector  Mate for  SIuice       Diagnostic #    224  SIvice   exists 
 Computing Diagnostic #    224  SIvice       Counter:       4   Parms: VV      M1      
           Vector  Mate for  SIvice       Diagnostic #    223  SIuice   exists 
 Computing Diagnostic #    225  SItaux       Counter:       4   Parms: UU      U1      
           Vector  Mate for  SItaux       Diagnostic #    226  SItauy   exists 
 Computing Diagnostic #    226  SItauy       Counter:       4   Parms: VV      U1      
           Vector  Mate for  SItauy       Diagnostic #    225  SItaux   exists 
 Computing Diagnostic #    285  SIareaN      Counter:       4   Parms: SM      MX      
 Computing Diagnostic #    284  SIheffN      Counter:       4   Parms: SM      MX      
 Computing Diagnostic #    286  SIhsnowN     Counter:       4   Parms: SM      MX      
 Computing Diagnostic #    290  SIqSnow      Counter:       4   Parms: SM      MX      
 Computing Diagnostic #    291  SImeltPd     Counter:       4   Parms: SM      MX      
 Computing Diagnostic #    288  SItIces      Counter:       4   Parms: SM      MX      
 Computing Diagnostic #    292  SIiceAge     Counter:       4   Parms: SM      MX      
 Computing Diagnostic #    293  SI_dArea     Counter:       4   Parms: SM      MX      
 Computing Diagnostic #    294  SI_dHeff     Counter:       4   Parms: SM      MX      
 Computing Diagnostic #    295  SI_dHsnw     Counter:       4   Parms: SM      MX      
 Computing Diagnostic #    298  SI_dQSnw     Counter:       4   Parms: SM      MX      
 Compute Stats, Diag. #    214  SIarea    vol(   0 ): 1.432E+15  Parms: SM      M1      
 Compute Stats, Diag. #    217  SIheff    vol(   0 ): 1.432E+15  Parms: SM      M1      
 Compute Stats, Diag. #    219  SIhsnow   vol(   0 ): 1.432E+15  Parms: SM      M1      
 Compute Stats, Diag. #     83  sIceLoad  vol(   0 ): 1.432E+15  Parms: SM      U1      
 Compute Stats, Diag. #    223  SIuice    vol(   0 ): 1.405E+15  Parms: UU      M1      
 Compute Stats, Diag. #    224  SIvice    vol(   0 ): 1.403E+15  Parms: VV      M1      
 Compute Stats, Diag. #    225  SItaux    vol(   0 ): 1.405E+15  Parms: UU      U1      
 Compute Stats, Diag. #    226  SItauy    vol(   0 ): 1.403E+15  Parms: VV      U1      
 Compute Stats, Diag. #    285  SIareaN   vol(   0 ): 7.160E+15  Parms: SM      MX      
 Compute Stats, Diag. #    284  SIheffN   vol(   0 ): 7.160E+15  Parms: SM      MX      
 Compute Stats, Diag. #    286  SIhsnowN  vol(   0 ): 7.160E+15  Parms: SM      MX      
 Compute Stats, Diag. #    290  SIqSnow   vol(   0 ): 7.160E+15  Parms: SM      MX      
 Compute Stats, Diag. #    289  SIqIce    vol(   0 ): 2.864E+16  Parms: SM      MX      
 Compute Stats, Diag. #    291  SImeltPd  vol(   0 ): 7.160E+15  Parms: SM      MX      
 Compute Stats, Diag. #    288  SItIces   vol(   0 ): 7.160E+15  Parms: SM      MX      
 Compute Stats, Diag. #    292  SIiceAge  vol(   0 ): 7.160E+15  Parms: SM      MX      
 Compute Stats, Diag. #    293  SI_dArea  vol(   0 ): 7.160E+15  Parms: SM      MX      
 Compute Stats, Diag. #    294  SI_dHeff  vol(   0 ): 7.160E+15  Parms: SM      MX      
 Compute Stats, Diag. #    295  SI_dHsnw  vol(   0 ): 7.160E+15  Parms: SM      MX      
 Compute Stats, Diag. #    298  SI_dQSnw  vol(   0 ): 7.160E+15  Parms: SM      MX      
 Compute Stats, Diag. #    297  SI_dQIce  vol(   0 ): 2.864E+16  Parms: SM      MX      
 SEAICE_LSR: Residual Initial ipass,Uice,Vice=    1  1.69067117E-02  1.45209925E-02
 SEAICE_LSR (ipass=   1) iters,dU,Resid=    36  9.80579974E-05  8.49114023E-03
 SEAICE_LSR (ipass=   1) iters,dV,Resid=    36  6.70999032E-05  4.62411498E-03
 SEAICE_LSR: Residual Initial ipass,Uice,Vice=    2  1.58351044E-02  1.40451680E-02
 SEAICE_LSR (ipass=   2) iters,dU,Resid=    24  9.55172512E-05  8.83413578E-03
 SEAICE_LSR (ipass=   2) iters,dV,Resid=    24  6.80791769E-05  5.00427295E-03
 cg2d: Sum(rhs),rhsMax =   7.62983382787492E+01  2.98179094821786E-01
 Computing Diagnostic #    289  SIqIce       Counter:       1   Parms: SM      MX      
 Computing Diagnostic #    297  SI_dQIce     Counter:       1   Parms: SM      MX      
 Computing Diagnostic #    290  SIqSnow      Counter:       1   Parms: SM      MX      
 Computing Diagnostic #    298  SI_dQSnw     Counter:       1   Parms: SM      MX      
 cg2d: Sum(rhs),rhsMax =   7.63636255519307E+01  2.98478493986746E-01
 cg2d: Sum(rhs),rhsMax =   7.64227125200755E+01  2.98730490125747E-01
 cg2d: Sum(rhs),rhsMax =   7.64781186107625E+01  2.98912564557352E-01
 Computing Diagnostic #     86  oceQnet      Counter:       4   Parms: SM      U1      
 Computing Diagnostic #     87  oceQsw       Counter:       4   Parms: SM      U1      
 Computing Diagnostic #     84  oceFWflx     Counter:       4   Parms: SM      U1      
 Computing Diagnostic #     85  oceSflux     Counter:       4   Parms: SM      U1      
 Computing Diagnostic #     80  oceTAUX      Counter:       4   Parms: UU      U1      
           Vector  Mate for  oceTAUX      Diagnostic #     81  oceTAUY  exists 
 Computing Diagnostic #     81  oceTAUY      Counter:       4   Parms: VV      U1      
           Vector  Mate for  oceTAUY      Diagnostic #     80  oceTAUX  exists 
 Computing Diagnostic #     26  THETA        Counter:       4   Parms: SMR     MR      
 Computing Diagnostic #     27  SALT         Counter:       4   Parms: SMR     MR      
 Computing Diagnostic #     30  UVEL         Counter:       4   Parms: UUR     MR      
           Vector  Mate for  UVEL         Diagnostic #     31  VVEL     exists 
 Computing Diagnostic #     31  VVEL         Counter:       4   Parms: VVR     MR      
           Vector  Mate for  VVEL         Diagnostic #     30  UVEL     exists 
 Computing Diagnostic #    214  SIarea       Counter:       4   Parms: SM      M1      
 Computing Diagnostic #    217  SIheff       Counter:       4   Parms: SM      M1      
 Computing Diagnostic #    219  SIhsnow      Counter:       4   Parms: SM      M1      
 Computing Diagnostic #     83  sIceLoad     Counter:       4   Parms: SM      U1      
 Computing Diagnostic #    223  SIuice       Counter:       4   Parms: UU      M1      
           Vector  Mate for  SIuice       Diagnostic #    224  SIvice   exists 
 Computing Diagnostic #    224  SIvice       Counter:       4   Parms: VV      M1      
           Vector  Mate for  SIvice       Diagnostic #    223  SIuice   exists 
 Computing Diagnostic #    225  SItaux       Counter:       4   Parms: UU      U1      
           Vector  Mate for  SItaux       Diagnostic #    226  SItauy   exists 
 Computing Diagnostic #    226  SItauy       Counter:       4   Parms: VV      U1      
           Vector  Mate for  SItauy       Diagnostic #    225  SItaux   exists 
 Computing Diagnostic #    285  SIareaN      Counter:       4   Parms: SM      MX      
 Computing Diagnostic #    284  SIheffN      Counter:       4   Parms: SM      MX      
 Computing Diagnostic #    286  SIhsnowN     Counter:       4   Parms: SM      MX      
 Computing Diagnostic #    290  SIqSnow      Counter:       4   Parms: SM      MX      
 Computing Diagnostic #    291  SImeltPd     Counter:       4   Parms: SM      MX      
 Computing Diagnostic #    288  SItIces      Counter:       4   Parms: SM      MX      
 Computing Diagnostic #    292  SIiceAge     Counter:       4   Parms: SM      MX      
 Computing Diagnostic #    293  SI_dArea     Counter:       4   Parms: SM      MX      
 Computing Diagnostic #    294  SI_dHeff     Counter:       4   Parms: SM      MX      
 Computing Diagnostic #    295  SI_dHsnw     Counter:       4   Parms: SM      MX      
 Computing Diagnostic #    298  SI_dQSnw     Counter:       4   Parms: SM      MX      
 Compute Stats, Diag. #    214  SIarea    vol(   0 ): 1.432E+15  Parms: SM      M1      
 Compute Stats, Diag. #    217  SIheff    vol(   0 ): 1.432E+15  Parms: SM      M1      
 Compute Stats, Diag. #    219  SIhsnow   vol(   0 ): 1.432E+15  Parms: SM      M1      
 Compute Stats, Diag. #     83  sIceLoad  vol(   0 ): 1.432E+15  Parms: SM      U1      
 Compute Stats, Diag. #    223  SIuice    vol(   0 ): 1.405E+15  Parms: UU      M1      
 Compute Stats, Diag. #    224  SIvice    vol(   0 ): 1.403E+15  Parms: VV      M1      
 Compute Stats, Diag. #    225  SItaux    vol(   0 ): 1.405E+15  Parms: UU      U1      
 Compute Stats, Diag. #    226  SItauy    vol(   0 ): 1.403E+15  Parms: VV      U1      
 Compute Stats, Diag. #    285  SIareaN   vol(   0 ): 7.160E+15  Parms: SM      MX      
 Compute Stats, Diag. #    284  SIheffN   vol(   0 ): 7.160E+15  Parms: SM      MX      
 Compute Stats, Diag. #    286  SIhsnowN  vol(   0 ): 7.160E+15  Parms: SM      MX      
 Compute Stats, Diag. #    290  SIqSnow   vol(   0 ): 7.160E+15  Parms: SM      MX      
 Compute Stats, Diag. #    289  SIqIce    vol(   0 ): 2.864E+16  Parms: SM      MX      
 Compute Stats, Diag. #    291  SImeltPd  vol(   0 ): 7.160E+15  Parms: SM      MX      
 Compute Stats, Diag. #    288  SItIces   vol(   0 ): 7.160E+15  Parms: SM      MX      
 Compute Stats, Diag. #    292  SIiceAge  vol(   0 ): 7.160E+15  Parms: SM      MX      
 Compute Stats, Diag. #    293  SI_dArea  vol(   0 ): 7.160E+15  Parms: SM      MX      
 Compute Stats, Diag. #    294  SI_dHeff  vol(   0 ): 7.160E+15  Parms: SM      MX      
 Compute Stats, Diag. #    295  SI_dHsnw  vol(   0 ): 7.160E+15  Parms: SM      MX      
 Compute Stats, Diag. #    298  SI_dQSnw  vol(   0 ): 7.160E+15  Parms: SM      MX      
 Compute Stats, Diag. #    297  SI_dQIce  vol(   0 ): 2.864E+16  Parms: SM      MX      
 cg2d: Sum(rhs),rhsMax =   7.65256754749319E+01  2.99014397107811E-01
 Computing Diagnostic #    289  SIqIce       Counter:       1   Parms: SM      MX      
 Computing Diagnostic #    297  SI_dQIce     Counter:       1   Parms: SM      MX      
 Computing Diagnostic #    290  SIqSnow      Counter:       1   Parms: SM      MX      
 Computing Diagnostic #    298  SI_dQSnw     Counter:       1   Parms: SM      MX      
 cg2d: Sum(rhs),rhsMax =   7.65650279052631E+01  2.99034330581632E-01
 cg2d: Sum(rhs),rhsMax =   7.65971504969408E+01  2.98979570358572E-01
 cg2d: Sum(rhs),rhsMax =   7.66180461356703E+01  2.98864526764131E-01
(PID.TID 0000.0001)      cg2d_init_res =   3.69086734785380E-01
(PID.TID 0000.0001)      cg2d_iters(min,last) =      -1      32
(PID.TID 0000.0001)      cg2d_last_res =   2.59479063689136E-05
(PID.TID 0000.0001) // =======================================================
(PID.TID 0000.0001) // Begin MONITOR dynamic field statistics
(PID.TID 0000.0001) // =======================================================
(PID.TID 0000.0001) %MON time_tsnumber                =                    56
(PID.TID 0000.0001) %MON time_secondsf                =   5.0400000000000E+04
(PID.TID 0000.0001) %MON dynstat_eta_max              =   1.0905794360106E+00
(PID.TID 0000.0001) %MON dynstat_eta_min              =  -3.2377043254145E+00
(PID.TID 0000.0001) %MON dynstat_eta_mean             =  -2.4236735010745E-03
(PID.TID 0000.0001) %MON dynstat_eta_sd               =   7.0878759280149E-01
(PID.TID 0000.0001) %MON dynstat_eta_del2             =   8.3884135260055E-05
(PID.TID 0000.0001) %MON dynstat_uvel_max             =   8.8745177648873E-01
(PID.TID 0000.0001) %MON dynstat_uvel_min             =  -1.0479395847778E+00
(PID.TID 0000.0001) %MON dynstat_uvel_mean            =   1.7205595345857E-03
(PID.TID 0000.0001) %MON dynstat_uvel_sd              =   2.1652729112666E-02
(PID.TID 0000.0001) %MON dynstat_uvel_del2            =   1.2898471521635E-05
(PID.TID 0000.0001) %MON dynstat_vvel_max             =   1.0157069331818E+00
(PID.TID 0000.0001) %MON dynstat_vvel_min             =  -9.2436278644121E-01
(PID.TID 0000.0001) %MON dynstat_vvel_mean            =   1.5829762016179E-03
(PID.TID 0000.0001) %MON dynstat_vvel_sd              =   2.2959843043649E-02
(PID.TID 0000.0001) %MON dynstat_vvel_del2            =   1.3412396925971E-05
(PID.TID 0000.0001) %MON dynstat_wvel_max             =   3.7671302394504E-03
(PID.TID 0000.0001) %MON dynstat_wvel_min             =  -2.5564872975444E-03
(PID.TID 0000.0001) %MON dynstat_wvel_mean            =   7.2885053462050E-08
(PID.TID 0000.0001) %MON dynstat_wvel_sd              =   3.4509656073110E-05
(PID.TID 0000.0001) %MON dynstat_wvel_del2            =   5.3471081665814E-08
(PID.TID 0000.0001) %MON dynstat_theta_max            =   3.2643259593601E+01
(PID.TID 0000.0001) %MON dynstat_theta_min            =  -2.0419659403602E+00
(PID.TID 0000.0001) %MON dynstat_theta_mean           =   3.5905326636822E+00
(PID.TID 0000.0001) %MON dynstat_theta_sd             =   4.4363264420841E+00
(PID.TID 0000.0001) %MON dynstat_theta_del2           =   1.0559473560563E-04
(PID.TID 0000.0001) %MON dynstat_salt_max             =   4.0711521723860E+01
(PID.TID 0000.0001) %MON dynstat_salt_min             =   1.8897258348144E+01
(PID.TID 0000.0001) %MON dynstat_salt_mean            =   3.4725635095655E+01
(PID.TID 0000.0001) %MON dynstat_salt_sd              =   3.7718510751440E-01
(PID.TID 0000.0001) %MON dynstat_salt_del2            =   2.8407681821434E-05
(PID.TID 0000.0001) %MON dynstat_sst_max              =   3.2632761041376E+01
(PID.TID 0000.0001) %MON dynstat_sst_min              =  -1.9008782770219E+00
(PID.TID 0000.0001) %MON dynstat_sst_mean             =   1.8480321922871E+01
(PID.TID 0000.0001) %MON dynstat_sst_sd               =   1.0105814693659E+01
(PID.TID 0000.0001) %MON dynstat_sst_del2             =   8.5123735439086E-04
(PID.TID 0000.0001) %MON dynstat_sss_max              =   3.9446284961927E+01
(PID.TID 0000.0001) %MON dynstat_sss_min              =   1.8897258348144E+01
(PID.TID 0000.0001) %MON dynstat_sss_mean             =   3.4683696355267E+01
(PID.TID 0000.0001) %MON dynstat_sss_sd               =   1.1241406476170E+00
(PID.TID 0000.0001) %MON dynstat_sss_del2             =   6.0352895557609E-04
(PID.TID 0000.0001) %MON forcing_qnet_max             =   1.1975068840973E+03
(PID.TID 0000.0001) %MON forcing_qnet_min             =  -7.6474981689453E+02
(PID.TID 0000.0001) %MON forcing_qnet_mean            =   4.2762725716958E+01
(PID.TID 0000.0001) %MON forcing_qnet_sd              =   1.7645994090299E+02
(PID.TID 0000.0001) %MON forcing_qnet_del2            =   3.9437860832270E-01
(PID.TID 0000.0001) %MON forcing_qsw_max              =   0.0000000000000E+00
(PID.TID 0000.0001) %MON forcing_qsw_min              =  -9.8476239598350E+01
(PID.TID 0000.0001) %MON forcing_qsw_mean             =  -1.4413582782011E+01
(PID.TID 0000.0001) %MON forcing_qsw_sd               =   2.4138419881530E+01
(PID.TID 0000.0001) %MON forcing_qsw_del2             =   2.0949099986631E-02
(PID.TID 0000.0001) %MON forcing_empmr_max            =   2.9452855233103E-03
(PID.TID 0000.0001) %MON forcing_empmr_min            =  -1.1469662189484E-01
(PID.TID 0000.0001) %MON forcing_empmr_mean           =   7.5573851915906E-07
(PID.TID 0000.0001) %MON forcing_empmr_sd             =   4.2672025273620E-04
(PID.TID 0000.0001) %MON forcing_empmr_del2           =   6.2821428520599E-06
(PID.TID 0000.0001) %MON forcing_fu_max               =   1.0759012379691E+00
(PID.TID 0000.0001) %MON forcing_fu_min               =  -1.6670190309220E+00
(PID.TID 0000.0001) %MON forcing_fu_mean              =   1.1314475729245E-02
(PID.TID 0000.0001) %MON forcing_fu_sd                =   1.0853842359036E-01
(PID.TID 0000.0001) %MON forcing_fu_del2              =   1.5982380087086E-04
(PID.TID 0000.0001) %MON forcing_fv_max               =   1.8415146554749E+00
(PID.TID 0000.0001) %MON forcing_fv_min               =  -6.8809862248520E-01
(PID.TID 0000.0001) %MON forcing_fv_mean              =  -7.9037622501308E-03
(PID.TID 0000.0001) %MON forcing_fv_sd                =   1.0443409246267E-01
(PID.TID 0000.0001) %MON forcing_fv_del2              =   1.3777151069810E-04
(PID.TID 0000.0001) %MON trAdv_CFL_u_max              =   2.0382008557318E-02
(PID.TID 0000.0001) %MON trAdv_CFL_v_max              =   1.9156108451504E-02
(PID.TID 0000.0001) %MON trAdv_CFL_w_max              =   8.2803911398924E-02
(PID.TID 0000.0001) %MON advcfl_uvel_max              =   1.7338071836721E-02
(PID.TID 0000.0001) %MON advcfl_vvel_max              =   1.8029595681988E-02
(PID.TID 0000.0001) %MON advcfl_wvel_max              =   8.6283826278758E-02
(PID.TID 0000.0001) %MON advcfl_W_hf_max              =   9.1749991316517E-02
(PID.TID 0000.0001) %MON pe_b_mean                    =   6.6083928371623E-04
(PID.TID 0000.0001) %MON ke_max                       =   6.3260710827474E-01
(PID.TID 0000.0001) %MON ke_mean                      =   4.8289887873765E-04
(PID.TID 0000.0001) %MON ke_vol                       =   1.3349970094672E+18
(PID.TID 0000.0001) %MON vort_r_min                   =  -2.9250774522974E-05
(PID.TID 0000.0001) %MON vort_r_max                   =   3.0122681815730E-05
(PID.TID 0000.0001) %MON vort_a_mean                  =  -1.9727864647440E-05
(PID.TID 0000.0001) %MON vort_a_sd                    =   7.4543346521917E-05
(PID.TID 0000.0001) %MON vort_p_mean                  =  -2.1760544391908E-05
(PID.TID 0000.0001) %MON vort_p_sd                    =   9.7245198823355E-05
(PID.TID 0000.0001) %MON surfExpan_theta_mean         =  -2.7441797008469E-06
(PID.TID 0000.0001) %MON surfExpan_salt_mean          =  -2.5626129177848E-07
(PID.TID 0000.0001) // =======================================================
(PID.TID 0000.0001) // End MONITOR dynamic field statistics
(PID.TID 0000.0001) // =======================================================
(PID.TID 0000.0001) // =======================================================
(PID.TID 0000.0001) // Begin MONITOR SEAICE statistics
(PID.TID 0000.0001) // =======================================================
(PID.TID 0000.0001) %MON seaice_tsnumber              =                    56
(PID.TID 0000.0001) %MON seaice_time_sec              =   5.0400000000000E+04
(PID.TID 0000.0001) %MON seaice_uice_max              =   6.2386888404603E-01
(PID.TID 0000.0001) %MON seaice_uice_min              =  -6.3008061815570E-01
(PID.TID 0000.0001) %MON seaice_uice_mean             =  -1.0294630371887E-03
(PID.TID 0000.0001) %MON seaice_uice_sd               =   1.4259872509357E-01
(PID.TID 0000.0001) %MON seaice_uice_del2             =   2.0232730095559E-04
(PID.TID 0000.0001) %MON seaice_vice_max              =   7.9526165133291E-01
(PID.TID 0000.0001) %MON seaice_vice_min              =  -9.1037800650549E-01
(PID.TID 0000.0001) %MON seaice_vice_mean             =  -1.6461275237523E-02
(PID.TID 0000.0001) %MON seaice_vice_sd               =   1.3344072080790E-01
(PID.TID 0000.0001) %MON seaice_vice_del2             =   1.7633354891693E-04
(PID.TID 0000.0001) %MON seaice_area_max              =   1.0000000000000E+00
(PID.TID 0000.0001) %MON seaice_area_min              =   0.0000000000000E+00
(PID.TID 0000.0001) %MON seaice_area_mean             =   7.1196998904934E-02
(PID.TID 0000.0001) %MON seaice_area_sd               =   2.3686739484986E-01
(PID.TID 0000.0001) %MON seaice_area_del2             =   3.8903455618257E-04
(PID.TID 0000.0001) %MON seaice_heff_max              =   2.5100415827243E+01
(PID.TID 0000.0001) %MON seaice_heff_min              =   0.0000000000000E+00
(PID.TID 0000.0001) %MON seaice_heff_mean             =   2.1690958127356E-01
(PID.TID 0000.0001) %MON seaice_heff_sd               =   1.0637005881850E+00
(PID.TID 0000.0001) %MON seaice_heff_del2             =   3.2268859339189E-03
(PID.TID 0000.0001) %MON seaice_hsnow_max             =   8.2901808996094E+00
(PID.TID 0000.0001) %MON seaice_hsnow_min             =   0.0000000000000E+00
(PID.TID 0000.0001) %MON seaice_hsnow_mean            =   2.4600971481636E-02
(PID.TID 0000.0001) %MON seaice_hsnow_sd              =   1.5356814502409E-01
(PID.TID 0000.0001) %MON seaice_hsnow_del2            =   1.0246864057314E-03
(PID.TID 0000.0001) // =======================================================
(PID.TID 0000.0001) // End MONITOR SEAICE statistics
(PID.TID 0000.0001) // =======================================================
 Computing Diagnostic #     86  oceQnet      Counter:       4   Parms: SM      U1      
 Computing Diagnostic #     87  oceQsw       Counter:       4   Parms: SM      U1      
 Computing Diagnostic #     84  oceFWflx     Counter:       4   Parms: SM      U1      
 Computing Diagnostic #     85  oceSflux     Counter:       4   Parms: SM      U1      
 Computing Diagnostic #     80  oceTAUX      Counter:       4   Parms: UU      U1      
           Vector  Mate for  oceTAUX      Diagnostic #     81  oceTAUY  exists 
 Computing Diagnostic #     81  oceTAUY      Counter:       4   Parms: VV      U1      
           Vector  Mate for  oceTAUY      Diagnostic #     80  oceTAUX  exists 
 Computing Diagnostic #     26  THETA        Counter:       4   Parms: SMR     MR      
 Computing Diagnostic #     27  SALT         Counter:       4   Parms: SMR     MR      
 Computing Diagnostic #     30  UVEL         Counter:       4   Parms: UUR     MR      
           Vector  Mate for  UVEL         Diagnostic #     31  VVEL     exists 
 Computing Diagnostic #     31  VVEL         Counter:       4   Parms: VVR     MR      
           Vector  Mate for  VVEL         Diagnostic #     30  UVEL     exists 
 Computing Diagnostic #    214  SIarea       Counter:       4   Parms: SM      M1      
 Computing Diagnostic #    217  SIheff       Counter:       4   Parms: SM      M1      
 Computing Diagnostic #    219  SIhsnow      Counter:       4   Parms: SM      M1      
 Computing Diagnostic #     83  sIceLoad     Counter:       4   Parms: SM      U1      
 Computing Diagnostic #    223  SIuice       Counter:       4   Parms: UU      M1      
           Vector  Mate for  SIuice       Diagnostic #    224  SIvice   exists 
 Computing Diagnostic #    224  SIvice       Counter:       4   Parms: VV      M1      
           Vector  Mate for  SIvice       Diagnostic #    223  SIuice   exists 
 Computing Diagnostic #    225  SItaux       Counter:       4   Parms: UU      U1      
           Vector  Mate for  SItaux       Diagnostic #    226  SItauy   exists 
 Computing Diagnostic #    226  SItauy       Counter:       4   Parms: VV      U1      
           Vector  Mate for  SItauy       Diagnostic #    225  SItaux   exists 
 Computing Diagnostic #    285  SIareaN      Counter:       4   Parms: SM      MX      
 Computing Diagnostic #    284  SIheffN      Counter:       4   Parms: SM      MX      
 Computing Diagnostic #    286  SIhsnowN     Counter:       4   Parms: SM      MX      
 Computing Diagnostic #    290  SIqSnow      Counter:       4   Parms: SM      MX      
 Computing Diagnostic #    291  SImeltPd     Counter:       4   Parms: SM      MX      
 Computing Diagnostic #    288  SItIces      Counter:       4   Parms: SM      MX      
 Computing Diagnostic #    292  SIiceAge     Counter:       4   Parms: SM      MX      
 Computing Diagnostic #    293  SI_dArea     Counter:       4   Parms: SM      MX      
 Computing Diagnostic #    294  SI_dHeff     Counter:       4   Parms: SM      MX      
 Computing Diagnostic #    295  SI_dHsnw     Counter:       4   Parms: SM      MX      
 Computing Diagnostic #    298  SI_dQSnw     Counter:       4   Parms: SM      MX      
 Compute Stats, Diag. #    214  SIarea    vol(   0 ): 1.432E+15  Parms: SM      M1      
 Compute Stats, Diag. #    217  SIheff    vol(   0 ): 1.432E+15  Parms: SM      M1      
 Compute Stats, Diag. #    219  SIhsnow   vol(   0 ): 1.432E+15  Parms: SM      M1      
 Compute Stats, Diag. #     83  sIceLoad  vol(   0 ): 1.432E+15  Parms: SM      U1      
 Compute Stats, Diag. #    223  SIuice    vol(   0 ): 1.405E+15  Parms: UU      M1      
 Compute Stats, Diag. #    224  SIvice    vol(   0 ): 1.403E+15  Parms: VV      M1      
 Compute Stats, Diag. #    225  SItaux    vol(   0 ): 1.405E+15  Parms: UU      U1      
 Compute Stats, Diag. #    226  SItauy    vol(   0 ): 1.403E+15  Parms: VV      U1      
 Compute Stats, Diag. #    285  SIareaN   vol(   0 ): 7.160E+15  Parms: SM      MX      
 Compute Stats, Diag. #    284  SIheffN   vol(   0 ): 7.160E+15  Parms: SM      MX      
 Compute Stats, Diag. #    286  SIhsnowN  vol(   0 ): 7.160E+15  Parms: SM      MX      
 Compute Stats, Diag. #    290  SIqSnow   vol(   0 ): 7.160E+15  Parms: SM      MX      
 Compute Stats, Diag. #    289  SIqIce    vol(   0 ): 2.864E+16  Parms: SM      MX      
 Compute Stats, Diag. #    291  SImeltPd  vol(   0 ): 7.160E+15  Parms: SM      MX      
 Compute Stats, Diag. #    288  SItIces   vol(   0 ): 7.160E+15  Parms: SM      MX      
 Compute Stats, Diag. #    292  SIiceAge  vol(   0 ): 7.160E+15  Parms: SM      MX      
 Compute Stats, Diag. #    293  SI_dArea  vol(   0 ): 7.160E+15  Parms: SM      MX      
 Compute Stats, Diag. #    294  SI_dHeff  vol(   0 ): 7.160E+15  Parms: SM      MX      
 Compute Stats, Diag. #    295  SI_dHsnw  vol(   0 ): 7.160E+15  Parms: SM      MX      
 Compute Stats, Diag. #    298  SI_dQSnw  vol(   0 ): 7.160E+15  Parms: SM      MX      
 Compute Stats, Diag. #    297  SI_dQIce  vol(   0 ): 2.864E+16  Parms: SM      MX      
 SEAICE_LSR: Residual Initial ipass,Uice,Vice=    1  1.40619117E-02  1.25394036E-02
 SEAICE_LSR (ipass=   1) iters,dU,Resid=    30  9.46706554E-05  4.53189108E-03
 SEAICE_LSR (ipass=   1) iters,dV,Resid=    30  5.30007370E-05  2.57225293E-03
 SEAICE_LSR: Residual Initial ipass,Uice,Vice=    2  1.26220600E-02  1.15826175E-02
 SEAICE_LSR (ipass=   2) iters,dU,Resid=    18  9.65562751E-05  4.75994345E-03
 SEAICE_LSR (ipass=   2) iters,dV,Resid=    18  6.91148310E-05  2.81557404E-03
 cg2d: Sum(rhs),rhsMax =   7.66361634807878E+01  2.98709652436460E-01
 Computing Diagnostic #    289  SIqIce       Counter:       1   Parms: SM      MX      
 Computing Diagnostic #    297  SI_dQIce     Counter:       1   Parms: SM      MX      
 Computing Diagnostic #    290  SIqSnow      Counter:       1   Parms: SM      MX      
 Computing Diagnostic #    298  SI_dQSnw     Counter:       1   Parms: SM      MX      
 cg2d: Sum(rhs),rhsMax =   7.66419220985709E+01  2.98537849646215E-01
 cg2d: Sum(rhs),rhsMax =   7.66451739430055E+01  2.98373506276709E-01
 cg2d: Sum(rhs),rhsMax =   7.66333816109980E+01  2.98240022187386E-01
 Computing Diagnostic #     86  oceQnet      Counter:       4   Parms: SM      U1      
 Computing Diagnostic #     87  oceQsw       Counter:       4   Parms: SM      U1      
 Computing Diagnostic #     84  oceFWflx     Counter:       4   Parms: SM      U1      
 Computing Diagnostic #     85  oceSflux     Counter:       4   Parms: SM      U1      
 Computing Diagnostic #     80  oceTAUX      Counter:       4   Parms: UU      U1      
           Vector  Mate for  oceTAUX      Diagnostic #     81  oceTAUY  exists 
 Computing Diagnostic #     81  oceTAUY      Counter:       4   Parms: VV      U1      
           Vector  Mate for  oceTAUY      Diagnostic #     80  oceTAUX  exists 
 Computing Diagnostic #     26  THETA        Counter:       4   Parms: SMR     MR      
 Computing Diagnostic #     27  SALT         Counter:       4   Parms: SMR     MR      
 Computing Diagnostic #     30  UVEL         Counter:       4   Parms: UUR     MR      
           Vector  Mate for  UVEL         Diagnostic #     31  VVEL     exists 
 Computing Diagnostic #     31  VVEL         Counter:       4   Parms: VVR     MR      
           Vector  Mate for  VVEL         Diagnostic #     30  UVEL     exists 
 Computing Diagnostic #    214  SIarea       Counter:       4   Parms: SM      M1      
 Computing Diagnostic #    217  SIheff       Counter:       4   Parms: SM      M1      
 Computing Diagnostic #    219  SIhsnow      Counter:       4   Parms: SM      M1      
 Computing Diagnostic #     83  sIceLoad     Counter:       4   Parms: SM      U1      
 Computing Diagnostic #    223  SIuice       Counter:       4   Parms: UU      M1      
           Vector  Mate for  SIuice       Diagnostic #    224  SIvice   exists 
 Computing Diagnostic #    224  SIvice       Counter:       4   Parms: VV      M1      
           Vector  Mate for  SIvice       Diagnostic #    223  SIuice   exists 
 Computing Diagnostic #    225  SItaux       Counter:       4   Parms: UU      U1      
           Vector  Mate for  SItaux       Diagnostic #    226  SItauy   exists 
 Computing Diagnostic #    226  SItauy       Counter:       4   Parms: VV      U1      
           Vector  Mate for  SItauy       Diagnostic #    225  SItaux   exists 
 Computing Diagnostic #    285  SIareaN      Counter:       4   Parms: SM      MX      
 Computing Diagnostic #    284  SIheffN      Counter:       4   Parms: SM      MX      
 Computing Diagnostic #    286  SIhsnowN     Counter:       4   Parms: SM      MX      
 Computing Diagnostic #    290  SIqSnow      Counter:       4   Parms: SM      MX      
 Computing Diagnostic #    291  SImeltPd     Counter:       4   Parms: SM      MX      
 Computing Diagnostic #    288  SItIces      Counter:       4   Parms: SM      MX      
 Computing Diagnostic #    292  SIiceAge     Counter:       4   Parms: SM      MX      
 Computing Diagnostic #    293  SI_dArea     Counter:       4   Parms: SM      MX      
 Computing Diagnostic #    294  SI_dHeff     Counter:       4   Parms: SM      MX      
 Computing Diagnostic #    295  SI_dHsnw     Counter:       4   Parms: SM      MX      
 Computing Diagnostic #    298  SI_dQSnw     Counter:       4   Parms: SM      MX      
 Compute Stats, Diag. #    214  SIarea    vol(   0 ): 1.432E+15  Parms: SM      M1      
 Compute Stats, Diag. #    217  SIheff    vol(   0 ): 1.432E+15  Parms: SM      M1      
 Compute Stats, Diag. #    219  SIhsnow   vol(   0 ): 1.432E+15  Parms: SM      M1      
 Compute Stats, Diag. #     83  sIceLoad  vol(   0 ): 1.432E+15  Parms: SM      U1      
 Compute Stats, Diag. #    223  SIuice    vol(   0 ): 1.405E+15  Parms: UU      M1      
 Compute Stats, Diag. #    224  SIvice    vol(   0 ): 1.403E+15  Parms: VV      M1      
 Compute Stats, Diag. #    225  SItaux    vol(   0 ): 1.405E+15  Parms: UU      U1      
 Compute Stats, Diag. #    226  SItauy    vol(   0 ): 1.403E+15  Parms: VV      U1      
 Compute Stats, Diag. #    285  SIareaN   vol(   0 ): 7.160E+15  Parms: SM      MX      
 Compute Stats, Diag. #    284  SIheffN   vol(   0 ): 7.160E+15  Parms: SM      MX      
 Compute Stats, Diag. #    286  SIhsnowN  vol(   0 ): 7.160E+15  Parms: SM      MX      
 Compute Stats, Diag. #    290  SIqSnow   vol(   0 ): 7.160E+15  Parms: SM      MX      
 Compute Stats, Diag. #    289  SIqIce    vol(   0 ): 2.864E+16  Parms: SM      MX      
 Compute Stats, Diag. #    291  SImeltPd  vol(   0 ): 7.160E+15  Parms: SM      MX      
 Compute Stats, Diag. #    288  SItIces   vol(   0 ): 7.160E+15  Parms: SM      MX      
 Compute Stats, Diag. #    292  SIiceAge  vol(   0 ): 7.160E+15  Parms: SM      MX      
 Compute Stats, Diag. #    293  SI_dArea  vol(   0 ): 7.160E+15  Parms: SM      MX      
 Compute Stats, Diag. #    294  SI_dHeff  vol(   0 ): 7.160E+15  Parms: SM      MX      
 Compute Stats, Diag. #    295  SI_dHsnw  vol(   0 ): 7.160E+15  Parms: SM      MX      
 Compute Stats, Diag. #    298  SI_dQSnw  vol(   0 ): 7.160E+15  Parms: SM      MX      
 Compute Stats, Diag. #    297  SI_dQIce  vol(   0 ): 2.864E+16  Parms: SM      MX      
 cg2d: Sum(rhs),rhsMax =   7.66198864922400E+01  2.98156724138315E-01
 Computing Diagnostic #    289  SIqIce       Counter:       1   Parms: SM      MX      
 Computing Diagnostic #    297  SI_dQIce     Counter:       1   Parms: SM      MX      
 Computing Diagnostic #    290  SIqSnow      Counter:       1   Parms: SM      MX      
 Computing Diagnostic #    298  SI_dQSnw     Counter:       1   Parms: SM      MX      
 cg2d: Sum(rhs),rhsMax =   7.66006206111468E+01  2.98139412621695E-01
 cg2d: Sum(rhs),rhsMax =   7.65773418196612E+01  2.98198415391262E-01
 cg2d: Sum(rhs),rhsMax =   7.65471331599389E+01  2.98338888246184E-01
(PID.TID 0000.0001)      cg2d_init_res =   3.46228347705153E-01
(PID.TID 0000.0001)      cg2d_iters(min,last) =      -1      32
(PID.TID 0000.0001)      cg2d_last_res =   2.79726589684459E-05
(PID.TID 0000.0001) // =======================================================
(PID.TID 0000.0001) // Begin MONITOR dynamic field statistics
(PID.TID 0000.0001) // =======================================================
(PID.TID 0000.0001) %MON time_tsnumber                =                    64
(PID.TID 0000.0001) %MON time_secondsf                =   5.7600000000000E+04
(PID.TID 0000.0001) %MON dynstat_eta_max              =   1.0917679897716E+00
(PID.TID 0000.0001) %MON dynstat_eta_min              =  -3.1036670892121E+00
(PID.TID 0000.0001) %MON dynstat_eta_mean             =  -2.4214302971710E-03
(PID.TID 0000.0001) %MON dynstat_eta_sd               =   7.0317445691135E-01
(PID.TID 0000.0001) %MON dynstat_eta_del2             =   8.1960326379177E-05
(PID.TID 0000.0001) %MON dynstat_uvel_max             =   9.3812371952284E-01
(PID.TID 0000.0001) %MON dynstat_uvel_min             =  -1.0244812018287E+00
(PID.TID 0000.0001) %MON dynstat_uvel_mean            =   1.6155654532537E-03
(PID.TID 0000.0001) %MON dynstat_uvel_sd              =   2.1582719884408E-02
(PID.TID 0000.0001) %MON dynstat_uvel_del2            =   1.2881405012112E-05
(PID.TID 0000.0001) %MON dynstat_vvel_max             =   1.0264179689739E+00
(PID.TID 0000.0001) %MON dynstat_vvel_min             =  -9.2014425285309E-01
(PID.TID 0000.0001) %MON dynstat_vvel_mean            =   1.6258936249683E-03
(PID.TID 0000.0001) %MON dynstat_vvel_sd              =   2.2842889754717E-02
(PID.TID 0000.0001) %MON dynstat_vvel_del2            =   1.3211119703767E-05
(PID.TID 0000.0001) %MON dynstat_wvel_max             =   4.1932436605371E-03
(PID.TID 0000.0001) %MON dynstat_wvel_min             =  -2.5347145145409E-03
(PID.TID 0000.0001) %MON dynstat_wvel_mean            =   7.5820952882441E-08
(PID.TID 0000.0001) %MON dynstat_wvel_sd              =   3.3577391519816E-05
(PID.TID 0000.0001) %MON dynstat_wvel_del2            =   5.3020372398081E-08
(PID.TID 0000.0001) %MON dynstat_theta_max            =   3.2638938813415E+01
(PID.TID 0000.0001) %MON dynstat_theta_min            =  -2.0419540015076E+00
(PID.TID 0000.0001) %MON dynstat_theta_mean           =   3.5905167474423E+00
(PID.TID 0000.0001) %MON dynstat_theta_sd             =   4.4362566152075E+00
(PID.TID 0000.0001) %MON dynstat_theta_del2           =   1.0498727693614E-04
(PID.TID 0000.0001) %MON dynstat_salt_max             =   4.0711521306223E+01
(PID.TID 0000.0001) %MON dynstat_salt_min             =   1.8901230397304E+01
(PID.TID 0000.0001) %MON dynstat_salt_mean            =   3.4725628382969E+01
(PID.TID 0000.0001) %MON dynstat_salt_sd              =   3.7715580447904E-01
(PID.TID 0000.0001) %MON dynstat_salt_del2            =   2.8794656456612E-05
(PID.TID 0000.0001) %MON dynstat_sst_max              =   3.2608592433383E+01
(PID.TID 0000.0001) %MON dynstat_sst_min              =  -1.8932691153060E+00
(PID.TID 0000.0001) %MON dynstat_sst_mean             =   1.8479023447347E+01
(PID.TID 0000.0001) %MON dynstat_sst_sd               =   1.0106511851775E+01
(PID.TID 0000.0001) %MON dynstat_sst_del2             =   8.4698732960616E-04
(PID.TID 0000.0001) %MON dynstat_sss_max              =   3.9421439714835E+01
(PID.TID 0000.0001) %MON dynstat_sss_min              =   1.8901230397304E+01
(PID.TID 0000.0001) %MON dynstat_sss_mean             =   3.4684480587901E+01
(PID.TID 0000.0001) %MON dynstat_sss_sd               =   1.1251082132607E+00
(PID.TID 0000.0001) %MON dynstat_sss_del2             =   6.4047023647718E-04
(PID.TID 0000.0001) %MON forcing_qnet_max             =   2.0978996582031E+03
(PID.TID 0000.0001) %MON forcing_qnet_min             =  -7.8991327331448E+02
(PID.TID 0000.0001) %MON forcing_qnet_mean            =   2.7855214327204E+01
(PID.TID 0000.0001) %MON forcing_qnet_sd              =   1.9472080265914E+02
(PID.TID 0000.0001) %MON forcing_qnet_del2            =   3.9605958810090E-01
(PID.TID 0000.0001) %MON forcing_qsw_max              =   0.0000000000000E+00
(PID.TID 0000.0001) %MON forcing_qsw_min              =  -1.0357169318054E+02
(PID.TID 0000.0001) %MON forcing_qsw_mean             =  -1.5628986471749E+01
(PID.TID 0000.0001) %MON forcing_qsw_sd               =   2.7161468637033E+01
(PID.TID 0000.0001) %MON forcing_qsw_del2             =   2.1760864414122E-02
(PID.TID 0000.0001) %MON forcing_empmr_max            =   2.4631076958030E-03
(PID.TID 0000.0001) %MON forcing_empmr_min            =  -8.4566138684750E-02
(PID.TID 0000.0001) %MON forcing_empmr_mean           =  -1.0925652024551E-06
(PID.TID 0000.0001) %MON forcing_empmr_sd             =   3.6807740360413E-04
(PID.TID 0000.0001) %MON forcing_empmr_del2           =   4.6075735297940E-06
(PID.TID 0000.0001) %MON forcing_fu_max               =   9.9922802616323E-01
(PID.TID 0000.0001) %MON forcing_fu_min               =  -9.2657374526112E-01
(PID.TID 0000.0001) %MON forcing_fu_mean              =   1.0440157792126E-02
(PID.TID 0000.0001) %MON forcing_fu_sd                =   1.0694404856527E-01
(PID.TID 0000.0001) %MON forcing_fu_del2              =   1.5280118164190E-04
(PID.TID 0000.0001) %MON forcing_fv_max               =   9.6222044607681E-01
(PID.TID 0000.0001) %MON forcing_fv_min               =  -7.0483660436203E-01
(PID.TID 0000.0001) %MON forcing_fv_mean              =  -7.5207283617040E-03
(PID.TID 0000.0001) %MON forcing_fv_sd                =   1.0368854240292E-01
(PID.TID 0000.0001) %MON forcing_fv_del2              =   1.3089667931326E-04
(PID.TID 0000.0001) %MON trAdv_CFL_u_max              =   2.1284862839414E-02
(PID.TID 0000.0001) %MON trAdv_CFL_v_max              =   1.9409281812731E-02
(PID.TID 0000.0001) %MON trAdv_CFL_w_max              =   8.0311517124632E-02
(PID.TID 0000.0001) %MON advcfl_uvel_max              =   1.6949954874013E-02
(PID.TID 0000.0001) %MON advcfl_vvel_max              =   1.8219724978499E-02
(PID.TID 0000.0001) %MON advcfl_wvel_max              =   8.3700391464395E-02
(PID.TID 0000.0001) %MON advcfl_W_hf_max              =   8.9097683369962E-02
(PID.TID 0000.0001) %MON pe_b_mean                    =   6.5041400340861E-04
(PID.TID 0000.0001) %MON ke_max                       =   6.4778501696283E-01
(PID.TID 0000.0001) %MON ke_mean                      =   4.7875366394410E-04
(PID.TID 0000.0001) %MON ke_vol                       =   1.3349970096916E+18
(PID.TID 0000.0001) %MON vort_r_min                   =  -2.8637896961093E-05
(PID.TID 0000.0001) %MON vort_r_max                   =   3.1772118393550E-05
(PID.TID 0000.0001) %MON vort_a_mean                  =  -1.9727864647440E-05
(PID.TID 0000.0001) %MON vort_a_sd                    =   7.4543335021676E-05
(PID.TID 0000.0001) %MON vort_p_mean                  =  -2.1760544251452E-05
(PID.TID 0000.0001) %MON vort_p_sd                    =   9.7245550942363E-05
(PID.TID 0000.0001) %MON surfExpan_theta_mean         =  -2.6832990282670E-06
(PID.TID 0000.0001) %MON surfExpan_salt_mean          =  -2.4102040589776E-07
(PID.TID 0000.0001) // =======================================================
(PID.TID 0000.0001) // End MONITOR dynamic field statistics
(PID.TID 0000.0001) // =======================================================
(PID.TID 0000.0001) // =======================================================
(PID.TID 0000.0001) // Begin MONITOR SEAICE statistics
(PID.TID 0000.0001) // =======================================================
(PID.TID 0000.0001) %MON seaice_tsnumber              =                    64
(PID.TID 0000.0001) %MON seaice_time_sec              =   5.7600000000000E+04
(PID.TID 0000.0001) %MON seaice_uice_max              =   6.2801337732908E-01
(PID.TID 0000.0001) %MON seaice_uice_min              =  -6.1019202557881E-01
(PID.TID 0000.0001) %MON seaice_uice_mean             =  -1.1908613798802E-04
(PID.TID 0000.0001) %MON seaice_uice_sd               =   1.4275128940279E-01
(PID.TID 0000.0001) %MON seaice_uice_del2             =   2.0193248736619E-04
(PID.TID 0000.0001) %MON seaice_vice_max              =   8.3789267863351E-01
(PID.TID 0000.0001) %MON seaice_vice_min              =  -9.1075875359779E-01
(PID.TID 0000.0001) %MON seaice_vice_mean             =  -1.8281904096492E-02
(PID.TID 0000.0001) %MON seaice_vice_sd               =   1.3215226018022E-01
(PID.TID 0000.0001) %MON seaice_vice_del2             =   1.7334956666286E-04
(PID.TID 0000.0001) %MON seaice_area_max              =   1.0000000000000E+00
(PID.TID 0000.0001) %MON seaice_area_min              =   0.0000000000000E+00
(PID.TID 0000.0001) %MON seaice_area_mean             =   7.1031519588200E-02
(PID.TID 0000.0001) %MON seaice_area_sd               =   2.3673347749933E-01
(PID.TID 0000.0001) %MON seaice_area_del2             =   3.8073865484921E-04
(PID.TID 0000.0001) %MON seaice_heff_max              =   2.5096074753817E+01
(PID.TID 0000.0001) %MON seaice_heff_min              =   0.0000000000000E+00
(PID.TID 0000.0001) %MON seaice_heff_mean             =   2.1691760243835E-01
(PID.TID 0000.0001) %MON seaice_heff_sd               =   1.0635795759816E+00
(PID.TID 0000.0001) %MON seaice_heff_del2             =   3.1721600525915E-03
(PID.TID 0000.0001) %MON seaice_hsnow_max             =   8.2887533749300E+00
(PID.TID 0000.0001) %MON seaice_hsnow_min             =   0.0000000000000E+00
(PID.TID 0000.0001) %MON seaice_hsnow_mean            =   2.4595139483618E-02
(PID.TID 0000.0001) %MON seaice_hsnow_sd              =   1.5318734758548E-01
(PID.TID 0000.0001) %MON seaice_hsnow_del2            =   1.0066495880040E-03
(PID.TID 0000.0001) // =======================================================
(PID.TID 0000.0001) // End MONITOR SEAICE statistics
(PID.TID 0000.0001) // =======================================================
 Computing Diagnostic #     86  oceQnet      Counter:       4   Parms: SM      U1      
 Computing Diagnostic #     87  oceQsw       Counter:       4   Parms: SM      U1      
 Computing Diagnostic #     84  oceFWflx     Counter:       4   Parms: SM      U1      
 Computing Diagnostic #     85  oceSflux     Counter:       4   Parms: SM      U1      
 Computing Diagnostic #     80  oceTAUX      Counter:       4   Parms: UU      U1      
           Vector  Mate for  oceTAUX      Diagnostic #     81  oceTAUY  exists 
 Computing Diagnostic #     81  oceTAUY      Counter:       4   Parms: VV      U1      
           Vector  Mate for  oceTAUY      Diagnostic #     80  oceTAUX  exists 
 Computing Diagnostic #     26  THETA        Counter:       4   Parms: SMR     MR      
 Computing Diagnostic #     27  SALT         Counter:       4   Parms: SMR     MR      
 Computing Diagnostic #     30  UVEL         Counter:       4   Parms: UUR     MR      
           Vector  Mate for  UVEL         Diagnostic #     31  VVEL     exists 
 Computing Diagnostic #     31  VVEL         Counter:       4   Parms: VVR     MR      
           Vector  Mate for  VVEL         Diagnostic #     30  UVEL     exists 
 Computing Diagnostic #    214  SIarea       Counter:       4   Parms: SM      M1      
 Computing Diagnostic #    217  SIheff       Counter:       4   Parms: SM      M1      
 Computing Diagnostic #    219  SIhsnow      Counter:       4   Parms: SM      M1      
 Computing Diagnostic #     83  sIceLoad     Counter:       4   Parms: SM      U1      
 Computing Diagnostic #    223  SIuice       Counter:       4   Parms: UU      M1      
           Vector  Mate for  SIuice       Diagnostic #    224  SIvice   exists 
 Computing Diagnostic #    224  SIvice       Counter:       4   Parms: VV      M1      
           Vector  Mate for  SIvice       Diagnostic #    223  SIuice   exists 
 Computing Diagnostic #    225  SItaux       Counter:       4   Parms: UU      U1      
           Vector  Mate for  SItaux       Diagnostic #    226  SItauy   exists 
 Computing Diagnostic #    226  SItauy       Counter:       4   Parms: VV      U1      
           Vector  Mate for  SItauy       Diagnostic #    225  SItaux   exists 
 Computing Diagnostic #    285  SIareaN      Counter:       4   Parms: SM      MX      
 Computing Diagnostic #    284  SIheffN      Counter:       4   Parms: SM      MX      
 Computing Diagnostic #    286  SIhsnowN     Counter:       4   Parms: SM      MX      
 Computing Diagnostic #    290  SIqSnow      Counter:       4   Parms: SM      MX      
 Computing Diagnostic #    291  SImeltPd     Counter:       4   Parms: SM      MX      
 Computing Diagnostic #    288  SItIces      Counter:       4   Parms: SM      MX      
 Computing Diagnostic #    292  SIiceAge     Counter:       4   Parms: SM      MX      
 Computing Diagnostic #    293  SI_dArea     Counter:       4   Parms: SM      MX      
 Computing Diagnostic #    294  SI_dHeff     Counter:       4   Parms: SM      MX      
 Computing Diagnostic #    295  SI_dHsnw     Counter:       4   Parms: SM      MX      
 Computing Diagnostic #    298  SI_dQSnw     Counter:       4   Parms: SM      MX      
 Compute Stats, Diag. #    214  SIarea    vol(   0 ): 1.432E+15  Parms: SM      M1      
 Compute Stats, Diag. #    217  SIheff    vol(   0 ): 1.432E+15  Parms: SM      M1      
 Compute Stats, Diag. #    219  SIhsnow   vol(   0 ): 1.432E+15  Parms: SM      M1      
 Compute Stats, Diag. #     83  sIceLoad  vol(   0 ): 1.432E+15  Parms: SM      U1      
 Compute Stats, Diag. #    223  SIuice    vol(   0 ): 1.405E+15  Parms: UU      M1      
 Compute Stats, Diag. #    224  SIvice    vol(   0 ): 1.403E+15  Parms: VV      M1      
 Compute Stats, Diag. #    225  SItaux    vol(   0 ): 1.405E+15  Parms: UU      U1      
 Compute Stats, Diag. #    226  SItauy    vol(   0 ): 1.403E+15  Parms: VV      U1      
 Compute Stats, Diag. #    285  SIareaN   vol(   0 ): 7.160E+15  Parms: SM      MX      
 Compute Stats, Diag. #    284  SIheffN   vol(   0 ): 7.160E+15  Parms: SM      MX      
 Compute Stats, Diag. #    286  SIhsnowN  vol(   0 ): 7.160E+15  Parms: SM      MX      
 Compute Stats, Diag. #    290  SIqSnow   vol(   0 ): 7.160E+15  Parms: SM      MX      
 Compute Stats, Diag. #    289  SIqIce    vol(   0 ): 2.864E+16  Parms: SM      MX      
 Compute Stats, Diag. #    291  SImeltPd  vol(   0 ): 7.160E+15  Parms: SM      MX      
 Compute Stats, Diag. #    288  SItIces   vol(   0 ): 7.160E+15  Parms: SM      MX      
 Compute Stats, Diag. #    292  SIiceAge  vol(   0 ): 7.160E+15  Parms: SM      MX      
 Compute Stats, Diag. #    293  SI_dArea  vol(   0 ): 7.160E+15  Parms: SM      MX      
 Compute Stats, Diag. #    294  SI_dHeff  vol(   0 ): 7.160E+15  Parms: SM      MX      
 Compute Stats, Diag. #    295  SI_dHsnw  vol(   0 ): 7.160E+15  Parms: SM      MX      
 Compute Stats, Diag. #    298  SI_dQSnw  vol(   0 ): 7.160E+15  Parms: SM      MX      
 Compute Stats, Diag. #    297  SI_dQIce  vol(   0 ): 2.864E+16  Parms: SM      MX      
 SEAICE_LSR: Residual Initial ipass,Uice,Vice=    1  9.72721159E-03  8.74465248E-03
 SEAICE_LSR (ipass=   1) iters,dU,Resid=    54  4.21971670E-05  1.50602313E-03
 SEAICE_LSR (ipass=   1) iters,dV,Resid=    54  9.85259238E-05  1.25201299E-03
 SEAICE_LSR: Residual Initial ipass,Uice,Vice=    2  8.24369581E-03  7.57735866E-03
 SEAICE_LSR (ipass=   2) iters,dU,Resid=    38  5.15738355E-05  1.48628492E-03
 SEAICE_LSR (ipass=   2) iters,dV,Resid=    38  9.61237755E-05  1.32496633E-03
 cg2d: Sum(rhs),rhsMax =   7.65089259901943E+01  2.98559785976687E-01
 Computing Diagnostic #    289  SIqIce       Counter:       1   Parms: SM      MX      
 Computing Diagnostic #    297  SI_dQIce     Counter:       1   Parms: SM      MX      
 Computing Diagnostic #    290  SIqSnow      Counter:       1   Parms: SM      MX      
 Computing Diagnostic #    298  SI_dQSnw     Counter:       1   Parms: SM      MX      
 cg2d: Sum(rhs),rhsMax =   7.64650839959993E+01  2.98855338968196E-01
 cg2d: Sum(rhs),rhsMax =   7.64118658422653E+01  2.99215459401135E-01
 cg2d: Sum(rhs),rhsMax =   7.63568566433034E+01  2.99626742870408E-01
 Computing Diagnostic #     86  oceQnet      Counter:       4   Parms: SM      U1      
 Computing Diagnostic #     87  oceQsw       Counter:       4   Parms: SM      U1      
 Computing Diagnostic #     84  oceFWflx     Counter:       4   Parms: SM      U1      
 Computing Diagnostic #     85  oceSflux     Counter:       4   Parms: SM      U1      
 Computing Diagnostic #     80  oceTAUX      Counter:       4   Parms: UU      U1      
           Vector  Mate for  oceTAUX      Diagnostic #     81  oceTAUY  exists 
 Computing Diagnostic #     81  oceTAUY      Counter:       4   Parms: VV      U1      
           Vector  Mate for  oceTAUY      Diagnostic #     80  oceTAUX  exists 
 Computing Diagnostic #     26  THETA        Counter:       4   Parms: SMR     MR      
 Computing Diagnostic #     27  SALT         Counter:       4   Parms: SMR     MR      
 Computing Diagnostic #     30  UVEL         Counter:       4   Parms: UUR     MR      
           Vector  Mate for  UVEL         Diagnostic #     31  VVEL     exists 
 Computing Diagnostic #     31  VVEL         Counter:       4   Parms: VVR     MR      
           Vector  Mate for  VVEL         Diagnostic #     30  UVEL     exists 
 Computing Diagnostic #    214  SIarea       Counter:       4   Parms: SM      M1      
 Computing Diagnostic #    217  SIheff       Counter:       4   Parms: SM      M1      
 Computing Diagnostic #    219  SIhsnow      Counter:       4   Parms: SM      M1      
 Computing Diagnostic #     83  sIceLoad     Counter:       4   Parms: SM      U1      
 Computing Diagnostic #    223  SIuice       Counter:       4   Parms: UU      M1      
           Vector  Mate for  SIuice       Diagnostic #    224  SIvice   exists 
 Computing Diagnostic #    224  SIvice       Counter:       4   Parms: VV      M1      
           Vector  Mate for  SIvice       Diagnostic #    223  SIuice   exists 
 Computing Diagnostic #    225  SItaux       Counter:       4   Parms: UU      U1      
           Vector  Mate for  SItaux       Diagnostic #    226  SItauy   exists 
 Computing Diagnostic #    226  SItauy       Counter:       4   Parms: VV      U1      
           Vector  Mate for  SItauy       Diagnostic #    225  SItaux   exists 
 Computing Diagnostic #    285  SIareaN      Counter:       4   Parms: SM      MX      
 Computing Diagnostic #    284  SIheffN      Counter:       4   Parms: SM      MX      
 Computing Diagnostic #    286  SIhsnowN     Counter:       4   Parms: SM      MX      
 Computing Diagnostic #    290  SIqSnow      Counter:       4   Parms: SM      MX      
 Computing Diagnostic #    291  SImeltPd     Counter:       4   Parms: SM      MX      
 Computing Diagnostic #    288  SItIces      Counter:       4   Parms: SM      MX      
 Computing Diagnostic #    292  SIiceAge     Counter:       4   Parms: SM      MX      
 Computing Diagnostic #    293  SI_dArea     Counter:       4   Parms: SM      MX      
 Computing Diagnostic #    294  SI_dHeff     Counter:       4   Parms: SM      MX      
 Computing Diagnostic #    295  SI_dHsnw     Counter:       4   Parms: SM      MX      
 Computing Diagnostic #    298  SI_dQSnw     Counter:       4   Parms: SM      MX      
 Compute Stats, Diag. #    214  SIarea    vol(   0 ): 1.432E+15  Parms: SM      M1      
 Compute Stats, Diag. #    217  SIheff    vol(   0 ): 1.432E+15  Parms: SM      M1      
 Compute Stats, Diag. #    219  SIhsnow   vol(   0 ): 1.432E+15  Parms: SM      M1      
 Compute Stats, Diag. #     83  sIceLoad  vol(   0 ): 1.432E+15  Parms: SM      U1      
 Compute Stats, Diag. #    223  SIuice    vol(   0 ): 1.405E+15  Parms: UU      M1      
 Compute Stats, Diag. #    224  SIvice    vol(   0 ): 1.403E+15  Parms: VV      M1      
 Compute Stats, Diag. #    225  SItaux    vol(   0 ): 1.405E+15  Parms: UU      U1      
 Compute Stats, Diag. #    226  SItauy    vol(   0 ): 1.403E+15  Parms: VV      U1      
 Compute Stats, Diag. #    285  SIareaN   vol(   0 ): 7.160E+15  Parms: SM      MX      
 Compute Stats, Diag. #    284  SIheffN   vol(   0 ): 7.160E+15  Parms: SM      MX      
 Compute Stats, Diag. #    286  SIhsnowN  vol(   0 ): 7.160E+15  Parms: SM      MX      
 Compute Stats, Diag. #    290  SIqSnow   vol(   0 ): 7.160E+15  Parms: SM      MX      
 Compute Stats, Diag. #    289  SIqIce    vol(   0 ): 2.864E+16  Parms: SM      MX      
 Compute Stats, Diag. #    291  SImeltPd  vol(   0 ): 7.160E+15  Parms: SM      MX      
 Compute Stats, Diag. #    288  SItIces   vol(   0 ): 7.160E+15  Parms: SM      MX      
 Compute Stats, Diag. #    292  SIiceAge  vol(   0 ): 7.160E+15  Parms: SM      MX      
 Compute Stats, Diag. #    293  SI_dArea  vol(   0 ): 7.160E+15  Parms: SM      MX      
 Compute Stats, Diag. #    294  SI_dHeff  vol(   0 ): 7.160E+15  Parms: SM      MX      
 Compute Stats, Diag. #    295  SI_dHsnw  vol(   0 ): 7.160E+15  Parms: SM      MX      
 Compute Stats, Diag. #    298  SI_dQSnw  vol(   0 ): 7.160E+15  Parms: SM      MX      
 Compute Stats, Diag. #    297  SI_dQIce  vol(   0 ): 2.864E+16  Parms: SM      MX      
 cg2d: Sum(rhs),rhsMax =   7.62958492953864E+01  3.00074234170123E-01
 Computing Diagnostic #    289  SIqIce       Counter:       1   Parms: SM      MX      
 Computing Diagnostic #    297  SI_dQIce     Counter:       1   Parms: SM      MX      
 Computing Diagnostic #    290  SIqSnow      Counter:       1   Parms: SM      MX      
 Computing Diagnostic #    298  SI_dQSnw     Counter:       1   Parms: SM      MX      
 cg2d: Sum(rhs),rhsMax =   7.62332444280919E+01  3.00542120111531E-01
 cg2d: Sum(rhs),rhsMax =   7.61607516410462E+01  3.01014328109509E-01
 cg2d: Sum(rhs),rhsMax =   7.60856533475257E+01  3.01476138996209E-01
(PID.TID 0000.0001)      cg2d_init_res =   3.22817875384600E-01
(PID.TID 0000.0001)      cg2d_iters(min,last) =      -1      32
(PID.TID 0000.0001)      cg2d_last_res =   2.28089043898175E-05
(PID.TID 0000.0001) // =======================================================
(PID.TID 0000.0001) // Begin MONITOR dynamic field statistics
(PID.TID 0000.0001) // =======================================================
(PID.TID 0000.0001) %MON time_tsnumber                =                    72
(PID.TID 0000.0001) %MON time_secondsf                =   6.4800000000000E+04
(PID.TID 0000.0001) %MON dynstat_eta_max              =   1.0826964480599E+00
(PID.TID 0000.0001) %MON dynstat_eta_min              =  -2.9520314749266E+00
(PID.TID 0000.0001) %MON dynstat_eta_mean             =  -2.4068322168356E-03
(PID.TID 0000.0001) %MON dynstat_eta_sd               =   6.9756694807103E-01
(PID.TID 0000.0001) %MON dynstat_eta_del2             =   7.9972542878416E-05
(PID.TID 0000.0001) %MON dynstat_uvel_max             =   9.1840614335819E-01
(PID.TID 0000.0001) %MON dynstat_uvel_min             =  -1.0061131579353E+00
(PID.TID 0000.0001) %MON dynstat_uvel_mean            =   1.4176492655681E-03
(PID.TID 0000.0001) %MON dynstat_uvel_sd              =   2.1453271263180E-02
(PID.TID 0000.0001) %MON dynstat_uvel_del2            =   1.2857144213871E-05
(PID.TID 0000.0001) %MON dynstat_vvel_max             =   1.0130564593177E+00
(PID.TID 0000.0001) %MON dynstat_vvel_min             =  -9.1646778942478E-01
(PID.TID 0000.0001) %MON dynstat_vvel_mean            =   1.6774892236028E-03
(PID.TID 0000.0001) %MON dynstat_vvel_sd              =   2.2746707102278E-02
(PID.TID 0000.0001) %MON dynstat_vvel_del2            =   1.2990086708735E-05
(PID.TID 0000.0001) %MON dynstat_wvel_max             =   4.0780699715939E-03
(PID.TID 0000.0001) %MON dynstat_wvel_min             =  -2.4805733052833E-03
(PID.TID 0000.0001) %MON dynstat_wvel_mean            =   5.5233099037934E-08
(PID.TID 0000.0001) %MON dynstat_wvel_sd              =   3.2737247326794E-05
(PID.TID 0000.0001) %MON dynstat_wvel_del2            =   5.2171390735850E-08
(PID.TID 0000.0001) %MON dynstat_theta_max            =   3.2633430438741E+01
(PID.TID 0000.0001) %MON dynstat_theta_min            =  -2.0419404406524E+00
(PID.TID 0000.0001) %MON dynstat_theta_mean           =   3.5905077535514E+00
(PID.TID 0000.0001) %MON dynstat_theta_sd             =   4.4362167419642E+00
(PID.TID 0000.0001) %MON dynstat_theta_del2           =   1.0442438408938E-04
(PID.TID 0000.0001) %MON dynstat_salt_max             =   4.0711520901204E+01
(PID.TID 0000.0001) %MON dynstat_salt_min             =   1.8904717329157E+01
(PID.TID 0000.0001) %MON dynstat_salt_mean            =   3.4725623020860E+01
(PID.TID 0000.0001) %MON dynstat_salt_sd              =   3.7713350012795E-01
(PID.TID 0000.0001) %MON dynstat_salt_del2            =   2.8963532746142E-05
(PID.TID 0000.0001) %MON dynstat_sst_max              =   3.2585057183431E+01
(PID.TID 0000.0001) %MON dynstat_sst_min              =  -1.8863014979495E+00
(PID.TID 0000.0001) %MON dynstat_sst_mean             =   1.8479921389778E+01
(PID.TID 0000.0001) %MON dynstat_sst_sd               =   1.0107898856036E+01
(PID.TID 0000.0001) %MON dynstat_sst_del2             =   8.4317435045579E-04
(PID.TID 0000.0001) %MON dynstat_sss_max              =   3.9398342854001E+01
(PID.TID 0000.0001) %MON dynstat_sss_min              =   1.8904717329157E+01
(PID.TID 0000.0001) %MON dynstat_sss_mean             =   3.4685365373379E+01
(PID.TID 0000.0001) %MON dynstat_sss_sd               =   1.1262357256472E+00
(PID.TID 0000.0001) %MON dynstat_sss_del2             =   6.6102275537980E-04
(PID.TID 0000.0001) %MON forcing_qnet_max             =   8.0748559157271E+02
(PID.TID 0000.0001) %MON forcing_qnet_min             =  -1.0887402343750E+03
(PID.TID 0000.0001) %MON forcing_qnet_mean            =   1.3185508950568E+01
(PID.TID 0000.0001) %MON forcing_qnet_sd              =   2.0498436002401E+02
(PID.TID 0000.0001) %MON forcing_qnet_del2            =   3.5648367908253E-01
(PID.TID 0000.0001) %MON forcing_qsw_max              =   0.0000000000000E+00
(PID.TID 0000.0001) %MON forcing_qsw_min              =  -1.0951096217102E+02
(PID.TID 0000.0001) %MON forcing_qsw_mean             =  -1.7131371661287E+01
(PID.TID 0000.0001) %MON forcing_qsw_sd               =   2.9013342260983E+01
(PID.TID 0000.0001) %MON forcing_qsw_del2             =   2.1532521275545E-02
(PID.TID 0000.0001) %MON forcing_empmr_max            =   1.8161350162700E-03
(PID.TID 0000.0001) %MON forcing_empmr_min            =  -9.8215192556381E-02
(PID.TID 0000.0001) %MON forcing_empmr_mean           =  -2.7161013769971E-06
(PID.TID 0000.0001) %MON forcing_empmr_sd             =   3.9476487363305E-04
(PID.TID 0000.0001) %MON forcing_empmr_del2           =   4.2207736641046E-06
(PID.TID 0000.0001) %MON forcing_fu_max               =   9.8667526402746E-01
(PID.TID 0000.0001) %MON forcing_fu_min               =  -8.4527562536814E-01
(PID.TID 0000.0001) %MON forcing_fu_mean              =   1.0004124339824E-02
(PID.TID 0000.0001) %MON forcing_fu_sd                =   1.0552777941002E-01
(PID.TID 0000.0001) %MON forcing_fu_del2              =   1.5023953175033E-04
(PID.TID 0000.0001) %MON forcing_fv_max               =   9.2176772828932E-01
(PID.TID 0000.0001) %MON forcing_fv_min               =  -7.5362784666899E-01
(PID.TID 0000.0001) %MON forcing_fv_mean              =  -7.5114085851491E-03
(PID.TID 0000.0001) %MON forcing_fv_sd                =   1.0321963289987E-01
(PID.TID 0000.0001) %MON forcing_fv_del2              =   1.2874165978173E-04
(PID.TID 0000.0001) %MON trAdv_CFL_u_max              =   2.2101845537267E-02
(PID.TID 0000.0001) %MON trAdv_CFL_v_max              =   1.9010725913902E-02
(PID.TID 0000.0001) %MON trAdv_CFL_w_max              =   9.0238659487782E-02
(PID.TID 0000.0001) %MON advcfl_uvel_max              =   1.9241563467476E-02
(PID.TID 0000.0001) %MON advcfl_vvel_max              =   1.7982668127910E-02
(PID.TID 0000.0001) %MON advcfl_wvel_max              =   9.3929450037460E-02
(PID.TID 0000.0001) %MON advcfl_W_hf_max              =   9.9167512820034E-02
(PID.TID 0000.0001) %MON pe_b_mean                    =   6.4008185856823E-04
(PID.TID 0000.0001) %MON ke_max                       =   6.2920952340397E-01
(PID.TID 0000.0001) %MON ke_mean                      =   4.7374586306703E-04
(PID.TID 0000.0001) %MON ke_vol                       =   1.3349970144095E+18
(PID.TID 0000.0001) %MON vort_r_min                   =  -2.8201193839564E-05
(PID.TID 0000.0001) %MON vort_r_max                   =   3.5520694618979E-05
(PID.TID 0000.0001) %MON vort_a_mean                  =  -1.9727864647440E-05
(PID.TID 0000.0001) %MON vort_a_sd                    =   7.4543309246630E-05
(PID.TID 0000.0001) %MON vort_p_mean                  =  -2.1760543885023E-05
(PID.TID 0000.0001) %MON vort_p_sd                    =   9.7245783739368E-05
(PID.TID 0000.0001) %MON surfExpan_theta_mean         =  -2.3501530069376E-06
(PID.TID 0000.0001) %MON surfExpan_salt_mean          =  -1.3970305473187E-07
(PID.TID 0000.0001) // =======================================================
(PID.TID 0000.0001) // End MONITOR dynamic field statistics
(PID.TID 0000.0001) // =======================================================
(PID.TID 0000.0001) // =======================================================
(PID.TID 0000.0001) // Begin MONITOR SEAICE statistics
(PID.TID 0000.0001) // =======================================================
(PID.TID 0000.0001) %MON seaice_tsnumber              =                    72
(PID.TID 0000.0001) %MON seaice_time_sec              =   6.4800000000000E+04
(PID.TID 0000.0001) %MON seaice_uice_max              =   6.6759615214601E-01
(PID.TID 0000.0001) %MON seaice_uice_min              =  -6.0988620514114E-01
(PID.TID 0000.0001) %MON seaice_uice_mean             =   2.0831251086629E-04
(PID.TID 0000.0001) %MON seaice_uice_sd               =   1.4288367694043E-01
(PID.TID 0000.0001) %MON seaice_uice_del2             =   2.0133798438330E-04
(PID.TID 0000.0001) %MON seaice_vice_max              =   8.6020098638370E-01
(PID.TID 0000.0001) %MON seaice_vice_min              =  -9.1687373177586E-01
(PID.TID 0000.0001) %MON seaice_vice_mean             =  -1.9348636979297E-02
(PID.TID 0000.0001) %MON seaice_vice_sd               =   1.3102314524208E-01
(PID.TID 0000.0001) %MON seaice_vice_del2             =   1.7131712174827E-04
(PID.TID 0000.0001) %MON seaice_area_max              =   1.0000000000000E+00
(PID.TID 0000.0001) %MON seaice_area_min              =   0.0000000000000E+00
(PID.TID 0000.0001) %MON seaice_area_mean             =   7.0888335812804E-02
(PID.TID 0000.0001) %MON seaice_area_sd               =   2.3660131715287E-01
(PID.TID 0000.0001) %MON seaice_area_del2             =   3.7322785203115E-04
(PID.TID 0000.0001) %MON seaice_heff_max              =   2.5092027761618E+01
(PID.TID 0000.0001) %MON seaice_heff_min              =   0.0000000000000E+00
(PID.TID 0000.0001) %MON seaice_heff_mean             =   2.1691026580304E-01
(PID.TID 0000.0001) %MON seaice_heff_sd               =   1.0633730120433E+00
(PID.TID 0000.0001) %MON seaice_heff_del2             =   3.1210525082121E-03
(PID.TID 0000.0001) %MON seaice_hsnow_max             =   8.2874212842192E+00
(PID.TID 0000.0001) %MON seaice_hsnow_min             =   0.0000000000000E+00
(PID.TID 0000.0001) %MON seaice_hsnow_mean            =   2.4586897992189E-02
(PID.TID 0000.0001) %MON seaice_hsnow_sd              =   1.5282212801635E-01
(PID.TID 0000.0001) %MON seaice_hsnow_del2            =   9.8971118753288E-04
(PID.TID 0000.0001) // =======================================================
(PID.TID 0000.0001) // End MONITOR SEAICE statistics
(PID.TID 0000.0001) // =======================================================
 Computing Diagnostic #     86  oceQnet      Counter:       4   Parms: SM      U1      
 Computing Diagnostic #     87  oceQsw       Counter:       4   Parms: SM      U1      
 Computing Diagnostic #     84  oceFWflx     Counter:       4   Parms: SM      U1      
 Computing Diagnostic #     85  oceSflux     Counter:       4   Parms: SM      U1      
 Computing Diagnostic #     80  oceTAUX      Counter:       4   Parms: UU      U1      
           Vector  Mate for  oceTAUX      Diagnostic #     81  oceTAUY  exists 
 Computing Diagnostic #     81  oceTAUY      Counter:       4   Parms: VV      U1      
           Vector  Mate for  oceTAUY      Diagnostic #     80  oceTAUX  exists 
 Computing Diagnostic #     26  THETA        Counter:       4   Parms: SMR     MR      
 Computing Diagnostic #     27  SALT         Counter:       4   Parms: SMR     MR      
 Computing Diagnostic #     30  UVEL         Counter:       4   Parms: UUR     MR      
           Vector  Mate for  UVEL         Diagnostic #     31  VVEL     exists 
 Computing Diagnostic #     31  VVEL         Counter:       4   Parms: VVR     MR      
           Vector  Mate for  VVEL         Diagnostic #     30  UVEL     exists 
 Computing Diagnostic #    214  SIarea       Counter:       4   Parms: SM      M1      
 Computing Diagnostic #    217  SIheff       Counter:       4   Parms: SM      M1      
 Computing Diagnostic #    219  SIhsnow      Counter:       4   Parms: SM      M1      
 Computing Diagnostic #     83  sIceLoad     Counter:       4   Parms: SM      U1      
 Computing Diagnostic #    223  SIuice       Counter:       4   Parms: UU      M1      
           Vector  Mate for  SIuice       Diagnostic #    224  SIvice   exists 
 Computing Diagnostic #    224  SIvice       Counter:       4   Parms: VV      M1      
           Vector  Mate for  SIvice       Diagnostic #    223  SIuice   exists 
 Computing Diagnostic #    225  SItaux       Counter:       4   Parms: UU      U1      
           Vector  Mate for  SItaux       Diagnostic #    226  SItauy   exists 
 Computing Diagnostic #    226  SItauy       Counter:       4   Parms: VV      U1      
           Vector  Mate for  SItauy       Diagnostic #    225  SItaux   exists 
 Computing Diagnostic #    285  SIareaN      Counter:       4   Parms: SM      MX      
 Computing Diagnostic #    284  SIheffN      Counter:       4   Parms: SM      MX      
 Computing Diagnostic #    286  SIhsnowN     Counter:       4   Parms: SM      MX      
 Computing Diagnostic #    290  SIqSnow      Counter:       4   Parms: SM      MX      
 Computing Diagnostic #    291  SImeltPd     Counter:       4   Parms: SM      MX      
 Computing Diagnostic #    288  SItIces      Counter:       4   Parms: SM      MX      
 Computing Diagnostic #    292  SIiceAge     Counter:       4   Parms: SM      MX      
 Computing Diagnostic #    293  SI_dArea     Counter:       4   Parms: SM      MX      
 Computing Diagnostic #    294  SI_dHeff     Counter:       4   Parms: SM      MX      
 Computing Diagnostic #    295  SI_dHsnw     Counter:       4   Parms: SM      MX      
 Computing Diagnostic #    298  SI_dQSnw     Counter:       4   Parms: SM      MX      
 Compute Stats, Diag. #    214  SIarea    vol(   0 ): 1.432E+15  Parms: SM      M1      
 Compute Stats, Diag. #    217  SIheff    vol(   0 ): 1.432E+15  Parms: SM      M1      
 Compute Stats, Diag. #    219  SIhsnow   vol(   0 ): 1.432E+15  Parms: SM      M1      
 Compute Stats, Diag. #     83  sIceLoad  vol(   0 ): 1.432E+15  Parms: SM      U1      
 Compute Stats, Diag. #    223  SIuice    vol(   0 ): 1.405E+15  Parms: UU      M1      
 Compute Stats, Diag. #    224  SIvice    vol(   0 ): 1.403E+15  Parms: VV      M1      
 Compute Stats, Diag. #    225  SItaux    vol(   0 ): 1.405E+15  Parms: UU      U1      
 Compute Stats, Diag. #    226  SItauy    vol(   0 ): 1.403E+15  Parms: VV      U1      
 Compute Stats, Diag. #    285  SIareaN   vol(   0 ): 7.160E+15  Parms: SM      MX      
 Compute Stats, Diag. #    284  SIheffN   vol(   0 ): 7.160E+15  Parms: SM      MX      
 Compute Stats, Diag. #    286  SIhsnowN  vol(   0 ): 7.160E+15  Parms: SM      MX      
 Compute Stats, Diag. #    290  SIqSnow   vol(   0 ): 7.160E+15  Parms: SM      MX      
 Compute Stats, Diag. #    289  SIqIce    vol(   0 ): 2.864E+16  Parms: SM      MX      
 Compute Stats, Diag. #    291  SImeltPd  vol(   0 ): 7.160E+15  Parms: SM      MX      
 Compute Stats, Diag. #    288  SItIces   vol(   0 ): 7.160E+15  Parms: SM      MX      
 Compute Stats, Diag. #    292  SIiceAge  vol(   0 ): 7.160E+15  Parms: SM      MX      
 Compute Stats, Diag. #    293  SI_dArea  vol(   0 ): 7.160E+15  Parms: SM      MX      
 Compute Stats, Diag. #    294  SI_dHeff  vol(   0 ): 7.160E+15  Parms: SM      MX      
 Compute Stats, Diag. #    295  SI_dHsnw  vol(   0 ): 7.160E+15  Parms: SM      MX      
 Compute Stats, Diag. #    298  SI_dQSnw  vol(   0 ): 7.160E+15  Parms: SM      MX      
 Compute Stats, Diag. #    297  SI_dQIce  vol(   0 ): 2.864E+16  Parms: SM      MX      
 SEAICE_LSR: Residual Initial ipass,Uice,Vice=    1  8.03673057E-03  7.19239849E-03
 SEAICE_LSR (ipass=   1) iters,dU,Resid=    28  9.04365053E-05  1.08828326E-03
 SEAICE_LSR (ipass=   1) iters,dV,Resid=    28  8.55525350E-05  9.76390567E-04
 SEAICE_LSR: Residual Initial ipass,Uice,Vice=    2  7.22561949E-03  6.48700101E-03
 SEAICE_LSR (ipass=   2) iters,dU,Resid=    20  9.68268571E-05  1.10925362E-03
 SEAICE_LSR (ipass=   2) iters,dV,Resid=    20  7.79051681E-05  9.83126419E-04
 cg2d: Sum(rhs),rhsMax =   7.60046372574919E+01  3.01914504163046E-01
 Computing Diagnostic #    289  SIqIce       Counter:       1   Parms: SM      MX      
 Computing Diagnostic #    297  SI_dQIce     Counter:       1   Parms: SM      MX      
 Computing Diagnostic #    290  SIqSnow      Counter:       1   Parms: SM      MX      
 Computing Diagnostic #    298  SI_dQSnw     Counter:       1   Parms: SM      MX      
 cg2d: Sum(rhs),rhsMax =   7.59080446058174E+01  3.02317669228351E-01
 cg2d: Sum(rhs),rhsMax =   7.58070570464343E+01  3.02676624373903E-01
 cg2d: Sum(rhs),rhsMax =   7.57030775024248E+01  3.02984278613152E-01
 Computing Diagnostic #     86  oceQnet      Counter:       4   Parms: SM      U1      
 Computing Diagnostic #     87  oceQsw       Counter:       4   Parms: SM      U1      
 Computing Diagnostic #     84  oceFWflx     Counter:       4   Parms: SM      U1      
 Computing Diagnostic #     85  oceSflux     Counter:       4   Parms: SM      U1      
 Computing Diagnostic #     80  oceTAUX      Counter:       4   Parms: UU      U1      
           Vector  Mate for  oceTAUX      Diagnostic #     81  oceTAUY  exists 
 Computing Diagnostic #     81  oceTAUY      Counter:       4   Parms: VV      U1      
           Vector  Mate for  oceTAUY      Diagnostic #     80  oceTAUX  exists 
 Computing Diagnostic #     26  THETA        Counter:       4   Parms: SMR     MR      
 Computing Diagnostic #     27  SALT         Counter:       4   Parms: SMR     MR      
 Computing Diagnostic #     30  UVEL         Counter:       4   Parms: UUR     MR      
           Vector  Mate for  UVEL         Diagnostic #     31  VVEL     exists 
 Computing Diagnostic #     31  VVEL         Counter:       4   Parms: VVR     MR      
           Vector  Mate for  VVEL         Diagnostic #     30  UVEL     exists 
 Computing Diagnostic #    214  SIarea       Counter:       4   Parms: SM      M1      
 Computing Diagnostic #    217  SIheff       Counter:       4   Parms: SM      M1      
 Computing Diagnostic #    219  SIhsnow      Counter:       4   Parms: SM      M1      
 Computing Diagnostic #     83  sIceLoad     Counter:       4   Parms: SM      U1      
 Computing Diagnostic #    223  SIuice       Counter:       4   Parms: UU      M1      
           Vector  Mate for  SIuice       Diagnostic #    224  SIvice   exists 
 Computing Diagnostic #    224  SIvice       Counter:       4   Parms: VV      M1      
           Vector  Mate for  SIvice       Diagnostic #    223  SIuice   exists 
 Computing Diagnostic #    225  SItaux       Counter:       4   Parms: UU      U1      
           Vector  Mate for  SItaux       Diagnostic #    226  SItauy   exists 
 Computing Diagnostic #    226  SItauy       Counter:       4   Parms: VV      U1      
           Vector  Mate for  SItauy       Diagnostic #    225  SItaux   exists 
 Computing Diagnostic #    285  SIareaN      Counter:       4   Parms: SM      MX      
 Computing Diagnostic #    284  SIheffN      Counter:       4   Parms: SM      MX      
 Computing Diagnostic #    286  SIhsnowN     Counter:       4   Parms: SM      MX      
 Computing Diagnostic #    290  SIqSnow      Counter:       4   Parms: SM      MX      
 Computing Diagnostic #    291  SImeltPd     Counter:       4   Parms: SM      MX      
 Computing Diagnostic #    288  SItIces      Counter:       4   Parms: SM      MX      
 Computing Diagnostic #    292  SIiceAge     Counter:       4   Parms: SM      MX      
 Computing Diagnostic #    293  SI_dArea     Counter:       4   Parms: SM      MX      
 Computing Diagnostic #    294  SI_dHeff     Counter:       4   Parms: SM      MX      
 Computing Diagnostic #    295  SI_dHsnw     Counter:       4   Parms: SM      MX      
 Computing Diagnostic #    298  SI_dQSnw     Counter:       4   Parms: SM      MX      
 Compute Stats, Diag. #    214  SIarea    vol(   0 ): 1.432E+15  Parms: SM      M1      
 Compute Stats, Diag. #    217  SIheff    vol(   0 ): 1.432E+15  Parms: SM      M1      
 Compute Stats, Diag. #    219  SIhsnow   vol(   0 ): 1.432E+15  Parms: SM      M1      
 Compute Stats, Diag. #     83  sIceLoad  vol(   0 ): 1.432E+15  Parms: SM      U1      
 Compute Stats, Diag. #    223  SIuice    vol(   0 ): 1.405E+15  Parms: UU      M1      
 Compute Stats, Diag. #    224  SIvice    vol(   0 ): 1.403E+15  Parms: VV      M1      
 Compute Stats, Diag. #    225  SItaux    vol(   0 ): 1.405E+15  Parms: UU      U1      
 Compute Stats, Diag. #    226  SItauy    vol(   0 ): 1.403E+15  Parms: VV      U1      
 Compute Stats, Diag. #    285  SIareaN   vol(   0 ): 7.160E+15  Parms: SM      MX      
 Compute Stats, Diag. #    284  SIheffN   vol(   0 ): 7.160E+15  Parms: SM      MX      
 Compute Stats, Diag. #    286  SIhsnowN  vol(   0 ): 7.160E+15  Parms: SM      MX      
 Compute Stats, Diag. #    290  SIqSnow   vol(   0 ): 7.160E+15  Parms: SM      MX      
 Compute Stats, Diag. #    289  SIqIce    vol(   0 ): 2.864E+16  Parms: SM      MX      
 Compute Stats, Diag. #    291  SImeltPd  vol(   0 ): 7.160E+15  Parms: SM      MX      
 Compute Stats, Diag. #    288  SItIces   vol(   0 ): 7.160E+15  Parms: SM      MX      
 Compute Stats, Diag. #    292  SIiceAge  vol(   0 ): 7.160E+15  Parms: SM      MX      
 Compute Stats, Diag. #    293  SI_dArea  vol(   0 ): 7.160E+15  Parms: SM      MX      
 Compute Stats, Diag. #    294  SI_dHeff  vol(   0 ): 7.160E+15  Parms: SM      MX      
 Compute Stats, Diag. #    295  SI_dHsnw  vol(   0 ): 7.160E+15  Parms: SM      MX      
 Compute Stats, Diag. #    298  SI_dQSnw  vol(   0 ): 7.160E+15  Parms: SM      MX      
 Compute Stats, Diag. #    297  SI_dQIce  vol(   0 ): 2.864E+16  Parms: SM      MX      
 cg2d: Sum(rhs),rhsMax =   7.55969312355000E+01  3.03235002539061E-01
 Computing Diagnostic #    289  SIqIce       Counter:       1   Parms: SM      MX      
 Computing Diagnostic #    297  SI_dQIce     Counter:       1   Parms: SM      MX      
 Computing Diagnostic #    290  SIqSnow      Counter:       1   Parms: SM      MX      
 Computing Diagnostic #    298  SI_dQSnw     Counter:       1   Parms: SM      MX      
 cg2d: Sum(rhs),rhsMax =   7.54794104494148E+01  3.03425353518530E-01
 cg2d: Sum(rhs),rhsMax =   7.53582007345609E+01  3.03552834430887E-01
 cg2d: Sum(rhs),rhsMax =   7.52288344944305E+01  3.03615942184166E-01
(PID.TID 0000.0001)      cg2d_init_res =   3.05141199271892E-01
(PID.TID 0000.0001)      cg2d_iters(min,last) =      -1      31
(PID.TID 0000.0001)      cg2d_last_res =   2.20249762394044E-05
(PID.TID 0000.0001) // =======================================================
(PID.TID 0000.0001) // Begin MONITOR dynamic field statistics
(PID.TID 0000.0001) // =======================================================
(PID.TID 0000.0001) %MON time_tsnumber                =                    80
(PID.TID 0000.0001) %MON time_secondsf                =   7.2000000000000E+04
(PID.TID 0000.0001) %MON dynstat_eta_max              =   1.0796188871802E+00
(PID.TID 0000.0001) %MON dynstat_eta_min              =  -2.8090120741127E+00
(PID.TID 0000.0001) %MON dynstat_eta_mean             =  -2.3797283000143E-03
(PID.TID 0000.0001) %MON dynstat_eta_sd               =   6.9284823300337E-01
(PID.TID 0000.0001) %MON dynstat_eta_del2             =   7.8211491942751E-05
(PID.TID 0000.0001) %MON dynstat_uvel_max             =   8.8733822036081E-01
(PID.TID 0000.0001) %MON dynstat_uvel_min             =  -9.6797831371080E-01
(PID.TID 0000.0001) %MON dynstat_uvel_mean            =   1.1680475337650E-03
(PID.TID 0000.0001) %MON dynstat_uvel_sd              =   2.1271548859918E-02
(PID.TID 0000.0001) %MON dynstat_uvel_del2            =   1.2815313072002E-05
(PID.TID 0000.0001) %MON dynstat_vvel_max             =   1.0135828801704E+00
(PID.TID 0000.0001) %MON dynstat_vvel_min             =  -9.1336152230865E-01
(PID.TID 0000.0001) %MON dynstat_vvel_mean            =   1.6893646504263E-03
(PID.TID 0000.0001) %MON dynstat_vvel_sd              =   2.2614027708859E-02
(PID.TID 0000.0001) %MON dynstat_vvel_del2            =   1.2744772744572E-05
(PID.TID 0000.0001) %MON dynstat_wvel_max             =   3.7118485052799E-03
(PID.TID 0000.0001) %MON dynstat_wvel_min             =  -2.3188690190188E-03
(PID.TID 0000.0001) %MON dynstat_wvel_mean            =   3.4891174817048E-08
(PID.TID 0000.0001) %MON dynstat_wvel_sd              =   3.2081877152204E-05
(PID.TID 0000.0001) %MON dynstat_wvel_del2            =   5.1052694794351E-08
(PID.TID 0000.0001) %MON dynstat_theta_max            =   3.2626297342748E+01
(PID.TID 0000.0001) %MON dynstat_theta_min            =  -2.0419262542218E+00
(PID.TID 0000.0001) %MON dynstat_theta_mean           =   3.5905045485358E+00
(PID.TID 0000.0001) %MON dynstat_theta_sd             =   4.4362052114747E+00
(PID.TID 0000.0001) %MON dynstat_theta_del2           =   1.0390327203184E-04
(PID.TID 0000.0001) %MON dynstat_salt_max             =   4.0711520507103E+01
(PID.TID 0000.0001) %MON dynstat_salt_min             =   1.8907888921352E+01
(PID.TID 0000.0001) %MON dynstat_salt_mean            =   3.4725618453015E+01
(PID.TID 0000.0001) %MON dynstat_salt_sd              =   3.7711584085477E-01
(PID.TID 0000.0001) %MON dynstat_salt_del2            =   2.9029413097951E-05
(PID.TID 0000.0001) %MON dynstat_sst_max              =   3.2561102113438E+01
(PID.TID 0000.0001) %MON dynstat_sst_min              =  -1.8801124601744E+00
(PID.TID 0000.0001) %MON dynstat_sst_mean             =   1.8482217112157E+01
(PID.TID 0000.0001) %MON dynstat_sst_sd               =   1.0110341619309E+01
(PID.TID 0000.0001) %MON dynstat_sst_del2             =   8.4001873803904E-04
(PID.TID 0000.0001) %MON dynstat_sss_max              =   3.9376224698287E+01
(PID.TID 0000.0001) %MON dynstat_sss_min              =   1.8907888921352E+01
(PID.TID 0000.0001) %MON dynstat_sss_mean             =   3.4686215779955E+01
(PID.TID 0000.0001) %MON dynstat_sss_sd               =   1.1274061829351E+00
(PID.TID 0000.0001) %MON dynstat_sss_del2             =   6.7443719479550E-04
(PID.TID 0000.0001) %MON forcing_qnet_max             =   1.4903394775391E+03
(PID.TID 0000.0001) %MON forcing_qnet_min             =  -8.2029560824377E+02
(PID.TID 0000.0001) %MON forcing_qnet_mean            =   3.2206694152234E+00
(PID.TID 0000.0001) %MON forcing_qnet_sd              =   1.9403843515640E+02
(PID.TID 0000.0001) %MON forcing_qnet_del2            =   3.6152843540670E-01
(PID.TID 0000.0001) %MON forcing_qsw_max              =   0.0000000000000E+00
(PID.TID 0000.0001) %MON forcing_qsw_min              =  -1.0909451085942E+02
(PID.TID 0000.0001) %MON forcing_qsw_mean             =  -1.8673976216102E+01
(PID.TID 0000.0001) %MON forcing_qsw_sd               =   2.8380561468424E+01
(PID.TID 0000.0001) %MON forcing_qsw_del2             =   2.1196770350626E-02
(PID.TID 0000.0001) %MON forcing_empmr_max            =   1.6695150407031E-03
(PID.TID 0000.0001) %MON forcing_empmr_min            =  -1.1911085993052E-01
(PID.TID 0000.0001) %MON forcing_empmr_mean           =  -4.6788256629158E-06
(PID.TID 0000.0001) %MON forcing_empmr_sd             =   4.6391615191165E-04
(PID.TID 0000.0001) %MON forcing_empmr_del2           =   4.8592269729619E-06
(PID.TID 0000.0001) %MON forcing_fu_max               =   9.1528829305945E-01
(PID.TID 0000.0001) %MON forcing_fu_min               =  -7.6140104391765E-01
(PID.TID 0000.0001) %MON forcing_fu_mean              =   9.8303338216496E-03
(PID.TID 0000.0001) %MON forcing_fu_sd                =   1.0394451641849E-01
(PID.TID 0000.0001) %MON forcing_fu_del2              =   1.4587537349940E-04
(PID.TID 0000.0001) %MON forcing_fv_max               =   9.5054702341449E-01
(PID.TID 0000.0001) %MON forcing_fv_min               =  -7.6360934365149E-01
(PID.TID 0000.0001) %MON forcing_fv_mean              =  -8.0949847204669E-03
(PID.TID 0000.0001) %MON forcing_fv_sd                =   1.0246794584430E-01
(PID.TID 0000.0001) %MON forcing_fv_del2              =   1.2589734182390E-04
(PID.TID 0000.0001) %MON trAdv_CFL_u_max              =   2.2737582931333E-02
(PID.TID 0000.0001) %MON trAdv_CFL_v_max              =   1.8423367657496E-02
(PID.TID 0000.0001) %MON trAdv_CFL_w_max              =   1.0409114524018E-01
(PID.TID 0000.0001) %MON advcfl_uvel_max              =   2.0903118045857E-02
(PID.TID 0000.0001) %MON advcfl_vvel_max              =   1.7992012574019E-02
(PID.TID 0000.0001) %MON advcfl_wvel_max              =   1.0837005974883E-01
(PID.TID 0000.0001) %MON advcfl_W_hf_max              =   1.1441591593292E-01
(PID.TID 0000.0001) %MON pe_b_mean                    =   6.3145136531417E-04
(PID.TID 0000.0001) %MON ke_max                       =   6.0236129478484E-01
(PID.TID 0000.0001) %MON ke_mean                      =   4.6680835409418E-04
(PID.TID 0000.0001) %MON ke_vol                       =   1.3349970234985E+18
(PID.TID 0000.0001) %MON vort_r_min                   =  -2.7124969622554E-05
(PID.TID 0000.0001) %MON vort_r_max                   =   3.7421105528496E-05
(PID.TID 0000.0001) %MON vort_a_mean                  =  -1.9727864647440E-05
(PID.TID 0000.0001) %MON vort_a_sd                    =   7.4543268256472E-05
(PID.TID 0000.0001) %MON vort_p_mean                  =  -2.1760543375570E-05
(PID.TID 0000.0001) %MON vort_p_sd                    =   9.7245882679660E-05
(PID.TID 0000.0001) %MON surfExpan_theta_mean         =  -2.0697831463308E-06
(PID.TID 0000.0001) %MON surfExpan_salt_mean          =  -8.4202874187003E-08
(PID.TID 0000.0001) // =======================================================
(PID.TID 0000.0001) // End MONITOR dynamic field statistics
(PID.TID 0000.0001) // =======================================================
(PID.TID 0000.0001) // =======================================================
(PID.TID 0000.0001) // Begin MONITOR SEAICE statistics
(PID.TID 0000.0001) // =======================================================
(PID.TID 0000.0001) %MON seaice_tsnumber              =                    80
(PID.TID 0000.0001) %MON seaice_time_sec              =   7.2000000000000E+04
(PID.TID 0000.0001) %MON seaice_uice_max              =   6.6920531289135E-01
(PID.TID 0000.0001) %MON seaice_uice_min              =  -6.4587183980977E-01
(PID.TID 0000.0001) %MON seaice_uice_mean             =  -2.0301958057079E-04
(PID.TID 0000.0001) %MON seaice_uice_sd               =   1.4199356952180E-01
(PID.TID 0000.0001) %MON seaice_uice_del2             =   2.0044841439553E-04
(PID.TID 0000.0001) %MON seaice_vice_max              =   8.6721110098150E-01
(PID.TID 0000.0001) %MON seaice_vice_min              =  -9.1377836588554E-01
(PID.TID 0000.0001) %MON seaice_vice_mean             =  -2.1073423292990E-02
(PID.TID 0000.0001) %MON seaice_vice_sd               =   1.3075880213018E-01
(PID.TID 0000.0001) %MON seaice_vice_del2             =   1.6957961038816E-04
(PID.TID 0000.0001) %MON seaice_area_max              =   1.0000000000000E+00
(PID.TID 0000.0001) %MON seaice_area_min              =   0.0000000000000E+00
(PID.TID 0000.0001) %MON seaice_area_mean             =   7.0764855679553E-02
(PID.TID 0000.0001) %MON seaice_area_sd               =   2.3647315170599E-01
(PID.TID 0000.0001) %MON seaice_area_del2             =   3.6674539362911E-04
(PID.TID 0000.0001) %MON seaice_heff_max              =   2.5088168014257E+01
(PID.TID 0000.0001) %MON seaice_heff_min              =   0.0000000000000E+00
(PID.TID 0000.0001) %MON seaice_heff_mean             =   2.1689036928668E-01
(PID.TID 0000.0001) %MON seaice_heff_sd               =   1.0631293234367E+00
(PID.TID 0000.0001) %MON seaice_heff_del2             =   3.0747748268265E-03
(PID.TID 0000.0001) %MON seaice_hsnow_max             =   8.2861521715217E+00
(PID.TID 0000.0001) %MON seaice_hsnow_min             =   0.0000000000000E+00
(PID.TID 0000.0001) %MON seaice_hsnow_mean            =   2.4576184706792E-02
(PID.TID 0000.0001) %MON seaice_hsnow_sd              =   1.5248849207303E-01
(PID.TID 0000.0001) %MON seaice_hsnow_del2            =   9.7422569298812E-04
(PID.TID 0000.0001) // =======================================================
(PID.TID 0000.0001) // End MONITOR SEAICE statistics
(PID.TID 0000.0001) // =======================================================
 Computing Diagnostic #     86  oceQnet      Counter:       4   Parms: SM      U1      
 Computing Diagnostic #     87  oceQsw       Counter:       4   Parms: SM      U1      
 Computing Diagnostic #     84  oceFWflx     Counter:       4   Parms: SM      U1      
 Computing Diagnostic #     85  oceSflux     Counter:       4   Parms: SM      U1      
 Computing Diagnostic #     80  oceTAUX      Counter:       4   Parms: UU      U1      
           Vector  Mate for  oceTAUX      Diagnostic #     81  oceTAUY  exists 
 Computing Diagnostic #     81  oceTAUY      Counter:       4   Parms: VV      U1      
           Vector  Mate for  oceTAUY      Diagnostic #     80  oceTAUX  exists 
 Computing Diagnostic #     26  THETA        Counter:       4   Parms: SMR     MR      
 Computing Diagnostic #     27  SALT         Counter:       4   Parms: SMR     MR      
 Computing Diagnostic #     30  UVEL         Counter:       4   Parms: UUR     MR      
           Vector  Mate for  UVEL         Diagnostic #     31  VVEL     exists 
 Computing Diagnostic #     31  VVEL         Counter:       4   Parms: VVR     MR      
           Vector  Mate for  VVEL         Diagnostic #     30  UVEL     exists 
 Computing Diagnostic #    214  SIarea       Counter:       4   Parms: SM      M1      
 Computing Diagnostic #    217  SIheff       Counter:       4   Parms: SM      M1      
 Computing Diagnostic #    219  SIhsnow      Counter:       4   Parms: SM      M1      
 Computing Diagnostic #     83  sIceLoad     Counter:       4   Parms: SM      U1      
 Computing Diagnostic #    223  SIuice       Counter:       4   Parms: UU      M1      
           Vector  Mate for  SIuice       Diagnostic #    224  SIvice   exists 
 Computing Diagnostic #    224  SIvice       Counter:       4   Parms: VV      M1      
           Vector  Mate for  SIvice       Diagnostic #    223  SIuice   exists 
 Computing Diagnostic #    225  SItaux       Counter:       4   Parms: UU      U1      
           Vector  Mate for  SItaux       Diagnostic #    226  SItauy   exists 
 Computing Diagnostic #    226  SItauy       Counter:       4   Parms: VV      U1      
           Vector  Mate for  SItauy       Diagnostic #    225  SItaux   exists 
 Computing Diagnostic #    285  SIareaN      Counter:       4   Parms: SM      MX      
 Computing Diagnostic #    284  SIheffN      Counter:       4   Parms: SM      MX      
 Computing Diagnostic #    286  SIhsnowN     Counter:       4   Parms: SM      MX      
 Computing Diagnostic #    290  SIqSnow      Counter:       4   Parms: SM      MX      
 Computing Diagnostic #    291  SImeltPd     Counter:       4   Parms: SM      MX      
 Computing Diagnostic #    288  SItIces      Counter:       4   Parms: SM      MX      
 Computing Diagnostic #    292  SIiceAge     Counter:       4   Parms: SM      MX      
 Computing Diagnostic #    293  SI_dArea     Counter:       4   Parms: SM      MX      
 Computing Diagnostic #    294  SI_dHeff     Counter:       4   Parms: SM      MX      
 Computing Diagnostic #    295  SI_dHsnw     Counter:       4   Parms: SM      MX      
 Computing Diagnostic #    298  SI_dQSnw     Counter:       4   Parms: SM      MX      
 Compute Stats, Diag. #    214  SIarea    vol(   0 ): 1.432E+15  Parms: SM      M1      
 Compute Stats, Diag. #    217  SIheff    vol(   0 ): 1.432E+15  Parms: SM      M1      
 Compute Stats, Diag. #    219  SIhsnow   vol(   0 ): 1.432E+15  Parms: SM      M1      
 Compute Stats, Diag. #     83  sIceLoad  vol(   0 ): 1.432E+15  Parms: SM      U1      
 Compute Stats, Diag. #    223  SIuice    vol(   0 ): 1.405E+15  Parms: UU      M1      
 Compute Stats, Diag. #    224  SIvice    vol(   0 ): 1.403E+15  Parms: VV      M1      
 Compute Stats, Diag. #    225  SItaux    vol(   0 ): 1.405E+15  Parms: UU      U1      
 Compute Stats, Diag. #    226  SItauy    vol(   0 ): 1.403E+15  Parms: VV      U1      
 Compute Stats, Diag. #    285  SIareaN   vol(   0 ): 7.160E+15  Parms: SM      MX      
 Compute Stats, Diag. #    284  SIheffN   vol(   0 ): 7.160E+15  Parms: SM      MX      
 Compute Stats, Diag. #    286  SIhsnowN  vol(   0 ): 7.160E+15  Parms: SM      MX      
 Compute Stats, Diag. #    290  SIqSnow   vol(   0 ): 7.160E+15  Parms: SM      MX      
 Compute Stats, Diag. #    289  SIqIce    vol(   0 ): 2.864E+16  Parms: SM      MX      
 Compute Stats, Diag. #    291  SImeltPd  vol(   0 ): 7.160E+15  Parms: SM      MX      
 Compute Stats, Diag. #    288  SItIces   vol(   0 ): 7.160E+15  Parms: SM      MX      
 Compute Stats, Diag. #    292  SIiceAge  vol(   0 ): 7.160E+15  Parms: SM      MX      
 Compute Stats, Diag. #    293  SI_dArea  vol(   0 ): 7.160E+15  Parms: SM      MX      
 Compute Stats, Diag. #    294  SI_dHeff  vol(   0 ): 7.160E+15  Parms: SM      MX      
 Compute Stats, Diag. #    295  SI_dHsnw  vol(   0 ): 7.160E+15  Parms: SM      MX      
 Compute Stats, Diag. #    298  SI_dQSnw  vol(   0 ): 7.160E+15  Parms: SM      MX      
 Compute Stats, Diag. #    297  SI_dQIce  vol(   0 ): 2.864E+16  Parms: SM      MX      
 SEAICE_LSR: Residual Initial ipass,Uice,Vice=    1  7.63652898E-03  6.81580499E-03
 SEAICE_LSR (ipass=   1) iters,dU,Resid=    40  9.97389956E-05  8.63273831E-04
 SEAICE_LSR (ipass=   1) iters,dV,Resid=    40  6.25108592E-05  1.12775296E-03
 SEAICE_LSR: Residual Initial ipass,Uice,Vice=    2  6.46097031E-03  6.27361837E-03
 SEAICE_LSR (ipass=   2) iters,dU,Resid=    22  9.22808180E-05  1.01299340E-03
 SEAICE_LSR (ipass=   2) iters,dV,Resid=    22  7.88686165E-05  1.24533957E-03
 cg2d: Sum(rhs),rhsMax =   7.51100911021736E+01  3.03614050452771E-01
 Computing Diagnostic #    289  SIqIce       Counter:       1   Parms: SM      MX      
 Computing Diagnostic #    297  SI_dQIce     Counter:       1   Parms: SM      MX      
 Computing Diagnostic #    290  SIqSnow      Counter:       1   Parms: SM      MX      
 Computing Diagnostic #    298  SI_dQSnw     Counter:       1   Parms: SM      MX      
 cg2d: Sum(rhs),rhsMax =   7.49989088696242E+01  3.03612574066576E-01
 cg2d: Sum(rhs),rhsMax =   7.48775738748567E+01  3.03677406433065E-01
 cg2d: Sum(rhs),rhsMax =   7.47546242770041E+01  3.03672786443525E-01
 Computing Diagnostic #     86  oceQnet      Counter:       4   Parms: SM      U1      
 Computing Diagnostic #     87  oceQsw       Counter:       4   Parms: SM      U1      
 Computing Diagnostic #     84  oceFWflx     Counter:       4   Parms: SM      U1      
 Computing Diagnostic #     85  oceSflux     Counter:       4   Parms: SM      U1      
 Computing Diagnostic #     80  oceTAUX      Counter:       4   Parms: UU      U1      
           Vector  Mate for  oceTAUX      Diagnostic #     81  oceTAUY  exists 
 Computing Diagnostic #     81  oceTAUY      Counter:       4   Parms: VV      U1      
           Vector  Mate for  oceTAUY      Diagnostic #     80  oceTAUX  exists 
 Computing Diagnostic #     26  THETA        Counter:       4   Parms: SMR     MR      
 Computing Diagnostic #     27  SALT         Counter:       4   Parms: SMR     MR      
 Computing Diagnostic #     30  UVEL         Counter:       4   Parms: UUR     MR      
           Vector  Mate for  UVEL         Diagnostic #     31  VVEL     exists 
 Computing Diagnostic #     31  VVEL         Counter:       4   Parms: VVR     MR      
           Vector  Mate for  VVEL         Diagnostic #     30  UVEL     exists 
 Computing Diagnostic #    214  SIarea       Counter:       4   Parms: SM      M1      
 Computing Diagnostic #    217  SIheff       Counter:       4   Parms: SM      M1      
 Computing Diagnostic #    219  SIhsnow      Counter:       4   Parms: SM      M1      
 Computing Diagnostic #     83  sIceLoad     Counter:       4   Parms: SM      U1      
 Computing Diagnostic #    223  SIuice       Counter:       4   Parms: UU      M1      
           Vector  Mate for  SIuice       Diagnostic #    224  SIvice   exists 
 Computing Diagnostic #    224  SIvice       Counter:       4   Parms: VV      M1      
           Vector  Mate for  SIvice       Diagnostic #    223  SIuice   exists 
 Computing Diagnostic #    225  SItaux       Counter:       4   Parms: UU      U1      
           Vector  Mate for  SItaux       Diagnostic #    226  SItauy   exists 
 Computing Diagnostic #    226  SItauy       Counter:       4   Parms: VV      U1      
           Vector  Mate for  SItauy       Diagnostic #    225  SItaux   exists 
 Computing Diagnostic #    285  SIareaN      Counter:       4   Parms: SM      MX      
 Computing Diagnostic #    284  SIheffN      Counter:       4   Parms: SM      MX      
 Computing Diagnostic #    286  SIhsnowN     Counter:       4   Parms: SM      MX      
 Computing Diagnostic #    290  SIqSnow      Counter:       4   Parms: SM      MX      
 Computing Diagnostic #    291  SImeltPd     Counter:       4   Parms: SM      MX      
 Computing Diagnostic #    288  SItIces      Counter:       4   Parms: SM      MX      
 Computing Diagnostic #    292  SIiceAge     Counter:       4   Parms: SM      MX      
 Computing Diagnostic #    293  SI_dArea     Counter:       4   Parms: SM      MX      
 Computing Diagnostic #    294  SI_dHeff     Counter:       4   Parms: SM      MX      
 Computing Diagnostic #    295  SI_dHsnw     Counter:       4   Parms: SM      MX      
 Computing Diagnostic #    298  SI_dQSnw     Counter:       4   Parms: SM      MX      
 Compute Stats, Diag. #    214  SIarea    vol(   0 ): 1.432E+15  Parms: SM      M1      
 Compute Stats, Diag. #    217  SIheff    vol(   0 ): 1.432E+15  Parms: SM      M1      
 Compute Stats, Diag. #    219  SIhsnow   vol(   0 ): 1.432E+15  Parms: SM      M1      
 Compute Stats, Diag. #     83  sIceLoad  vol(   0 ): 1.432E+15  Parms: SM      U1      
 Compute Stats, Diag. #    223  SIuice    vol(   0 ): 1.405E+15  Parms: UU      M1      
 Compute Stats, Diag. #    224  SIvice    vol(   0 ): 1.403E+15  Parms: VV      M1      
 Compute Stats, Diag. #    225  SItaux    vol(   0 ): 1.405E+15  Parms: UU      U1      
 Compute Stats, Diag. #    226  SItauy    vol(   0 ): 1.403E+15  Parms: VV      U1      
 Compute Stats, Diag. #    285  SIareaN   vol(   0 ): 7.160E+15  Parms: SM      MX      
 Compute Stats, Diag. #    284  SIheffN   vol(   0 ): 7.160E+15  Parms: SM      MX      
 Compute Stats, Diag. #    286  SIhsnowN  vol(   0 ): 7.160E+15  Parms: SM      MX      
 Compute Stats, Diag. #    290  SIqSnow   vol(   0 ): 7.160E+15  Parms: SM      MX      
 Compute Stats, Diag. #    289  SIqIce    vol(   0 ): 2.864E+16  Parms: SM      MX      
 Compute Stats, Diag. #    291  SImeltPd  vol(   0 ): 7.160E+15  Parms: SM      MX      
 Compute Stats, Diag. #    288  SItIces   vol(   0 ): 7.160E+15  Parms: SM      MX      
 Compute Stats, Diag. #    292  SIiceAge  vol(   0 ): 7.160E+15  Parms: SM      MX      
 Compute Stats, Diag. #    293  SI_dArea  vol(   0 ): 7.160E+15  Parms: SM      MX      
 Compute Stats, Diag. #    294  SI_dHeff  vol(   0 ): 7.160E+15  Parms: SM      MX      
 Compute Stats, Diag. #    295  SI_dHsnw  vol(   0 ): 7.160E+15  Parms: SM      MX      
 Compute Stats, Diag. #    298  SI_dQSnw  vol(   0 ): 7.160E+15  Parms: SM      MX      
 Compute Stats, Diag. #    297  SI_dQIce  vol(   0 ): 2.864E+16  Parms: SM      MX      
 cg2d: Sum(rhs),rhsMax =   7.46267081694138E+01  3.03598540999054E-01
 Computing Diagnostic #    289  SIqIce       Counter:       1   Parms: SM      MX      
 Computing Diagnostic #    297  SI_dQIce     Counter:       1   Parms: SM      MX      
 Computing Diagnostic #    290  SIqSnow      Counter:       1   Parms: SM      MX      
 Computing Diagnostic #    298  SI_dQSnw     Counter:       1   Parms: SM      MX      
 cg2d: Sum(rhs),rhsMax =   7.45014748471651E+01  3.03454064796337E-01
 cg2d: Sum(rhs),rhsMax =   7.43858472400484E+01  3.03239233089500E-01
 cg2d: Sum(rhs),rhsMax =   7.42579594681733E+01  3.02955705754204E-01
(PID.TID 0000.0001)      cg2d_init_res =   2.79668280078641E-01
(PID.TID 0000.0001)      cg2d_iters(min,last) =      -1      31
(PID.TID 0000.0001)      cg2d_last_res =   2.52008787110824E-05
(PID.TID 0000.0001) // =======================================================
(PID.TID 0000.0001) // Begin MONITOR dynamic field statistics
(PID.TID 0000.0001) // =======================================================
(PID.TID 0000.0001) %MON time_tsnumber                =                    88
(PID.TID 0000.0001) %MON time_secondsf                =   7.9200000000000E+04
(PID.TID 0000.0001) %MON dynstat_eta_max              =   1.0843342362002E+00
(PID.TID 0000.0001) %MON dynstat_eta_min              =  -2.6815332144174E+00
(PID.TID 0000.0001) %MON dynstat_eta_mean             =  -2.3490164221648E-03
(PID.TID 0000.0001) %MON dynstat_eta_sd               =   6.8906382036747E-01
(PID.TID 0000.0001) %MON dynstat_eta_del2             =   7.6988809293223E-05
(PID.TID 0000.0001) %MON dynstat_uvel_max             =   9.2134526364357E-01
(PID.TID 0000.0001) %MON dynstat_uvel_min             =  -9.3339261877272E-01
(PID.TID 0000.0001) %MON dynstat_uvel_mean            =   9.6735823298617E-04
(PID.TID 0000.0001) %MON dynstat_uvel_sd              =   2.1079348745439E-02
(PID.TID 0000.0001) %MON dynstat_uvel_del2            =   1.2734725866527E-05
(PID.TID 0000.0001) %MON dynstat_vvel_max             =   1.0052583989925E+00
(PID.TID 0000.0001) %MON dynstat_vvel_min             =  -9.0938449635916E-01
(PID.TID 0000.0001) %MON dynstat_vvel_mean            =   1.6318729865217E-03
(PID.TID 0000.0001) %MON dynstat_vvel_sd              =   2.2422708323770E-02
(PID.TID 0000.0001) %MON dynstat_vvel_del2            =   1.2489407061085E-05
(PID.TID 0000.0001) %MON dynstat_wvel_max             =   3.6588273789681E-03
(PID.TID 0000.0001) %MON dynstat_wvel_min             =  -2.0498384633093E-03
(PID.TID 0000.0001) %MON dynstat_wvel_mean            =   3.3510425889506E-08
(PID.TID 0000.0001) %MON dynstat_wvel_sd              =   3.1465492582878E-05
(PID.TID 0000.0001) %MON dynstat_wvel_del2            =   4.9715307200100E-08
(PID.TID 0000.0001) %MON dynstat_theta_max            =   3.2616374636343E+01
(PID.TID 0000.0001) %MON dynstat_theta_min            =  -2.0419111503734E+00
(PID.TID 0000.0001) %MON dynstat_theta_mean           =   3.5905053059390E+00
(PID.TID 0000.0001) %MON dynstat_theta_sd             =   4.4362132913387E+00
(PID.TID 0000.0001) %MON dynstat_theta_del2           =   1.0340779137515E-04
(PID.TID 0000.0001) %MON dynstat_salt_max             =   4.0711520115375E+01
(PID.TID 0000.0001) %MON dynstat_salt_min             =   1.8438242277882E+01
(PID.TID 0000.0001) %MON dynstat_salt_mean            =   3.4725614459220E+01
(PID.TID 0000.0001) %MON dynstat_salt_sd              =   3.7710150293400E-01
(PID.TID 0000.0001) %MON dynstat_salt_del2            =   2.9114512523385E-05
(PID.TID 0000.0001) %MON dynstat_sst_max              =   3.2537187684435E+01
(PID.TID 0000.0001) %MON dynstat_sst_min              =  -1.8746176147406E+00
(PID.TID 0000.0001) %MON dynstat_sst_mean             =   1.8484407183000E+01
(PID.TID 0000.0001) %MON dynstat_sst_sd               =   1.0113129761428E+01
(PID.TID 0000.0001) %MON dynstat_sst_del2             =   8.3668388855019E-04
(PID.TID 0000.0001) %MON dynstat_sss_max              =   3.9355673885427E+01
(PID.TID 0000.0001) %MON dynstat_sss_min              =   1.8438242277882E+01
(PID.TID 0000.0001) %MON dynstat_sss_mean             =   3.4686942183999E+01
(PID.TID 0000.0001) %MON dynstat_sss_sd               =   1.1285285421314E+00
(PID.TID 0000.0001) %MON dynstat_sss_del2             =   6.8875180733405E-04
(PID.TID 0000.0001) %MON forcing_qnet_max             =   1.7787580688410E+03
(PID.TID 0000.0001) %MON forcing_qnet_min             =  -8.5319975951577E+02
(PID.TID 0000.0001) %MON forcing_qnet_mean            =  -4.8956111568711E+00
(PID.TID 0000.0001) %MON forcing_qnet_sd              =   1.8521725864871E+02
(PID.TID 0000.0001) %MON forcing_qnet_del2            =   3.7875766346628E-01
(PID.TID 0000.0001) %MON forcing_qsw_max              =   0.0000000000000E+00
(PID.TID 0000.0001) %MON forcing_qsw_min              =  -1.0733248721841E+02
(PID.TID 0000.0001) %MON forcing_qsw_mean             =  -2.0002184878203E+01
(PID.TID 0000.0001) %MON forcing_qsw_sd               =   2.8942549256379E+01
(PID.TID 0000.0001) %MON forcing_qsw_del2             =   2.0307227299144E-02
(PID.TID 0000.0001) %MON forcing_empmr_max            =   1.5370008768514E-03
(PID.TID 0000.0001) %MON forcing_empmr_min            =  -1.2214276194572E-01
(PID.TID 0000.0001) %MON forcing_empmr_mean           =  -4.6253534802890E-06
(PID.TID 0000.0001) %MON forcing_empmr_sd             =   4.7405620923707E-04
(PID.TID 0000.0001) %MON forcing_empmr_del2           =   4.9917518294675E-06
(PID.TID 0000.0001) %MON forcing_fu_max               =   9.3140652066582E-01
(PID.TID 0000.0001) %MON forcing_fu_min               =  -8.6049173778961E-01
(PID.TID 0000.0001) %MON forcing_fu_mean              =   9.6090409928745E-03
(PID.TID 0000.0001) %MON forcing_fu_sd                =   1.0231404002047E-01
(PID.TID 0000.0001) %MON forcing_fu_del2              =   1.4277402871805E-04
(PID.TID 0000.0001) %MON forcing_fv_max               =   1.0152467523472E+00
(PID.TID 0000.0001) %MON forcing_fv_min               =  -7.7753306628480E-01
(PID.TID 0000.0001) %MON forcing_fv_mean              =  -8.7031108469140E-03
(PID.TID 0000.0001) %MON forcing_fv_sd                =   1.0236737313927E-01
(PID.TID 0000.0001) %MON forcing_fv_del2              =   1.2524321266636E-04
(PID.TID 0000.0001) %MON trAdv_CFL_u_max              =   2.2934541487753E-02
(PID.TID 0000.0001) %MON trAdv_CFL_v_max              =   1.7889002338339E-02
(PID.TID 0000.0001) %MON trAdv_CFL_w_max              =   1.1242528094212E-01
(PID.TID 0000.0001) %MON advcfl_uvel_max              =   2.1704225474591E-02
(PID.TID 0000.0001) %MON advcfl_vvel_max              =   1.7844245506367E-02
(PID.TID 0000.0001) %MON advcfl_wvel_max              =   1.1706195130899E-01
(PID.TID 0000.0001) %MON advcfl_W_hf_max              =   1.2357502780337E-01
(PID.TID 0000.0001) %MON pe_b_mean                    =   6.2457197691202E-04
(PID.TID 0000.0001) %MON ke_max                       =   5.7659932324385E-01
(PID.TID 0000.0001) %MON ke_mean                      =   4.5842998462651E-04
(PID.TID 0000.0001) %MON ke_vol                       =   1.3349970345105E+18
(PID.TID 0000.0001) %MON vort_r_min                   =  -2.5839039443754E-05
(PID.TID 0000.0001) %MON vort_r_max                   =   3.7612053817791E-05
(PID.TID 0000.0001) %MON vort_a_mean                  =  -1.9727864647440E-05
(PID.TID 0000.0001) %MON vort_a_sd                    =   7.4543218729301E-05
(PID.TID 0000.0001) %MON vort_p_mean                  =  -2.1760542839202E-05
(PID.TID 0000.0001) %MON vort_p_sd                    =   9.7246002766439E-05
(PID.TID 0000.0001) %MON surfExpan_theta_mean         =  -1.8032843790167E-06
(PID.TID 0000.0001) %MON surfExpan_salt_mean          =  -8.7981981366249E-08
(PID.TID 0000.0001) // =======================================================
(PID.TID 0000.0001) // End MONITOR dynamic field statistics
(PID.TID 0000.0001) // =======================================================
(PID.TID 0000.0001) // =======================================================
(PID.TID 0000.0001) // Begin MONITOR SEAICE statistics
(PID.TID 0000.0001) // =======================================================
(PID.TID 0000.0001) %MON seaice_tsnumber              =                    88
(PID.TID 0000.0001) %MON seaice_time_sec              =   7.9200000000000E+04
(PID.TID 0000.0001) %MON seaice_uice_max              =   6.3985581136577E-01
(PID.TID 0000.0001) %MON seaice_uice_min              =  -7.1683821698375E-01
(PID.TID 0000.0001) %MON seaice_uice_mean             =  -9.7124479797555E-04
(PID.TID 0000.0001) %MON seaice_uice_sd               =   1.4031955741424E-01
(PID.TID 0000.0001) %MON seaice_uice_del2             =   1.9857010490812E-04
(PID.TID 0000.0001) %MON seaice_vice_max              =   8.6679591144832E-01
(PID.TID 0000.0001) %MON seaice_vice_min              =  -9.0994966736836E-01
(PID.TID 0000.0001) %MON seaice_vice_mean             =  -2.3676853566822E-02
(PID.TID 0000.0001) %MON seaice_vice_sd               =   1.3051073570295E-01
(PID.TID 0000.0001) %MON seaice_vice_del2             =   1.6760987361104E-04
(PID.TID 0000.0001) %MON seaice_area_max              =   1.0000000000000E+00
(PID.TID 0000.0001) %MON seaice_area_min              =   0.0000000000000E+00
(PID.TID 0000.0001) %MON seaice_area_mean             =   7.0658764530227E-02
(PID.TID 0000.0001) %MON seaice_area_sd               =   2.3634833201145E-01
(PID.TID 0000.0001) %MON seaice_area_del2             =   3.6113690542455E-04
(PID.TID 0000.0001) %MON seaice_heff_max              =   2.5084411625097E+01
(PID.TID 0000.0001) %MON seaice_heff_min              =   0.0000000000000E+00
(PID.TID 0000.0001) %MON seaice_heff_mean             =   2.1686167193560E-01
(PID.TID 0000.0001) %MON seaice_heff_sd               =   1.0628857948785E+00
(PID.TID 0000.0001) %MON seaice_heff_del2             =   3.0342538828601E-03
(PID.TID 0000.0001) %MON seaice_hsnow_max             =   8.2849164576539E+00
(PID.TID 0000.0001) %MON seaice_hsnow_min             =   0.0000000000000E+00
(PID.TID 0000.0001) %MON seaice_hsnow_mean            =   2.4566549845126E-02
(PID.TID 0000.0001) %MON seaice_hsnow_sd              =   1.5220536039077E-01
(PID.TID 0000.0001) %MON seaice_hsnow_del2            =   9.6059688187476E-04
(PID.TID 0000.0001) // =======================================================
(PID.TID 0000.0001) // End MONITOR SEAICE statistics
(PID.TID 0000.0001) // =======================================================
 Computing Diagnostic #     86  oceQnet      Counter:       4   Parms: SM      U1      
 Computing Diagnostic #     87  oceQsw       Counter:       4   Parms: SM      U1      
 Computing Diagnostic #     84  oceFWflx     Counter:       4   Parms: SM      U1      
 Computing Diagnostic #     85  oceSflux     Counter:       4   Parms: SM      U1      
 Computing Diagnostic #     80  oceTAUX      Counter:       4   Parms: UU      U1      
           Vector  Mate for  oceTAUX      Diagnostic #     81  oceTAUY  exists 
 Computing Diagnostic #     81  oceTAUY      Counter:       4   Parms: VV      U1      
           Vector  Mate for  oceTAUY      Diagnostic #     80  oceTAUX  exists 
 Computing Diagnostic #     26  THETA        Counter:       4   Parms: SMR     MR      
 Computing Diagnostic #     27  SALT         Counter:       4   Parms: SMR     MR      
 Computing Diagnostic #     30  UVEL         Counter:       4   Parms: UUR     MR      
           Vector  Mate for  UVEL         Diagnostic #     31  VVEL     exists 
 Computing Diagnostic #     31  VVEL         Counter:       4   Parms: VVR     MR      
           Vector  Mate for  VVEL         Diagnostic #     30  UVEL     exists 
 Computing Diagnostic #    214  SIarea       Counter:       4   Parms: SM      M1      
 Computing Diagnostic #    217  SIheff       Counter:       4   Parms: SM      M1      
 Computing Diagnostic #    219  SIhsnow      Counter:       4   Parms: SM      M1      
 Computing Diagnostic #     83  sIceLoad     Counter:       4   Parms: SM      U1      
 Computing Diagnostic #    223  SIuice       Counter:       4   Parms: UU      M1      
           Vector  Mate for  SIuice       Diagnostic #    224  SIvice   exists 
 Computing Diagnostic #    224  SIvice       Counter:       4   Parms: VV      M1      
           Vector  Mate for  SIvice       Diagnostic #    223  SIuice   exists 
 Computing Diagnostic #    225  SItaux       Counter:       4   Parms: UU      U1      
           Vector  Mate for  SItaux       Diagnostic #    226  SItauy   exists 
 Computing Diagnostic #    226  SItauy       Counter:       4   Parms: VV      U1      
           Vector  Mate for  SItauy       Diagnostic #    225  SItaux   exists 
 Computing Diagnostic #    285  SIareaN      Counter:       4   Parms: SM      MX      
 Computing Diagnostic #    284  SIheffN      Counter:       4   Parms: SM      MX      
 Computing Diagnostic #    286  SIhsnowN     Counter:       4   Parms: SM      MX      
 Computing Diagnostic #    290  SIqSnow      Counter:       4   Parms: SM      MX      
 Computing Diagnostic #    291  SImeltPd     Counter:       4   Parms: SM      MX      
 Computing Diagnostic #    288  SItIces      Counter:       4   Parms: SM      MX      
 Computing Diagnostic #    292  SIiceAge     Counter:       4   Parms: SM      MX      
 Computing Diagnostic #    293  SI_dArea     Counter:       4   Parms: SM      MX      
 Computing Diagnostic #    294  SI_dHeff     Counter:       4   Parms: SM      MX      
 Computing Diagnostic #    295  SI_dHsnw     Counter:       4   Parms: SM      MX      
 Computing Diagnostic #    298  SI_dQSnw     Counter:       4   Parms: SM      MX      
 Compute Stats, Diag. #    214  SIarea    vol(   0 ): 1.432E+15  Parms: SM      M1      
 Compute Stats, Diag. #    217  SIheff    vol(   0 ): 1.432E+15  Parms: SM      M1      
 Compute Stats, Diag. #    219  SIhsnow   vol(   0 ): 1.432E+15  Parms: SM      M1      
 Compute Stats, Diag. #     83  sIceLoad  vol(   0 ): 1.432E+15  Parms: SM      U1      
 Compute Stats, Diag. #    223  SIuice    vol(   0 ): 1.405E+15  Parms: UU      M1      
 Compute Stats, Diag. #    224  SIvice    vol(   0 ): 1.403E+15  Parms: VV      M1      
 Compute Stats, Diag. #    225  SItaux    vol(   0 ): 1.405E+15  Parms: UU      U1      
 Compute Stats, Diag. #    226  SItauy    vol(   0 ): 1.403E+15  Parms: VV      U1      
 Compute Stats, Diag. #    285  SIareaN   vol(   0 ): 7.160E+15  Parms: SM      MX      
 Compute Stats, Diag. #    284  SIheffN   vol(   0 ): 7.160E+15  Parms: SM      MX      
 Compute Stats, Diag. #    286  SIhsnowN  vol(   0 ): 7.160E+15  Parms: SM      MX      
 Compute Stats, Diag. #    290  SIqSnow   vol(   0 ): 7.160E+15  Parms: SM      MX      
 Compute Stats, Diag. #    289  SIqIce    vol(   0 ): 2.864E+16  Parms: SM      MX      
 Compute Stats, Diag. #    291  SImeltPd  vol(   0 ): 7.160E+15  Parms: SM      MX      
 Compute Stats, Diag. #    288  SItIces   vol(   0 ): 7.160E+15  Parms: SM      MX      
 Compute Stats, Diag. #    292  SIiceAge  vol(   0 ): 7.160E+15  Parms: SM      MX      
 Compute Stats, Diag. #    293  SI_dArea  vol(   0 ): 7.160E+15  Parms: SM      MX      
 Compute Stats, Diag. #    294  SI_dHeff  vol(   0 ): 7.160E+15  Parms: SM      MX      
 Compute Stats, Diag. #    295  SI_dHsnw  vol(   0 ): 7.160E+15  Parms: SM      MX      
 Compute Stats, Diag. #    298  SI_dQSnw  vol(   0 ): 7.160E+15  Parms: SM      MX      
 Compute Stats, Diag. #    297  SI_dQIce  vol(   0 ): 2.864E+16  Parms: SM      MX      
 SEAICE_LSR: Residual Initial ipass,Uice,Vice=    1  7.42140369E-03  7.06847491E-03
 SEAICE_LSR (ipass=   1) iters,dU,Resid=    38  6.59099151E-05  7.57023632E-04
 SEAICE_LSR (ipass=   1) iters,dV,Resid=    38  9.83068876E-05  1.20027675E-03
 SEAICE_LSR: Residual Initial ipass,Uice,Vice=    2  6.31935585E-03  6.32317678E-03
 SEAICE_LSR (ipass=   2) iters,dU,Resid=    28  6.16218645E-05  7.92619113E-04
 SEAICE_LSR (ipass=   2) iters,dV,Resid=    28  9.82324082E-05  1.15148669E-03
 cg2d: Sum(rhs),rhsMax =   7.41272930123441E+01  3.02604015042403E-01
 Computing Diagnostic #    289  SIqIce       Counter:       1   Parms: SM      MX      
 Computing Diagnostic #    297  SI_dQIce     Counter:       1   Parms: SM      MX      
 Computing Diagnostic #    290  SIqSnow      Counter:       1   Parms: SM      MX      
 Computing Diagnostic #    298  SI_dQSnw     Counter:       1   Parms: SM      MX      
 cg2d: Sum(rhs),rhsMax =   7.40028704003523E+01  3.02186876498206E-01
 cg2d: Sum(rhs),rhsMax =   7.38960657100584E+01  3.01706999711187E-01
 cg2d: Sum(rhs),rhsMax =   7.37815172838902E+01  3.01169433226383E-01
 Computing Diagnostic #     86  oceQnet      Counter:       4   Parms: SM      U1      
 Computing Diagnostic #     87  oceQsw       Counter:       4   Parms: SM      U1      
 Computing Diagnostic #     84  oceFWflx     Counter:       4   Parms: SM      U1      
 Computing Diagnostic #     85  oceSflux     Counter:       4   Parms: SM      U1      
 Computing Diagnostic #     80  oceTAUX      Counter:       4   Parms: UU      U1      
           Vector  Mate for  oceTAUX      Diagnostic #     81  oceTAUY  exists 
 Computing Diagnostic #     81  oceTAUY      Counter:       4   Parms: VV      U1      
           Vector  Mate for  oceTAUY      Diagnostic #     80  oceTAUX  exists 
 Computing Diagnostic #     26  THETA        Counter:       4   Parms: SMR     MR      
 Computing Diagnostic #     27  SALT         Counter:       4   Parms: SMR     MR      
 Computing Diagnostic #     30  UVEL         Counter:       4   Parms: UUR     MR      
           Vector  Mate for  UVEL         Diagnostic #     31  VVEL     exists 
 Computing Diagnostic #     31  VVEL         Counter:       4   Parms: VVR     MR      
           Vector  Mate for  VVEL         Diagnostic #     30  UVEL     exists 
 Computing Diagnostic #    214  SIarea       Counter:       4   Parms: SM      M1      
 Computing Diagnostic #    217  SIheff       Counter:       4   Parms: SM      M1      
 Computing Diagnostic #    219  SIhsnow      Counter:       4   Parms: SM      M1      
 Computing Diagnostic #     83  sIceLoad     Counter:       4   Parms: SM      U1      
 Computing Diagnostic #    223  SIuice       Counter:       4   Parms: UU      M1      
           Vector  Mate for  SIuice       Diagnostic #    224  SIvice   exists 
 Computing Diagnostic #    224  SIvice       Counter:       4   Parms: VV      M1      
           Vector  Mate for  SIvice       Diagnostic #    223  SIuice   exists 
 Computing Diagnostic #    225  SItaux       Counter:       4   Parms: UU      U1      
           Vector  Mate for  SItaux       Diagnostic #    226  SItauy   exists 
 Computing Diagnostic #    226  SItauy       Counter:       4   Parms: VV      U1      
           Vector  Mate for  SItauy       Diagnostic #    225  SItaux   exists 
 Computing Diagnostic #    285  SIareaN      Counter:       4   Parms: SM      MX      
 Computing Diagnostic #    284  SIheffN      Counter:       4   Parms: SM      MX      
 Computing Diagnostic #    286  SIhsnowN     Counter:       4   Parms: SM      MX      
 Computing Diagnostic #    290  SIqSnow      Counter:       4   Parms: SM      MX      
 Computing Diagnostic #    291  SImeltPd     Counter:       4   Parms: SM      MX      
 Computing Diagnostic #    288  SItIces      Counter:       4   Parms: SM      MX      
 Computing Diagnostic #    292  SIiceAge     Counter:       4   Parms: SM      MX      
 Computing Diagnostic #    293  SI_dArea     Counter:       4   Parms: SM      MX      
 Computing Diagnostic #    294  SI_dHeff     Counter:       4   Parms: SM      MX      
 Computing Diagnostic #    295  SI_dHsnw     Counter:       4   Parms: SM      MX      
 Computing Diagnostic #    298  SI_dQSnw     Counter:       4   Parms: SM      MX      
 Compute Stats, Diag. #    214  SIarea    vol(   0 ): 1.432E+15  Parms: SM      M1      
 Compute Stats, Diag. #    217  SIheff    vol(   0 ): 1.432E+15  Parms: SM      M1      
 Compute Stats, Diag. #    219  SIhsnow   vol(   0 ): 1.432E+15  Parms: SM      M1      
 Compute Stats, Diag. #     83  sIceLoad  vol(   0 ): 1.432E+15  Parms: SM      U1      
 Compute Stats, Diag. #    223  SIuice    vol(   0 ): 1.405E+15  Parms: UU      M1      
 Compute Stats, Diag. #    224  SIvice    vol(   0 ): 1.403E+15  Parms: VV      M1      
 Compute Stats, Diag. #    225  SItaux    vol(   0 ): 1.405E+15  Parms: UU      U1      
 Compute Stats, Diag. #    226  SItauy    vol(   0 ): 1.403E+15  Parms: VV      U1      
 Compute Stats, Diag. #    285  SIareaN   vol(   0 ): 7.160E+15  Parms: SM      MX      
 Compute Stats, Diag. #    284  SIheffN   vol(   0 ): 7.160E+15  Parms: SM      MX      
 Compute Stats, Diag. #    286  SIhsnowN  vol(   0 ): 7.160E+15  Parms: SM      MX      
 Compute Stats, Diag. #    290  SIqSnow   vol(   0 ): 7.160E+15  Parms: SM      MX      
 Compute Stats, Diag. #    289  SIqIce    vol(   0 ): 2.864E+16  Parms: SM      MX      
 Compute Stats, Diag. #    291  SImeltPd  vol(   0 ): 7.160E+15  Parms: SM      MX      
 Compute Stats, Diag. #    288  SItIces   vol(   0 ): 7.160E+15  Parms: SM      MX      
 Compute Stats, Diag. #    292  SIiceAge  vol(   0 ): 7.160E+15  Parms: SM      MX      
 Compute Stats, Diag. #    293  SI_dArea  vol(   0 ): 7.160E+15  Parms: SM      MX      
 Compute Stats, Diag. #    294  SI_dHeff  vol(   0 ): 7.160E+15  Parms: SM      MX      
 Compute Stats, Diag. #    295  SI_dHsnw  vol(   0 ): 7.160E+15  Parms: SM      MX      
 Compute Stats, Diag. #    298  SI_dQSnw  vol(   0 ): 7.160E+15  Parms: SM      MX      
 Compute Stats, Diag. #    297  SI_dQIce  vol(   0 ): 2.864E+16  Parms: SM      MX      
 cg2d: Sum(rhs),rhsMax =   7.36729453175381E+01  3.00577484880791E-01
 Computing Diagnostic #    289  SIqIce       Counter:       1   Parms: SM      MX      
 Computing Diagnostic #    297  SI_dQIce     Counter:       1   Parms: SM      MX      
 Computing Diagnostic #    290  SIqSnow      Counter:       1   Parms: SM      MX      
 Computing Diagnostic #    298  SI_dQSnw     Counter:       1   Parms: SM      MX      
 cg2d: Sum(rhs),rhsMax =   7.35655416795666E+01  2.99938359044196E-01
 cg2d: Sum(rhs),rhsMax =   7.34379068760573E+01  2.99258141462605E-01
 cg2d: Sum(rhs),rhsMax =   7.33330581190126E+01  2.98546472104923E-01
(PID.TID 0000.0001)      cg2d_init_res =   2.70790052988448E-01
(PID.TID 0000.0001)      cg2d_iters(min,last) =      -1      31
(PID.TID 0000.0001)      cg2d_last_res =   2.75808539133945E-05
(PID.TID 0000.0001) // =======================================================
(PID.TID 0000.0001) // Begin MONITOR dynamic field statistics
(PID.TID 0000.0001) // =======================================================
(PID.TID 0000.0001) %MON time_tsnumber                =                    96
(PID.TID 0000.0001) %MON time_secondsf                =   8.6400000000000E+04
(PID.TID 0000.0001) %MON dynstat_eta_max              =   1.0825857808196E+00
(PID.TID 0000.0001) %MON dynstat_eta_min              =  -2.5890529273459E+00
(PID.TID 0000.0001) %MON dynstat_eta_mean             =  -2.3197588385519E-03
(PID.TID 0000.0001) %MON dynstat_eta_sd               =   6.8575701043441E-01
(PID.TID 0000.0001) %MON dynstat_eta_del2             =   7.5130806346994E-05
(PID.TID 0000.0001) %MON dynstat_uvel_max             =   9.0797108898550E-01
(PID.TID 0000.0001) %MON dynstat_uvel_min             =  -9.0592957497827E-01
(PID.TID 0000.0001) %MON dynstat_uvel_mean            =   8.6711078791531E-04
(PID.TID 0000.0001) %MON dynstat_uvel_sd              =   2.0931909278728E-02
(PID.TID 0000.0001) %MON dynstat_uvel_del2            =   1.2597520959094E-05
(PID.TID 0000.0001) %MON dynstat_vvel_max             =   9.8814289716681E-01
(PID.TID 0000.0001) %MON dynstat_vvel_min             =  -9.0408870963264E-01
(PID.TID 0000.0001) %MON dynstat_vvel_mean            =   1.5134792095567E-03
(PID.TID 0000.0001) %MON dynstat_vvel_sd              =   2.2197320760980E-02
(PID.TID 0000.0001) %MON dynstat_vvel_del2            =   1.2210146836645E-05
(PID.TID 0000.0001) %MON dynstat_wvel_max             =   3.8248671236789E-03
(PID.TID 0000.0001) %MON dynstat_wvel_min             =  -1.9198649217977E-03
(PID.TID 0000.0001) %MON dynstat_wvel_mean            =   3.3767743544561E-08
(PID.TID 0000.0001) %MON dynstat_wvel_sd              =   3.0751329472967E-05
(PID.TID 0000.0001) %MON dynstat_wvel_del2            =   4.8273502545246E-08
(PID.TID 0000.0001) %MON dynstat_theta_max            =   3.2597195063341E+01
(PID.TID 0000.0001) %MON dynstat_theta_min            =  -2.0418992693886E+00
(PID.TID 0000.0001) %MON dynstat_theta_mean           =   3.5905111204246E+00
(PID.TID 0000.0001) %MON dynstat_theta_sd             =   4.4362472882584E+00
(PID.TID 0000.0001) %MON dynstat_theta_del2           =   1.0292983363663E-04
(PID.TID 0000.0001) %MON dynstat_salt_max             =   4.0711519713053E+01
(PID.TID 0000.0001) %MON dynstat_salt_min             =   1.7393500453888E+01
(PID.TID 0000.0001) %MON dynstat_salt_mean            =   3.4725611013813E+01
(PID.TID 0000.0001) %MON dynstat_salt_sd              =   3.7708912206832E-01
(PID.TID 0000.0001) %MON dynstat_salt_del2            =   2.9174923223556E-05
(PID.TID 0000.0001) %MON dynstat_sst_max              =   3.2518956587788E+01
(PID.TID 0000.0001) %MON dynstat_sst_min              =  -1.8697031941112E+00
(PID.TID 0000.0001) %MON dynstat_sst_mean             =   1.8486515447292E+01
(PID.TID 0000.0001) %MON dynstat_sst_sd               =   1.0116021970312E+01
(PID.TID 0000.0001) %MON dynstat_sst_del2             =   8.3294290845065E-04
(PID.TID 0000.0001) %MON dynstat_sss_max              =   3.9336966517906E+01
(PID.TID 0000.0001) %MON dynstat_sss_min              =   1.7393500453888E+01
(PID.TID 0000.0001) %MON dynstat_sss_mean             =   3.4687568451934E+01
(PID.TID 0000.0001) %MON dynstat_sss_sd               =   1.1295771354088E+00
(PID.TID 0000.0001) %MON dynstat_sss_del2             =   7.0109336172535E-04
(PID.TID 0000.0001) %MON forcing_qnet_max             =   2.0356090087891E+03
(PID.TID 0000.0001) %MON forcing_qnet_min             =  -7.6916058349609E+02
(PID.TID 0000.0001) %MON forcing_qnet_mean            =  -1.8327977102533E+01
(PID.TID 0000.0001) %MON forcing_qnet_sd              =   1.9925935861190E+02
(PID.TID 0000.0001) %MON forcing_qnet_del2            =   3.7138323622674E-01
(PID.TID 0000.0001) %MON forcing_qsw_max              =   0.0000000000000E+00
(PID.TID 0000.0001) %MON forcing_qsw_min              =  -1.0503123306293E+02
(PID.TID 0000.0001) %MON forcing_qsw_mean             =  -2.1861868927825E+01
(PID.TID 0000.0001) %MON forcing_qsw_sd               =   3.0227922947281E+01
(PID.TID 0000.0001) %MON forcing_qsw_del2             =   1.9240149058152E-02
(PID.TID 0000.0001) %MON forcing_empmr_max            =   1.5320000238717E-03
(PID.TID 0000.0001) %MON forcing_empmr_min            =  -1.0492318123579E-01
(PID.TID 0000.0001) %MON forcing_empmr_mean           =  -3.7920948670883E-06
(PID.TID 0000.0001) %MON forcing_empmr_sd             =   4.1327968710277E-04
(PID.TID 0000.0001) %MON forcing_empmr_del2           =   4.3216010083272E-06
(PID.TID 0000.0001) %MON forcing_fu_max               =   9.5064087713376E-01
(PID.TID 0000.0001) %MON forcing_fu_min               =  -9.5625552146530E-01
(PID.TID 0000.0001) %MON forcing_fu_mean              =   9.2228868223212E-03
(PID.TID 0000.0001) %MON forcing_fu_sd                =   1.0141577272117E-01
(PID.TID 0000.0001) %MON forcing_fu_del2              =   1.4131926455542E-04
(PID.TID 0000.0001) %MON forcing_fv_max               =   9.8852199088801E-01
(PID.TID 0000.0001) %MON forcing_fv_min               =  -7.5751997261771E-01
(PID.TID 0000.0001) %MON forcing_fv_mean              =  -9.1015298532637E-03
(PID.TID 0000.0001) %MON forcing_fv_sd                =   1.0198722074468E-01
(PID.TID 0000.0001) %MON forcing_fv_del2              =   1.2428248708859E-04
(PID.TID 0000.0001) %MON trAdv_CFL_u_max              =   2.2769375415954E-02
(PID.TID 0000.0001) %MON trAdv_CFL_v_max              =   1.7328246596128E-02
(PID.TID 0000.0001) %MON trAdv_CFL_w_max              =   1.1700276364925E-01
(PID.TID 0000.0001) %MON advcfl_uvel_max              =   2.1389168661722E-02
(PID.TID 0000.0001) %MON advcfl_vvel_max              =   1.7540429873642E-02
(PID.TID 0000.0001) %MON advcfl_wvel_max              =   1.2183429092261E-01
(PID.TID 0000.0001) %MON advcfl_W_hf_max              =   1.2857510839792E-01
(PID.TID 0000.0001) %MON pe_b_mean                    =   6.1859161730707E-04
(PID.TID 0000.0001) %MON ke_max                       =   5.4657572661952E-01
(PID.TID 0000.0001) %MON ke_mean                      =   4.5032550007767E-04
(PID.TID 0000.0001) %MON ke_vol                       =   1.3349970452460E+18
(PID.TID 0000.0001) %MON vort_r_min                   =  -2.5862520063322E-05
(PID.TID 0000.0001) %MON vort_r_max                   =   3.5975092615474E-05
(PID.TID 0000.0001) %MON vort_a_mean                  =  -1.9727864647440E-05
(PID.TID 0000.0001) %MON vort_a_sd                    =   7.4543166249371E-05
(PID.TID 0000.0001) %MON vort_p_mean                  =  -2.1760542400816E-05
(PID.TID 0000.0001) %MON vort_p_sd                    =   9.7246235282502E-05
(PID.TID 0000.0001) %MON surfExpan_theta_mean         =  -1.6452499553124E-06
(PID.TID 0000.0001) %MON surfExpan_salt_mean          =  -8.9341228506214E-08
(PID.TID 0000.0001) // =======================================================
(PID.TID 0000.0001) // End MONITOR dynamic field statistics
(PID.TID 0000.0001) // =======================================================
(PID.TID 0000.0001) // =======================================================
(PID.TID 0000.0001) // Begin MONITOR SEAICE statistics
(PID.TID 0000.0001) // =======================================================
(PID.TID 0000.0001) %MON seaice_tsnumber              =                    96
(PID.TID 0000.0001) %MON seaice_time_sec              =   8.6400000000000E+04
(PID.TID 0000.0001) %MON seaice_uice_max              =   6.6808501034965E-01
(PID.TID 0000.0001) %MON seaice_uice_min              =  -7.3673013156486E-01
(PID.TID 0000.0001) %MON seaice_uice_mean             =  -1.1896623646561E-03
(PID.TID 0000.0001) %MON seaice_uice_sd               =   1.3913998918036E-01
(PID.TID 0000.0001) %MON seaice_uice_del2             =   1.9654156150598E-04
(PID.TID 0000.0001) %MON seaice_vice_max              =   8.5515985267263E-01
(PID.TID 0000.0001) %MON seaice_vice_min              =  -9.0482212444965E-01
(PID.TID 0000.0001) %MON seaice_vice_mean             =  -2.6138460967877E-02
(PID.TID 0000.0001) %MON seaice_vice_sd               =   1.2955995607423E-01
(PID.TID 0000.0001) %MON seaice_vice_del2             =   1.6536607265367E-04
(PID.TID 0000.0001) %MON seaice_area_max              =   1.0000000000000E+00
(PID.TID 0000.0001) %MON seaice_area_min              =   0.0000000000000E+00
(PID.TID 0000.0001) %MON seaice_area_mean             =   7.0567909869595E-02
(PID.TID 0000.0001) %MON seaice_area_sd               =   2.3622470360507E-01
(PID.TID 0000.0001) %MON seaice_area_del2             =   3.5605189645987E-04
(PID.TID 0000.0001) %MON seaice_heff_max              =   2.5080743423087E+01
(PID.TID 0000.0001) %MON seaice_heff_min              =   0.0000000000000E+00
(PID.TID 0000.0001) %MON seaice_heff_mean             =   2.1682736120034E-01
(PID.TID 0000.0001) %MON seaice_heff_sd               =   1.0626513966988E+00
(PID.TID 0000.0001) %MON seaice_heff_del2             =   2.9993258105869E-03
(PID.TID 0000.0001) %MON seaice_hsnow_max             =   8.2837092681195E+00
(PID.TID 0000.0001) %MON seaice_hsnow_min             =   0.0000000000000E+00
(PID.TID 0000.0001) %MON seaice_hsnow_mean            =   2.4560091891919E-02
(PID.TID 0000.0001) %MON seaice_hsnow_sd              =   1.5196967922257E-01
(PID.TID 0000.0001) %MON seaice_hsnow_del2            =   9.4883067245912E-04
(PID.TID 0000.0001) // =======================================================
(PID.TID 0000.0001) // End MONITOR SEAICE statistics
(PID.TID 0000.0001) // =======================================================
 Computing Diagnostic #     86  oceQnet      Counter:       4   Parms: SM      U1      
 Computing Diagnostic #     87  oceQsw       Counter:       4   Parms: SM      U1      
 Computing Diagnostic #     84  oceFWflx     Counter:       4   Parms: SM      U1      
 Computing Diagnostic #     85  oceSflux     Counter:       4   Parms: SM      U1      
 Computing Diagnostic #     80  oceTAUX      Counter:       4   Parms: UU      U1      
           Vector  Mate for  oceTAUX      Diagnostic #     81  oceTAUY  exists 
 Computing Diagnostic #     81  oceTAUY      Counter:       4   Parms: VV      U1      
           Vector  Mate for  oceTAUY      Diagnostic #     80  oceTAUX  exists 
 Computing Diagnostic #     26  THETA        Counter:       4   Parms: SMR     MR      
 Computing Diagnostic #     27  SALT         Counter:       4   Parms: SMR     MR      
 Computing Diagnostic #     30  UVEL         Counter:       4   Parms: UUR     MR      
           Vector  Mate for  UVEL         Diagnostic #     31  VVEL     exists 
 Computing Diagnostic #     31  VVEL         Counter:       4   Parms: VVR     MR      
           Vector  Mate for  VVEL         Diagnostic #     30  UVEL     exists 
 Computing Diagnostic #    214  SIarea       Counter:       4   Parms: SM      M1      
 Computing Diagnostic #    217  SIheff       Counter:       4   Parms: SM      M1      
 Computing Diagnostic #    219  SIhsnow      Counter:       4   Parms: SM      M1      
 Computing Diagnostic #     83  sIceLoad     Counter:       4   Parms: SM      U1      
 Computing Diagnostic #    223  SIuice       Counter:       4   Parms: UU      M1      
           Vector  Mate for  SIuice       Diagnostic #    224  SIvice   exists 
 Computing Diagnostic #    224  SIvice       Counter:       4   Parms: VV      M1      
           Vector  Mate for  SIvice       Diagnostic #    223  SIuice   exists 
 Computing Diagnostic #    225  SItaux       Counter:       4   Parms: UU      U1      
           Vector  Mate for  SItaux       Diagnostic #    226  SItauy   exists 
 Computing Diagnostic #    226  SItauy       Counter:       4   Parms: VV      U1      
           Vector  Mate for  SItauy       Diagnostic #    225  SItaux   exists 
 Computing Diagnostic #    285  SIareaN      Counter:       4   Parms: SM      MX      
 Computing Diagnostic #    284  SIheffN      Counter:       4   Parms: SM      MX      
 Computing Diagnostic #    286  SIhsnowN     Counter:       4   Parms: SM      MX      
 Computing Diagnostic #    290  SIqSnow      Counter:       4   Parms: SM      MX      
 Computing Diagnostic #    291  SImeltPd     Counter:       4   Parms: SM      MX      
 Computing Diagnostic #    288  SItIces      Counter:       4   Parms: SM      MX      
 Computing Diagnostic #    292  SIiceAge     Counter:       4   Parms: SM      MX      
 Computing Diagnostic #    293  SI_dArea     Counter:       4   Parms: SM      MX      
 Computing Diagnostic #    294  SI_dHeff     Counter:       4   Parms: SM      MX      
 Computing Diagnostic #    295  SI_dHsnw     Counter:       4   Parms: SM      MX      
 Computing Diagnostic #    298  SI_dQSnw     Counter:       4   Parms: SM      MX      
 Compute Stats, Diag. #    214  SIarea    vol(   0 ): 1.432E+15  Parms: SM      M1      
 Compute Stats, Diag. #    217  SIheff    vol(   0 ): 1.432E+15  Parms: SM      M1      
 Compute Stats, Diag. #    219  SIhsnow   vol(   0 ): 1.432E+15  Parms: SM      M1      
 Compute Stats, Diag. #     83  sIceLoad  vol(   0 ): 1.432E+15  Parms: SM      U1      
 Compute Stats, Diag. #    223  SIuice    vol(   0 ): 1.405E+15  Parms: UU      M1      
 Compute Stats, Diag. #    224  SIvice    vol(   0 ): 1.403E+15  Parms: VV      M1      
 Compute Stats, Diag. #    225  SItaux    vol(   0 ): 1.405E+15  Parms: UU      U1      
 Compute Stats, Diag. #    226  SItauy    vol(   0 ): 1.403E+15  Parms: VV      U1      
 Compute Stats, Diag. #    285  SIareaN   vol(   0 ): 7.160E+15  Parms: SM      MX      
 Compute Stats, Diag. #    284  SIheffN   vol(   0 ): 7.160E+15  Parms: SM      MX      
 Compute Stats, Diag. #    286  SIhsnowN  vol(   0 ): 7.160E+15  Parms: SM      MX      
 Compute Stats, Diag. #    290  SIqSnow   vol(   0 ): 7.160E+15  Parms: SM      MX      
 Compute Stats, Diag. #    289  SIqIce    vol(   0 ): 2.864E+16  Parms: SM      MX      
 Compute Stats, Diag. #    291  SImeltPd  vol(   0 ): 7.160E+15  Parms: SM      MX      
 Compute Stats, Diag. #    288  SItIces   vol(   0 ): 7.160E+15  Parms: SM      MX      
 Compute Stats, Diag. #    292  SIiceAge  vol(   0 ): 7.160E+15  Parms: SM      MX      
 Compute Stats, Diag. #    293  SI_dArea  vol(   0 ): 7.160E+15  Parms: SM      MX      
 Compute Stats, Diag. #    294  SI_dHeff  vol(   0 ): 7.160E+15  Parms: SM      MX      
 Compute Stats, Diag. #    295  SI_dHsnw  vol(   0 ): 7.160E+15  Parms: SM      MX      
 Compute Stats, Diag. #    298  SI_dQSnw  vol(   0 ): 7.160E+15  Parms: SM      MX      
 Compute Stats, Diag. #    297  SI_dQIce  vol(   0 ): 2.864E+16  Parms: SM      MX      
(PID.TID 0000.0001) %CHECKPOINT        96 0000000096
 SEAICE_LSR: Residual Initial ipass,Uice,Vice=    1  7.10113274E-03  6.56320845E-03
 SEAICE_LSR (ipass=   1) iters,dU,Resid=    40  4.57398241E-05  1.01494726E-03
 SEAICE_LSR (ipass=   1) iters,dV,Resid=    40  9.69735616E-05  1.13673665E-03
 SEAICE_LSR: Residual Initial ipass,Uice,Vice=    2  5.79029451E-03  6.10443926E-03
 SEAICE_LSR (ipass=   2) iters,dU,Resid=    20  6.51931403E-05  1.14593046E-03
 SEAICE_LSR (ipass=   2) iters,dV,Resid=    20  9.98262327E-05  1.23073216E-03
 cg2d: Sum(rhs),rhsMax =   7.32357830771227E+01  2.97809802307385E-01
 Computing Diagnostic #     86  oceQnet      Counter:       1   Parms: SM      U1      
 Computing Diagnostic #     87  oceQsw       Counter:       1   Parms: SM      U1      
 Computing Diagnostic #     84  oceFWflx     Counter:       1   Parms: SM      U1      
 Computing Diagnostic #     85  oceSflux     Counter:       1   Parms: SM      U1      
 Computing Diagnostic #     80  oceTAUX      Counter:       1   Parms: UU      U1      
           Vector  Mate for  oceTAUX      Diagnostic #     81  oceTAUY  exists 
 Computing Diagnostic #     81  oceTAUY      Counter:       1   Parms: VV      U1      
           Vector  Mate for  oceTAUY      Diagnostic #     80  oceTAUX  exists 
 Computing Diagnostic #     26  THETA        Counter:       1   Parms: SMR     MR      
 Computing Diagnostic #     27  SALT         Counter:       1   Parms: SMR     MR      
 Computing Diagnostic #     30  UVEL         Counter:       1   Parms: UUR     MR      
           Vector  Mate for  UVEL         Diagnostic #     31  VVEL     exists 
 Computing Diagnostic #     31  VVEL         Counter:       1   Parms: VVR     MR      
           Vector  Mate for  VVEL         Diagnostic #     30  UVEL     exists 
 Computing Diagnostic #    214  SIarea       Counter:       1   Parms: SM      M1      
 Computing Diagnostic #    217  SIheff       Counter:       1   Parms: SM      M1      
 Computing Diagnostic #    219  SIhsnow      Counter:       1   Parms: SM      M1      
 Computing Diagnostic #     83  sIceLoad     Counter:       1   Parms: SM      U1      
 Computing Diagnostic #    223  SIuice       Counter:       1   Parms: UU      M1      
           Vector  Mate for  SIuice       Diagnostic #    224  SIvice   exists 
 Computing Diagnostic #    224  SIvice       Counter:       1   Parms: VV      M1      
           Vector  Mate for  SIvice       Diagnostic #    223  SIuice   exists 
 Computing Diagnostic #    225  SItaux       Counter:       1   Parms: UU      U1      
           Vector  Mate for  SItaux       Diagnostic #    226  SItauy   exists 
 Computing Diagnostic #    226  SItauy       Counter:       1   Parms: VV      U1      
           Vector  Mate for  SItauy       Diagnostic #    225  SItaux   exists 
 Computing Diagnostic #    285  SIareaN      Counter:       1   Parms: SM      MX      
 Computing Diagnostic #    284  SIheffN      Counter:       1   Parms: SM      MX      
 Computing Diagnostic #    286  SIhsnowN     Counter:       1   Parms: SM      MX      
 Computing Diagnostic #    290  SIqSnow      Counter:       1   Parms: SM      MX      
 Computing Diagnostic #    291  SImeltPd     Counter:       1   Parms: SM      MX      
 Computing Diagnostic #    288  SItIces      Counter:       1   Parms: SM      MX      
 Computing Diagnostic #    292  SIiceAge     Counter:       1   Parms: SM      MX      
 Computing Diagnostic #    293  SI_dArea     Counter:       1   Parms: SM      MX      
 Computing Diagnostic #    294  SI_dHeff     Counter:       1   Parms: SM      MX      
 Computing Diagnostic #    295  SI_dHsnw     Counter:       1   Parms: SM      MX      
 Computing Diagnostic #    298  SI_dQSnw     Counter:       1   Parms: SM      MX      
 Computing Diagnostic #    289  SIqIce       Counter:       1   Parms: SM      MX      
 Computing Diagnostic #    297  SI_dQIce     Counter:       1   Parms: SM      MX      
 Computing Diagnostic #    290  SIqSnow      Counter:       1   Parms: SM      MX      
 Computing Diagnostic #    298  SI_dQSnw     Counter:       1   Parms: SM      MX      
 Compute Stats, Diag. #    214  SIarea    vol(   0 ): 3.580E+14  Parms: SM      M1      
 Compute Stats, Diag. #    217  SIheff    vol(   0 ): 3.580E+14  Parms: SM      M1      
 Compute Stats, Diag. #    219  SIhsnow   vol(   0 ): 3.580E+14  Parms: SM      M1      
 Compute Stats, Diag. #     83  sIceLoad  vol(   0 ): 3.580E+14  Parms: SM      U1      
 Compute Stats, Diag. #    223  SIuice    vol(   0 ): 3.513E+14  Parms: UU      M1      
 Compute Stats, Diag. #    224  SIvice    vol(   0 ): 3.508E+14  Parms: VV      M1      
 Compute Stats, Diag. #    225  SItaux    vol(   0 ): 3.513E+14  Parms: UU      U1      
 Compute Stats, Diag. #    226  SItauy    vol(   0 ): 3.508E+14  Parms: VV      U1      
 Compute Stats, Diag. #    285  SIareaN   vol(   0 ): 1.790E+15  Parms: SM      MX      
 Compute Stats, Diag. #    284  SIheffN   vol(   0 ): 1.790E+15  Parms: SM      MX      
 Compute Stats, Diag. #    286  SIhsnowN  vol(   0 ): 1.790E+15  Parms: SM      MX      
 Compute Stats, Diag. #    290  SIqSnow   vol(   0 ): 1.790E+15  Parms: SM      MX      
 Compute Stats, Diag. #    289  SIqIce    vol(   0 ): 7.160E+15  Parms: SM      MX      
 Compute Stats, Diag. #    291  SImeltPd  vol(   0 ): 1.790E+15  Parms: SM      MX      
 Compute Stats, Diag. #    288  SItIces   vol(   0 ): 1.790E+15  Parms: SM      MX      
 Compute Stats, Diag. #    292  SIiceAge  vol(   0 ): 1.790E+15  Parms: SM      MX      
 Compute Stats, Diag. #    293  SI_dArea  vol(   0 ): 1.790E+15  Parms: SM      MX      
 Compute Stats, Diag. #    294  SI_dHeff  vol(   0 ): 1.790E+15  Parms: SM      MX      
 Compute Stats, Diag. #    295  SI_dHsnw  vol(   0 ): 1.790E+15  Parms: SM      MX      
 Compute Stats, Diag. #    298  SI_dQSnw  vol(   0 ): 1.790E+15  Parms: SM      MX      
 Compute Stats, Diag. #    297  SI_dQIce  vol(   0 ): 7.160E+15  Parms: SM      MX      
(PID.TID 0000.0001) DIAGSTATS_CLOSE_IO: close file: iceStDiag.0000000001.txt , unit=    37
(PID.TID 0000.0001) %CHECKPOINT        97 ckptA
