(PID.TID 0000.0001) 
(PID.TID 0000.0001) // ======================================================
(PID.TID 0000.0001) //                      MITgcm UV
(PID.TID 0000.0001) //                      =========
(PID.TID 0000.0001) // ======================================================
(PID.TID 0000.0001) // execution environment starting up...
(PID.TID 0000.0001) 
(PID.TID 0000.0001) // MITgcmUV version:  checkpoint67d
(PID.TID 0000.0001) // Build user:        estrobac
(PID.TID 0000.0001) // Build host:        borgu129
(PID.TID 0000.0001) // Build date:        Thu Sep  6 09:33:08 EDT 2018
(PID.TID 0000.0001) 
(PID.TID 0000.0001) // =======================================================
(PID.TID 0000.0001) // Execution Environment parameter file "eedata"
(PID.TID 0000.0001) // =======================================================
(PID.TID 0000.0001) ># Example "eedata" file
(PID.TID 0000.0001) ># Lines beginning "#" are comments
(PID.TID 0000.0001) ># nTx - No. threads per process in X
(PID.TID 0000.0001) ># nTy - No. threads per process in Y
(PID.TID 0000.0001) > &EEPARMS
(PID.TID 0000.0001) > useCubedSphereExchange=.TRUE.,
(PID.TID 0000.0001) > nTx=1,
(PID.TID 0000.0001) > nTy=1,
(PID.TID 0000.0001) > &
(PID.TID 0000.0001) 
(PID.TID 0000.0001) // =======================================================
(PID.TID 0000.0001) // Computational Grid Specification ( see files "SIZE.h" )
(PID.TID 0000.0001) //                                  ( and "eedata"       )
(PID.TID 0000.0001) // =======================================================
(PID.TID 0000.0001)      nPx =   96 ; /* No. processes in X */
(PID.TID 0000.0001)      nPy =    1 ; /* No. processes in Y */
(PID.TID 0000.0001)      nSx =    1 ; /* No. tiles in X per process */
(PID.TID 0000.0001)      nSy =    1 ; /* No. tiles in Y per process */
(PID.TID 0000.0001)      sNx =   30 ; /* Tile size in X */
(PID.TID 0000.0001)      sNy =   30 ; /* Tile size in Y */
(PID.TID 0000.0001)      OLx =    4 ; /* Tile overlap distance in X */
(PID.TID 0000.0001)      OLy =    4 ; /* Tile overlap distance in Y */
(PID.TID 0000.0001)      nTx =    1 ; /* No. threads in X per process */
(PID.TID 0000.0001)      nTy =    1 ; /* No. threads in Y per process */
(PID.TID 0000.0001)       Nr =   50 ; /* No. levels in the vertical   */
(PID.TID 0000.0001)       Nx = 2880 ; /* Total domain size in X ( = nPx*nSx*sNx ) */
(PID.TID 0000.0001)       Ny =   30 ; /* Total domain size in Y ( = nPy*nSy*sNy ) */
(PID.TID 0000.0001)   nTiles =    1 ; /* Total no. tiles per process ( = nSx*nSy ) */
(PID.TID 0000.0001)   nProcs =   96 ; /* Total no. processes ( = nPx*nPy ) */
(PID.TID 0000.0001) nThreads =    1 ; /* Total no. threads per process ( = nTx*nTy ) */
(PID.TID 0000.0001) usingMPI =    T ; /* Flag used to control whether MPI is in use */
(PID.TID 0000.0001)                   /*  note: To execute a program with MPI calls */
(PID.TID 0000.0001)                   /*  it must be launched appropriately e.g     */
(PID.TID 0000.0001)                   /*  "mpirun -np 64 ......"                    */
(PID.TID 0000.0001) useCoupler=    F ;/* Flag used to control communications with   */
(PID.TID 0000.0001)                   /*  other model components, through a coupler */
(PID.TID 0000.0001) debugMode =    F ; /* print debug msg. (sequence of S/R calls)  */
(PID.TID 0000.0001) printMapIncludesZeros=    F ; /* print zeros in Std.Output maps */
(PID.TID 0000.0001) maxLengthPrt1D=   65 /* maxLength of 1D array printed to StdOut */
(PID.TID 0000.0001) 
(PID.TID 0000.0001) ======= Starting MPI parallel Run =========
(PID.TID 0000.0001)  My Processor Name (len:  8 ) = borgu129
(PID.TID 0000.0001)  Located at (  0,  0) on processor grid (0: 95,0:  0)
(PID.TID 0000.0001)  Origin at  (     1,     1) on global grid (1:  2880,1:    30)
(PID.TID 0000.0001)  North neighbor = processor 0000
(PID.TID 0000.0001)  South neighbor = processor 0000
(PID.TID 0000.0001)   East neighbor = processor 0001
(PID.TID 0000.0001)   West neighbor = processor 0095
(PID.TID 0000.0001) // ======================================================
(PID.TID 0000.0001) // Mapping of tiles to threads
(PID.TID 0000.0001) // ======================================================
(PID.TID 0000.0001) // -o- Thread   1, tiles (   1:   1,   1:   1)
(PID.TID 0000.0001) 
(PID.TID 0000.0001) W2_READPARMS: opening data.exch2
(PID.TID 0000.0001)  OPEN_COPY_DATA_FILE: opening file data.exch2
(PID.TID 0000.0001) // =======================================================
(PID.TID 0000.0001) // Parameter file "data.exch2"
(PID.TID 0000.0001) // =======================================================
(PID.TID 0000.0001) ># EXCH2 Package: Wrapper-2 User Choice
(PID.TID 0000.0001) >#--------------------
(PID.TID 0000.0001) >#  preDefTopol   :: pre-defined Topology selector:
(PID.TID 0000.0001) >#                :: = 0 : topology defined from processing "data.exch2";
(PID.TID 0000.0001) >#                :: = 1 : simple, single facet topology;
(PID.TID 0000.0001) >#                :: = 2 : customized topology (w2_set_myown_facets)
(PID.TID 0000.0001) >#                :: = 3 : 6-facet Cube (3 face-dims: nRed, nGreen, nBlue).
(PID.TID 0000.0001) >#  dimsFacets    :: facet pair of dimensions (n1x,n1y, n2x,n2y ...)
(PID.TID 0000.0001) >#  facetEdgeLink :: Face-Edge connectivity map:
(PID.TID 0000.0001) >#    facetEdgeLink(i,j)=XX.1 : face(j)-edge(i) (i=1,2,3,4 <==> N,S,E,W)
(PID.TID 0000.0001) >#    is connected to Northern edge of face "XX" ; similarly,
(PID.TID 0000.0001) >#    = XX.2 : to Southern.E, XX.3 = Eastern.E, XX.4 = Western.E of face "XX"
(PID.TID 0000.0001) >#  blankList     :: List of "blank" tiles
(PID.TID 0000.0001) >#  W2_mapIO      :: global map IO selector (-1 = old type ; 0 = 1 long line in X
(PID.TID 0000.0001) >#                :: 1 = compact, mostly in Y dir)
(PID.TID 0000.0001) >#  W2_printMsg   :: option for information messages printing
(PID.TID 0000.0001) >#                :: <0 : write to log file ; =0 : minimum print ;
(PID.TID 0000.0001) >#                :: =1 : no duplicated print ; =2 : all processes do print
(PID.TID 0000.0001) >#--------------------
(PID.TID 0000.0001) > &W2_EXCH2_PARM01
(PID.TID 0000.0001) ># W2_printMsg= 0,
(PID.TID 0000.0001) >  W2_mapIO   = 1,
(PID.TID 0000.0001) >#
(PID.TID 0000.0001) >  preDefTopol=0,
(PID.TID 0000.0001) >#-- 5 facets llc_120 topology (drop facet 6 and its connection):
(PID.TID 0000.0001) >  dimsFacets(1:10) = 90, 270, 90, 270, 90, 90, 270, 90, 270, 90,
(PID.TID 0000.0001) >  facetEdgeLink(1:4,1)= 3.4, 0. , 2.4, 5.1,
(PID.TID 0000.0001) >  facetEdgeLink(1:4,2)= 3.2, 0. , 4.2, 1.3,
(PID.TID 0000.0001) >  facetEdgeLink(1:4,3)= 5.4, 2.1, 4.4, 1.1,
(PID.TID 0000.0001) >  facetEdgeLink(1:4,4)= 5.2, 2.3, 0. , 3.3,
(PID.TID 0000.0001) >  facetEdgeLink(1:4,5)= 1.4, 4.1, 0. , 3.1,
(PID.TID 0000.0001) >#-- full 6 facets llc_120 topology (equivalent to default preDefTopol=3):
(PID.TID 0000.0001) ># dimsFacets(1:12) = 120, 360, 120, 360, 120, 120, 360, 120, 360, 120, 120, 120,
(PID.TID 0000.0001) ># facetEdgeLink(1:4,1)= 3.4, 6.1, 2.4, 5.1,
(PID.TID 0000.0001) ># facetEdgeLink(1:4,2)= 3.2, 6.3, 4.2, 1.3,
(PID.TID 0000.0001) ># facetEdgeLink(1:4,3)= 5.4, 2.1, 4.4, 1.1,
(PID.TID 0000.0001) ># facetEdgeLink(1:4,4)= 5.2, 2.3, 6.2, 3.3,
(PID.TID 0000.0001) ># facetEdgeLink(1:4,5)= 1.4, 4.1, 6.4, 3.1,
(PID.TID 0000.0001) ># facetEdgeLink(1:4,6)= 1.2, 4.3, 2.2, 5.3,
(PID.TID 0000.0001) >#
(PID.TID 0000.0001) >#90x30   nprocs = 36
(PID.TID 0000.0001) ># blankList(1:3)=1,10,11,
(PID.TID 0000.0001) >#30x90
(PID.TID 0000.0001) >#
(PID.TID 0000.0001) >#45x30   nprocs = 72
(PID.TID 0000.0001) ># blankList(1:6)=1,2,19,20,21,22
(PID.TID 0000.0001) >#30x45   nprocs = 68
(PID.TID 0000.0001) ># blankList(1:10)=2,3,19,20,21,35,51,60,69,78
(PID.TID 0000.0001) >#45x45   nprocs = 48
(PID.TID 0000.0001) ># blankList(1:4)=2,13,14,23
(PID.TID 0000.0001) >#30x30   nprocs = 96
(PID.TID 0000.0001) >  blankList(1:21)=1,2,3,5,6,28,29,30,31,32,33,49,50,52,53,72,81,90,99,108,117
(PID.TID 0000.0001) >#30x30   nprocs = 112
(PID.TID 0000.0001) ># blankList(1:5)=2,3,28,29,30
(PID.TID 0000.0001) >#15x30   nprocs = 192
(PID.TID 0000.0001) ># blankList(1:42)=1,2,3,4,5,6,9,10,11,12,55,56,57,58,59,60,61,62,63,64,65,66,
(PID.TID 0000.0001) >#            97,98,99,100,103,104,105,106,143,144,
(PID.TID 0000.0001) >#            161,162,179,180,197,198,215,216,233,234
(PID.TID 0000.0001) >#15x15   nprocs = 360
(PID.TID 0000.0001) ># blankList(1:108)=1,2,3,4,5,6,7,8,9,10,11,12,14,15,16,17,18,21,22,23,24,
(PID.TID 0000.0001) >#  65,71,75,76,90,95,96,101,102,109,110,111,112,113,114,115,116,117,118,119,
(PID.TID 0000.0001) >#  120,121,122,123,124,125,126,127,128,129,130,131,132,
(PID.TID 0000.0001) >#  188,189,190,193,194,195,196,199,
(PID.TID 0000.0001) >#  200,201,202,203,205,206,207,208,209,211,212,213,214,215,216,242,247,253,
(PID.TID 0000.0001) >#  267,268,269,270,287,288,305,306,323,324,341,342,359,360,362,376,377,378,
(PID.TID 0000.0001) >#  380,381,382,395,396,400,412,413,414,430,
(PID.TID 0000.0001) >#note: it seems that 8 of the followig 9 tiles could be added to 15x15 blank
(PID.TID 0000.0001) >#  list to reach 352=22*16 cores : 431 432 440 441 448 449 450 467 468
(PID.TID 0000.0001) > &
(PID.TID 0000.0001) 
(PID.TID 0000.0001) W2_READPARMS: finished reading data.exch2
(PID.TID 0000.0001) W2_useE2ioLayOut=    T ;/* T: use Exch2 glob IO map; F: use model default */
(PID.TID 0000.0001) W2_mapIO        =   1 ; /* select option for Exch2 global-IO map */
(PID.TID 0000.0001) W2_printMsg     =  -1 ; /* select option for printing information */
(PID.TID 0000.0001) ===== Start setting W2 TOPOLOGY:
(PID.TID 0000.0001)  write to log-file: w2_tile_topology.0000.log
(PID.TID 0000.0001) =====       setting W2 TOPOLOGY: Done
(PID.TID 0000.0001) 
(PID.TID 0000.0001)  INI_PARMS: opening model parameter file "data"
(PID.TID 0000.0001)  OPEN_COPY_DATA_FILE: opening file data
(PID.TID 0000.0001) // =======================================================
(PID.TID 0000.0001) // Parameter file "data"
(PID.TID 0000.0001) // =======================================================
(PID.TID 0000.0001) ># ====================
(PID.TID 0000.0001) ># | Model parameters |
(PID.TID 0000.0001) ># ====================
(PID.TID 0000.0001) >#
(PID.TID 0000.0001) ># Continuous equation parameters
(PID.TID 0000.0001) > &PARM01
(PID.TID 0000.0001) > tRef               = 3*23.,3*22.,21.,2*20.,19.,2*18.,17.,2*16.,15.,14.,13.,
(PID.TID 0000.0001) >                      12.,11.,2*9.,8.,7.,2*6.,2*5.,3*4.,3*3.,4*2.,12*1.,
(PID.TID 0000.0001) > sRef               = 50*34.5,
(PID.TID 0000.0001) > no_slip_sides  = .TRUE.,
(PID.TID 0000.0001) > no_slip_bottom = .TRUE.,
(PID.TID 0000.0001) >#
(PID.TID 0000.0001) > viscAr=0.5E-4,
(PID.TID 0000.0001) >#
(PID.TID 0000.0001) > viscAh=1.E0,
(PID.TID 0000.0001) > viscAhGrid=2.E-2,
(PID.TID 0000.0001) ># viscAh=2.0e4,
(PID.TID 0000.0001) >#
(PID.TID 0000.0001) > diffKhT=1.E1,
(PID.TID 0000.0001) > diffKrT=1.E-5,
(PID.TID 0000.0001) > diffKhS=1.E1,
(PID.TID 0000.0001) > diffKrS=1.E-5,
(PID.TID 0000.0001) >#
(PID.TID 0000.0001) >### diffKrBL79surf=0.1E-4,
(PID.TID 0000.0001) >### diffKrBL79deep=1.0E-4,
(PID.TID 0000.0001) > bottomDragQuadratic = 0.001,
(PID.TID 0000.0001) >#when using ggl90
(PID.TID 0000.0001) > ivdc_kappa=10.,
(PID.TID 0000.0001) > implicitDiffusion=.TRUE.,
(PID.TID 0000.0001) > implicitViscosity=.TRUE.,
(PID.TID 0000.0001) > useRealFreshWaterFlux=.TRUE.,
(PID.TID 0000.0001) ># balanceThetaClimRelax=.TRUE.,
(PID.TID 0000.0001) > balanceSaltClimRelax=.TRUE.,
(PID.TID 0000.0001) ># balanceEmPmR=.TRUE.,
(PID.TID 0000.0001) ># balanceQnet=.TRUE.,
(PID.TID 0000.0001) > allowFreezing=.FALSE.,
(PID.TID 0000.0001) >### hFacInf=0.2,
(PID.TID 0000.0001) >### hFacSup=2.0,
(PID.TID 0000.0001) > hFacMin=.2,
(PID.TID 0000.0001) > hFacMinDr=5.,
(PID.TID 0000.0001) > select_rStar=2,
(PID.TID 0000.0001) > nonlinFreeSurf=4,
(PID.TID 0000.0001) > gravity=9.81,
(PID.TID 0000.0001) > rhonil=1029.,
(PID.TID 0000.0001) > rhoConst=1029.,
(PID.TID 0000.0001) > rhoConstFresh=1000.,
(PID.TID 0000.0001) > convertFW2Salt=-1.,
(PID.TID 0000.0001) > eosType='JMD95Z',
(PID.TID 0000.0001) > implicitFreeSurface=.TRUE.,
(PID.TID 0000.0001) > exactConserv=.TRUE.,
(PID.TID 0000.0001) > useSingleCpuIO=.TRUE.,
(PID.TID 0000.0001) > tempAdvScheme=77,
(PID.TID 0000.0001) > saltAdvScheme=77,
(PID.TID 0000.0001) ># tempVertAdvScheme=3,
(PID.TID 0000.0001) ># saltVertAdvScheme=3,
(PID.TID 0000.0001) ># tempImplVertAdv=.TRUE.,
(PID.TID 0000.0001) ># saltImplVertAdv=.TRUE.,
(PID.TID 0000.0001) > staggerTimeStep=.TRUE.,
(PID.TID 0000.0001) > vectorInvariantMomentum=.TRUE.,
(PID.TID 0000.0001) >#when using the cd scheme:
(PID.TID 0000.0001) ># useCDscheme=.TRUE.,
(PID.TID 0000.0001) > useJamartWetPoints=.TRUE.,
(PID.TID 0000.0001) > readBinaryPrec=32,
(PID.TID 0000.0001) > writeBinaryPrec=32,
(PID.TID 0000.0001) > debugLevel=2,
(PID.TID 0000.0001) > &
(PID.TID 0000.0001) >
(PID.TID 0000.0001) ># Elliptic solver parameters
(PID.TID 0000.0001) > &PARM02
(PID.TID 0000.0001) > cg2dMaxIters=300,
(PID.TID 0000.0001) > cg2dTargetResWunit=1.E-12,
(PID.TID 0000.0001) > &
(PID.TID 0000.0001) >
(PID.TID 0000.0001) ># Time stepping parameters
(PID.TID 0000.0001) > &PARM03
(PID.TID 0000.0001) > nIter0=1,
(PID.TID 0000.0001) >#2 lev2 for testing:
(PID.TID 0000.0001) ># nTimeSteps       = 96,
(PID.TID 0000.0001) >#20y:
(PID.TID 0000.0001) >  nTimeSteps       = 96,
(PID.TID 0000.0001) >#60 years
(PID.TID 0000.0001) ># nTimeSteps       = 96,
(PID.TID 0000.0001) >#
(PID.TID 0000.0001) > forcing_In_AB=.FALSE.,
(PID.TID 0000.0001) > momDissip_In_AB=.FALSE.,
(PID.TID 0000.0001) >#when using the cd scheme:
(PID.TID 0000.0001) ># epsAB_CD = 0.25,
(PID.TID 0000.0001) ># tauCD=172800.0,
(PID.TID 0000.0001) > deltaT = 900.,
(PID.TID 0000.0001) >#when using ab2:
(PID.TID 0000.0001) > abEps = 0.1,
(PID.TID 0000.0001) >#when using ab3:
(PID.TID 0000.0001) ># doAB_onGtGs=.FALSE.,
(PID.TID 0000.0001) ># alph_AB=0.5,
(PID.TID 0000.0001) ># beta_AB=0.281105,
(PID.TID 0000.0001) >#
(PID.TID 0000.0001) >  pChkptFreq        = 86400.0,
(PID.TID 0000.0001) >  chkptFreq        = 86400.0,
(PID.TID 0000.0001) ># taveFreq    =31536000.0,
(PID.TID 0000.0001) ># dumpFreq    =31536000.0,
(PID.TID 0000.0001) > monitorFreq = 7200.0,
(PID.TID 0000.0001) > dumpInitAndLast = .TRUE.,
(PID.TID 0000.0001) > pickupStrictlyMatch=.FALSE.,
(PID.TID 0000.0001) > &
(PID.TID 0000.0001) >
(PID.TID 0000.0001) ># Gridding parameters
(PID.TID 0000.0001) > &PARM04
(PID.TID 0000.0001) > usingCurvilinearGrid=.TRUE.,
(PID.TID 0000.0001) > delR =
(PID.TID 0000.0001) >     10.00, 10.00, 10.00, 10.00, 10.00, 10.00, 10.00, 10.01,
(PID.TID 0000.0001) >     10.03, 10.11, 10.32, 10.80, 11.76, 13.42, 16.04, 19.82, 24.85,
(PID.TID 0000.0001) >     31.10, 38.42, 46.50, 55.00, 63.50, 71.58, 78.90, 85.15, 90.18,
(PID.TID 0000.0001) >     93.96, 96.58, 98.25, 99.25,100.01,101.33,104.56,111.33,122.83,
(PID.TID 0000.0001) >     139.09,158.94,180.83,203.55,226.50,249.50,272.50,295.50,318.50,
(PID.TID 0000.0001) >     341.50,364.50,387.50,410.50,433.50,456.50,
(PID.TID 0000.0001) > &
(PID.TID 0000.0001) >
(PID.TID 0000.0001) ># Input datasets
(PID.TID 0000.0001) > &PARM05
(PID.TID 0000.0001) >#adTapeDir='tapes',
(PID.TID 0000.0001) > bathyFile      ='bathy.bin',
(PID.TID 0000.0001) > hydrogThetaFile='T_OWPv1_M_eccollc_90x50.bin',
(PID.TID 0000.0001) > hydrogSaltFile ='S_OWPv1_M_eccollc_90x50.bin',
(PID.TID 0000.0001) > viscA4Dfile    ='viscA4Dfld.bin',
(PID.TID 0000.0001) > viscA4Zfile    ='viscA4Zfld.bin',
(PID.TID 0000.0001) > geothermalFile='geothermalFlux.bin',
(PID.TID 0000.0001) >#
(PID.TID 0000.0001) > &
(PID.TID 0000.0001) 
(PID.TID 0000.0001)  INI_PARMS ; starts to read PARM01
(PID.TID 0000.0001)  INI_PARMS ; read PARM01 : OK
(PID.TID 0000.0001)  INI_PARMS ; starts to read PARM02
(PID.TID 0000.0001)  INI_PARMS ; read PARM02 : OK
(PID.TID 0000.0001)  INI_PARMS ; starts to read PARM03
(PID.TID 0000.0001)  INI_PARMS ; read PARM03 : OK
(PID.TID 0000.0001)  INI_PARMS ; starts to read PARM04
(PID.TID 0000.0001)  INI_PARMS ; read PARM04 : OK
(PID.TID 0000.0001)  INI_PARMS ; starts to read PARM05
(PID.TID 0000.0001)  INI_PARMS ; read PARM05 : OK
(PID.TID 0000.0001)  INI_PARMS: finished reading file "data"
(PID.TID 0000.0001)  PACKAGES_BOOT: opening data.pkg
(PID.TID 0000.0001)  OPEN_COPY_DATA_FILE: opening file data.pkg
(PID.TID 0000.0001) // =======================================================
(PID.TID 0000.0001) // Parameter file "data.pkg"
(PID.TID 0000.0001) // =======================================================
(PID.TID 0000.0001) ># Packages
(PID.TID 0000.0001) > &PACKAGES
(PID.TID 0000.0001) > useGMRedi          = .TRUE.,
(PID.TID 0000.0001) > useGGL90           = .TRUE.,
(PID.TID 0000.0001) > useSALT_PLUME      = .FALSE.,
(PID.TID 0000.0001) > useDiagnostics     = .TRUE.,
(PID.TID 0000.0001) > useCTRL            = .TRUE.,
(PID.TID 0000.0001) > useSEAICE          = .TRUE.,
(PID.TID 0000.0001) > &
(PID.TID 0000.0001) 
(PID.TID 0000.0001)  PACKAGES_BOOT: finished reading data.pkg
(PID.TID 0000.0001)  PACKAGES_BOOT: On/Off package Summary
 --------  pkgs with a standard "usePKG" On/Off switch in "data.pkg":  --------
 pkg/ggl90                compiled   and   used ( useGGL90                 = T )
 pkg/gmredi               compiled   and   used ( useGMRedi                = T )
 pkg/ctrl                 compiled   and   used ( useCTRL                  = T )
 pkg/seaice               compiled   and   used ( useSEAICE                = T )
 pkg/salt_plume           compiled but not used ( useSALT_PLUME            = F )
 pkg/diagnostics          compiled   and   used ( useDiagnostics           = T )
 -------- pkgs without standard "usePKG" On/Off switch in "data.pkg":  --------
 pkg/generic_advdiff      compiled   and   used ( useGAD                   = T )
 pkg/mom_common           compiled   and   used ( momStepping              = T )
 pkg/mom_vecinv           compiled   and   used ( +vectorInvariantMomentum = T )
 pkg/mom_fluxform         compiled but not used ( & not vectorInvariantMom = F )
 pkg/monitor              compiled   and   used ( monitorFreq > 0.         = T )
 pkg/debug                compiled but not used ( debugMode                = F )
 pkg/exch2                compiled   and   used
 pkg/rw                   compiled   and   used
 pkg/mdsio                compiled   and   used
(PID.TID 0000.0001)  PACKAGES_BOOT: End of package Summary
(PID.TID 0000.0001) 
(PID.TID 0000.0001)  GGL90_READPARMS: opening data.ggl90
(PID.TID 0000.0001)  OPEN_COPY_DATA_FILE: opening file data.ggl90
(PID.TID 0000.0001) // =======================================================
(PID.TID 0000.0001) // Parameter file "data.ggl90"
(PID.TID 0000.0001) // =======================================================
(PID.TID 0000.0001) ># =====================================================================
(PID.TID 0000.0001) ># | Parameters for Gaspar et al. (1990)'s TKE vertical mixing scheme  |
(PID.TID 0000.0001) ># =====================================================================
(PID.TID 0000.0001) > &GGL90_PARM01
(PID.TID 0000.0001) ># GGL90taveFreq = 345600000.,
(PID.TID 0000.0001) ># GGL90dumpFreq = 86400.,
(PID.TID 0000.0001) ># GGL90writeState=.FALSE.,
(PID.TID 0000.0001) ># GGL90diffTKEh=3.e3,
(PID.TID 0000.0001) > GGL90alpha=30.,
(PID.TID 0000.0001) ># GGL90TKEFile = 'TKE_init.bin',
(PID.TID 0000.0001) > GGL90TKEmin  = 1.e-7,
(PID.TID 0000.0001) > GGL90TKEbottom = 1.e-6,
(PID.TID 0000.0001) > mxlMaxFlag =2,
(PID.TID 0000.0001) > mxlSurfFlag=.TRUE.,
(PID.TID 0000.0001) > &
(PID.TID 0000.0001) 
(PID.TID 0000.0001)  GGL90_READPARMS ; starts to read GGL90_PARM01
(PID.TID 0000.0001)  GGL90_READPARMS: read GGL90_PARM01 : OK
(PID.TID 0000.0001)  GGL90_READPARMS: finished reading data.ggl90
(PID.TID 0000.0001) // =======================================================
(PID.TID 0000.0001) // GGL90 configuration
(PID.TID 0000.0001) // =======================================================
(PID.TID 0000.0001) GGL90dumpFreq =   /* GGL90 state write out interval ( s ). */
(PID.TID 0000.0001)                 0.000000000000000E+00
(PID.TID 0000.0001)     ;
(PID.TID 0000.0001) GGL90taveFreq =   /* GGL90 averaging interval ( s ). */
(PID.TID 0000.0001)                 0.000000000000000E+00
(PID.TID 0000.0001)     ;
(PID.TID 0000.0001) GGL90mixingMAPS =   /* GGL90 IO flag. */
(PID.TID 0000.0001)                   F
(PID.TID 0000.0001)     ;
(PID.TID 0000.0001) GGL90writeState =   /* GGL90 IO flag. */
(PID.TID 0000.0001)                   F
(PID.TID 0000.0001)     ;
(PID.TID 0000.0001) GGL90ck =   /* GGL90 viscosity parameter. */
(PID.TID 0000.0001)                 1.000000000000000E-01
(PID.TID 0000.0001)     ;
(PID.TID 0000.0001) GGL90ceps =   /* GGL90 dissipation parameter. */
(PID.TID 0000.0001)                 7.000000000000000E-01
(PID.TID 0000.0001)     ;
(PID.TID 0000.0001) GGL90alpha =   /* GGL90 TKE diffusivity parameter. */
(PID.TID 0000.0001)                 3.000000000000000E+01
(PID.TID 0000.0001)     ;
(PID.TID 0000.0001) GGL90m2 =   /* GGL90 wind stress to vertical stress ratio. */
(PID.TID 0000.0001)                 3.750000000000000E+00
(PID.TID 0000.0001)     ;
(PID.TID 0000.0001) GGL90TKEmin =   /* GGL90 minimum kinetic energy ( m^2/s^2 ). */
(PID.TID 0000.0001)                 1.000000000000000E-07
(PID.TID 0000.0001)     ;
(PID.TID 0000.0001) GGL90TKEsurfMin =   /* GGL90 minimum surface kinetic energy ( m^2/s^2 ). */
(PID.TID 0000.0001)                 1.000000000000000E-04
(PID.TID 0000.0001)     ;
(PID.TID 0000.0001) GGL90TKEbottom =   /* GGL90 bottom kinetic energy ( m^2/s^2 ). */
(PID.TID 0000.0001)                 1.000000000000000E-06
(PID.TID 0000.0001)     ;
(PID.TID 0000.0001) GGL90viscMax =   /* GGL90 upper limit for viscosity ( m^2/s ). */
(PID.TID 0000.0001)                 1.000000000000000E+02
(PID.TID 0000.0001)     ;
(PID.TID 0000.0001) GGL90diffMax =   /* GGL90 upper limit for diffusivity ( m^2/s ). */
(PID.TID 0000.0001)                 1.000000000000000E+02
(PID.TID 0000.0001)     ;
(PID.TID 0000.0001) GGL90diffTKEh =   /* GGL90 horizontal diffusivity for TKE ( m^2/s ). */
(PID.TID 0000.0001)                 0.000000000000000E+00
(PID.TID 0000.0001)     ;
(PID.TID 0000.0001) GGL90mixingLengthMin =   /* GGL90 minimum mixing length ( m ). */
(PID.TID 0000.0001)                 1.000000000000000E-08
(PID.TID 0000.0001)     ;
(PID.TID 0000.0001) mxlMaxFlag =   /* Flag for limiting mixing-length method */
(PID.TID 0000.0001)                       2
(PID.TID 0000.0001)     ;
(PID.TID 0000.0001) mxlSurfFlag =   /* GGL90 flag for near surface mixing. */
(PID.TID 0000.0001)                   T
(PID.TID 0000.0001)     ;
(PID.TID 0000.0001) calcMeanVertShear = /* calc Mean of Vert.Shear (vs shear of Mean flow) */
(PID.TID 0000.0001)                   F
(PID.TID 0000.0001)     ;
(PID.TID 0000.0001) GGL90: GGL90TKEFile =
(PID.TID 0000.0001) GGL90writeState =   /* GGL90 Boundary condition flag. */
(PID.TID 0000.0001)                   T
(PID.TID 0000.0001)     ;
(PID.TID 0000.0001) // =======================================================
(PID.TID 0000.0001) // End of GGL90 config. summary
(PID.TID 0000.0001) // =======================================================
(PID.TID 0000.0001) 
(PID.TID 0000.0001)  GM_READPARMS: opening data.gmredi
(PID.TID 0000.0001)  OPEN_COPY_DATA_FILE: opening file data.gmredi
(PID.TID 0000.0001) // =======================================================
(PID.TID 0000.0001) // Parameter file "data.gmredi"
(PID.TID 0000.0001) // =======================================================
(PID.TID 0000.0001) ># GM+Redi package parameters:
(PID.TID 0000.0001) >#     GM_Small_Number  :: epsilon used in computing the slope
(PID.TID 0000.0001) >#     GM_slopeSqCutoff :: slope^2 cut-off value
(PID.TID 0000.0001) >
(PID.TID 0000.0001) >#-from MOM :
(PID.TID 0000.0001) ># GM_background_K: 	G & Mc.W  diffusion coefficient
(PID.TID 0000.0001) ># GM_maxSlope    :	max slope of isopycnals
(PID.TID 0000.0001) ># GM_Scrit       :	transition for scaling diffusion coefficient
(PID.TID 0000.0001) ># GM_Sd          :	half width scaling for diffusion coefficient
(PID.TID 0000.0001) ># GM_taper_scheme:	slope clipping or one of the tapering schemes
(PID.TID 0000.0001) ># GM_Kmin_horiz  :	horizontal diffusion minimum value
(PID.TID 0000.0001) >
(PID.TID 0000.0001) >#-Option parameters (needs to "define" options in GMREDI_OPTIONS.h")
(PID.TID 0000.0001) ># GM_isopycK     :	isopycnal diffusion coefficient (default=GM_background_K)
(PID.TID 0000.0001) ># GM_AdvForm     :	turn on GM Advective form       (default=Skew flux form)
(PID.TID 0000.0001) >
(PID.TID 0000.0001) > &GM_PARM01
(PID.TID 0000.0001) >  GM_Small_Number  = 1.D-20,
(PID.TID 0000.0001) >  GM_slopeSqCutoff = 1.D+08,
(PID.TID 0000.0001) >  GM_AdvForm         = .TRUE.,
(PID.TID 0000.0001) >  GM_isopycK         = 1.D+3,
(PID.TID 0000.0001) >  GM_background_K    = 1.D+3,
(PID.TID 0000.0001) >  GM_maxSlope        = 4.D-3,
(PID.TID 0000.0001) >  GM_taper_scheme    = 'stableGmAdjTap',
(PID.TID 0000.0001) >  GM_Kmin_horiz      = 100.,
(PID.TID 0000.0001) >  GM_Scrit           = 4.D-3,
(PID.TID 0000.0001) >  GM_Sd              = 1.D-3,
(PID.TID 0000.0001) >#
(PID.TID 0000.0001) >###  GM_Visbeck_alpha   = 1.5D-2,
(PID.TID 0000.0001) >###  GM_Visbeck_alpha   = 0.D0,
(PID.TID 0000.0001) >###  GM_Visbeck_length  = 2.D+5,
(PID.TID 0000.0001) >###  GM_Visbeck_depth   = 1.D+3,
(PID.TID 0000.0001) >###  GM_Visbeck_maxval_K= 2.5D+3,
(PID.TID 0000.0001) > &
(PID.TID 0000.0001) >
(PID.TID 0000.0001) >
(PID.TID 0000.0001) 
(PID.TID 0000.0001)  GM_READPARMS: finished reading data.gmredi
(PID.TID 0000.0001) 
(PID.TID 0000.0001)  SEAICE_READPARMS: opening data.seaice
(PID.TID 0000.0001)  OPEN_COPY_DATA_FILE: opening file data.seaice
(PID.TID 0000.0001) // =======================================================
(PID.TID 0000.0001) // Parameter file "data.seaice"
(PID.TID 0000.0001) // =======================================================
(PID.TID 0000.0001) ># SEAICE parameters
(PID.TID 0000.0001) > &SEAICE_PARM01
(PID.TID 0000.0001) > usePW79thermodynamics= .FALSE.,
(PID.TID 0000.0001) ># SEAICEuseDYNAMICS = .FALSE.,
(PID.TID 0000.0001) ># SEAICEupdateOceanStress=.FALSE.,
(PID.TID 0000.0001) ># SEAICEadvHeff  = .FALSE.,
(PID.TID 0000.0001) ># SEAICEadvArea  = .FALSE.,
(PID.TID 0000.0001) ># SEAICEadvSnow  = .FALSE.,
(PID.TID 0000.0001) ># SEAICEadvSalt  = .FALSE.,
(PID.TID 0000.0001) >#--
(PID.TID 0000.0001) > SEAICE_strength    = 2.6780e+04,
(PID.TID 0000.0001) > OCEAN_drag         = 8.1541e-04,
(PID.TID 0000.0001) ># SEAICE_waterDrag   = 5.3508,
(PID.TID 0000.0001) >#- waterDrag no longer includes rhoConst factor:
(PID.TID 0000.0001) ># SEAICE_waterDrag   = 5.16985507246376811E-3,
(PID.TID 0000.0001) >  SEAICE_waterDrag   = 5.169855072463768E-3,
(PID.TID 0000.0001) >#- old defaults
(PID.TID 0000.0001) >  SEAICEscaleSurfStress = .FALSE.,
(PID.TID 0000.0001) >  SEAICEaddSnowMass     = .FALSE.,
(PID.TID 0000.0001) >  SEAICE_useMultDimSnow = .FALSE.,
(PID.TID 0000.0001) >  SEAICE_Olx = 0,
(PID.TID 0000.0001) >  SEAICE_Oly = 0,
(PID.TID 0000.0001) >  SEAICEetaZmethod = 0,
(PID.TID 0000.0001) >  SEAICE_drag = 2.E-3,
(PID.TID 0000.0001) >#--
(PID.TID 0000.0001) > SEAICE_no_Slip     = .FALSE.,
(PID.TID 0000.0001) > LSR_ERROR          = 1.E-4,
(PID.TID 0000.0001) > SEAICElinearIterMax=  500,
(PID.TID 0000.0001) >#LSR_mixIniGuess    = 1,
(PID.TID 0000.0001) > SEAICEadvScheme    = 77,
(PID.TID 0000.0001) > AreaFile  = 'const100.bin',
(PID.TID 0000.0001) > HeffFile  = 'const+20.bin',
(PID.TID 0000.0001) > HsnowFile = 'const_00.bin',
(PID.TID 0000.0001) > SEAICEwriteState   = .TRUE.,
(PID.TID 0000.0001) >#SEAICE_monFreq = 1800.,
(PID.TID 0000.0001) > &
(PID.TID 0000.0001) >
(PID.TID 0000.0001) > &SEAICE_PARM03
(PID.TID 0000.0001) > &
(PID.TID 0000.0001) 
(PID.TID 0000.0001)  SEAICE_READPARMS: finished reading data.seaice
(PID.TID 0000.0001) OPTIM_READPARMS: opening data.optim
(PID.TID 0000.0001)  OPEN_COPY_DATA_FILE: opening file data.optim
(PID.TID 0000.0001) // =======================================================
(PID.TID 0000.0001) // Parameter file "data.optim"
(PID.TID 0000.0001) // =======================================================
(PID.TID 0000.0001) >#
(PID.TID 0000.0001) ># ********************************
(PID.TID 0000.0001) ># Off-line optimization parameters
(PID.TID 0000.0001) ># ********************************
(PID.TID 0000.0001) > &OPTIM
(PID.TID 0000.0001) > optimcycle=12,
(PID.TID 0000.0001) > &
(PID.TID 0000.0001) 
(PID.TID 0000.0001) OPTIM_READPARMS: finished reading data.optim
(PID.TID 0000.0001) CTRL_READPARMS: opening data.ctrl
(PID.TID 0000.0001)  OPEN_COPY_DATA_FILE: opening file data.ctrl
(PID.TID 0000.0001) // =======================================================
(PID.TID 0000.0001) // Parameter file "data.ctrl"
(PID.TID 0000.0001) // =======================================================
(PID.TID 0000.0001) ># *********************
(PID.TID 0000.0001) ># ECCO control variables
(PID.TID 0000.0001) ># *********************
(PID.TID 0000.0001) > &ctrl_nml
(PID.TID 0000.0001) > doSinglePrecTapelev=.TRUE.,
(PID.TID 0000.0001) >#to start from given xx*00.data files
(PID.TID 0000.0001) >  doinitxx = .FALSE.,
(PID.TID 0000.0001) >  doMainUnpack = .FALSE.,
(PID.TID 0000.0001) >#to start from given ecco_ctrl... files
(PID.TID 0000.0001) ># doinitxx = .FALSE.,
(PID.TID 0000.0001) > &
(PID.TID 0000.0001) >#
(PID.TID 0000.0001) ># *********************
(PID.TID 0000.0001) ># names for ctrl_pack/unpack
(PID.TID 0000.0001) ># *********************
(PID.TID 0000.0001) > &ctrl_packnames
(PID.TID 0000.0001) > &
(PID.TID 0000.0001) >#
(PID.TID 0000.0001) ># *********************
(PID.TID 0000.0001) ># names for CTRL_GENARR2D,3D CTRL_GENTIM2D
(PID.TID 0000.0001) ># *********************
(PID.TID 0000.0001) > &CTRL_NML_GENARR
(PID.TID 0000.0001) >#
(PID.TID 0000.0001) > xx_genarr3d_weight(1) = 'wt_ones.data',
(PID.TID 0000.0001) > xx_genarr3d_file(1)='xx_kapgm',
(PID.TID 0000.0001) > mult_genarr3d(1) = 0.,
(PID.TID 0000.0001) >#
(PID.TID 0000.0001) > xx_genarr3d_weight(2) = 'wt_ones.data',
(PID.TID 0000.0001) > xx_genarr3d_file(2)='xx_kapredi',
(PID.TID 0000.0001) > mult_genarr3d(2) = 0.,
(PID.TID 0000.0001) >#
(PID.TID 0000.0001) > xx_genarr3d_weight(3) = 'wt_ones.data',
(PID.TID 0000.0001) > xx_genarr3d_file(3)='xx_diffkr',
(PID.TID 0000.0001) > mult_genarr3d(3) = 0.,
(PID.TID 0000.0001) >#
(PID.TID 0000.0001) > &
(PID.TID 0000.0001) 
(PID.TID 0000.0001) CTRL_READPARMS: finished reading data.ctrl
(PID.TID 0000.0001)  DIAGNOSTICS_READPARMS: opening data.diagnostics
(PID.TID 0000.0001)  OPEN_COPY_DATA_FILE: opening file data.diagnostics
(PID.TID 0000.0001) // =======================================================
(PID.TID 0000.0001) // Parameter file "data.diagnostics"
(PID.TID 0000.0001) // =======================================================
(PID.TID 0000.0001) ># Diagnostic Package Choices
(PID.TID 0000.0001) >#--------------------
(PID.TID 0000.0001) >#  dumpAtLast (logical): always write output at the end of simulation (default=F)
(PID.TID 0000.0001) >#  diag_mnc   (logical): write to NetCDF files (default=useMNC)
(PID.TID 0000.0001) >#--for each output-stream:
(PID.TID 0000.0001) >#  fileName(n) : prefix of the output file name (max 80c long) for outp.stream n
(PID.TID 0000.0001) >#  frequency(n):< 0 : write snap-shot output every |frequency| seconds
(PID.TID 0000.0001) >#               > 0 : write time-average output every frequency seconds
(PID.TID 0000.0001) >#  timePhase(n)     : write at time = timePhase + multiple of |frequency|
(PID.TID 0000.0001) >#    averagingFreq  : frequency (in s) for periodic averaging interval
(PID.TID 0000.0001) >#    averagingPhase : phase     (in s) for periodic averaging interval
(PID.TID 0000.0001) >#    repeatCycle    : number of averaging intervals in 1 cycle
(PID.TID 0000.0001) >#  levels(:,n) : list of levels to write to file (Notes: declared as REAL)
(PID.TID 0000.0001) >#                when this entry is missing, select all common levels of this list
(PID.TID 0000.0001) >#  fields(:,n) : list of selected diagnostics fields (8.c) in outp.stream n
(PID.TID 0000.0001) >#                (see "available_diagnostics.log" file for the full list of diags)
(PID.TID 0000.0001) >#  missing_value(n) : missing value for real-type fields in output file "n"
(PID.TID 0000.0001) >#  fileFlags(n)     : specific code (8c string) for output file "n"
(PID.TID 0000.0001) >#--------------------
(PID.TID 0000.0001) ># This example dumps EXF diagnostics as snapshot after 10 time-steps
(PID.TID 0000.0001) ># Note: EXF air-sea fluxes over Sea-Ice are wrong
(PID.TID 0000.0001) > &DIAGNOSTICS_LIST
(PID.TID 0000.0001) >   dumpAtLast  = .TRUE.,
(PID.TID 0000.0001) >#--
(PID.TID 0000.0001) >  fields(1:10,1)  = 'oceQnet ','oceQsw  ','oceFWflx','oceSflux',
(PID.TID 0000.0001) >                      'oceTAUX ','oceTAUY ',
(PID.TID 0000.0001) >                      'THETA   ','SALT    ','UVEL    ', 'VVEL    ',
(PID.TID 0000.0001) >  fileName(1) = 'surfDiag',
(PID.TID 0000.0001) >  frequency(1) = 3600.,
(PID.TID 0000.0001) >
(PID.TID 0000.0001) >  fields(1:8,2)  = 'SIarea  ','SIheff  ','SIhsnow ','sIceLoad',
(PID.TID 0000.0001) >                   'SIuice  ','SIvice  ','SItaux  ','SItauy  ',
(PID.TID 0000.0001) >   fileName(2) = 'iceDiag',
(PID.TID 0000.0001) >  frequency(2) =  3600.,
(PID.TID 0000.0001) >  missing_value(2) = -999.,
(PID.TID 0000.0001) >
(PID.TID 0000.0001) >  fields(1:9,3)  = 'SIarea  ','SIheff  ','SIhsnow ','sIceLoad',
(PID.TID 0000.0001) >                   'SIuice  ','SIvice  ','SItaux  ','SItauy  ',
(PID.TID 0000.0001) >                   'CPLoWGHT',
(PID.TID 0000.0001) >#  fileName(3) = 'iceInst',
(PID.TID 0000.0001) >  frequency(3) = -3600.,
(PID.TID 0000.0001) >  timePhase(3) =  0.,
(PID.TID 0000.0001) >  missing_value(3) = -999.,
(PID.TID 0000.0001) >
(PID.TID 0000.0001) >  fields(1:11,4) = 'SIareaN ','SIheffN ','SIhsnowN','SIqSnow ',
(PID.TID 0000.0001) >                   'SImeltPd','SItIces ','SIiceAge',
(PID.TID 0000.0001) >                   'SI_dArea','SI_dHeff','SI_dHsnw','SI_dQSnw',
(PID.TID 0000.0001) >#                  'SI_dMPnd',
(PID.TID 0000.0001) >#                  'SI_dTIce','SI_dIcAg',
(PID.TID 0000.0001) >  fileName(4) = 'iceNcat',
(PID.TID 0000.0001) >  frequency(4) = 3600.,
(PID.TID 0000.0001) >  timePhase(4) = 0.,
(PID.TID 0000.0001) >  fileFlags(4) = 'D       ',
(PID.TID 0000.0001) >
(PID.TID 0000.0001) >  fields(1:2,5)  = 'SIqIce  ',
(PID.TID 0000.0001) >                   'SI_dQIce',
(PID.TID 0000.0001) >  fileName(5) = 'iceEnerg',
(PID.TID 0000.0001) >  frequency(5) = -3600.,
(PID.TID 0000.0001) >  timePhase(5) =  0.,
(PID.TID 0000.0001) >
(PID.TID 0000.0001) >  fields(1:2,6)  = 'SIqSnow ',
(PID.TID 0000.0001) >                   'SI_dQSnw',
(PID.TID 0000.0001) >  fileName(6) = 'snowEnerg',
(PID.TID 0000.0001) >  frequency(6) = -3600.,
(PID.TID 0000.0001) >  timePhase(6) =  0.,
(PID.TID 0000.0001) > &
(PID.TID 0000.0001) >
(PID.TID 0000.0001) >#--------------------
(PID.TID 0000.0001) ># Parameter for Diagnostics of per level statistics:
(PID.TID 0000.0001) >#--------------------
(PID.TID 0000.0001) >#  diagSt_mnc (logical): write stat-diags to NetCDF files (default=diag_mnc)
(PID.TID 0000.0001) >#  diagSt_regMaskFile : file containing the region-mask to read-in
(PID.TID 0000.0001) >#  nSetRegMskFile   : number of region-mask sets within the region-mask file
(PID.TID 0000.0001) >#  set_regMask(i)   : region-mask set-index that identifies the region "i"
(PID.TID 0000.0001) >#  val_regMask(i)   : region "i" identifier value in the region mask
(PID.TID 0000.0001) >#--for each output-stream:
(PID.TID 0000.0001) >#  stat_fName(n) : prefix of the output file name (max 80c long) for outp.stream n
(PID.TID 0000.0001) >#  stat_freq(n):< 0 : write snap-shot output every |stat_freq| seconds
(PID.TID 0000.0001) >#               > 0 : write time-average output every stat_freq seconds
(PID.TID 0000.0001) >#  stat_phase(n)    : write at time = stat_phase + multiple of |stat_freq|
(PID.TID 0000.0001) >#  stat_region(:,n) : list of "regions" (default: 1 region only=global)
(PID.TID 0000.0001) >#  stat_fields(:,n) : list of selected diagnostics fields (8.c) in outp.stream n
(PID.TID 0000.0001) >#                (see "available_diagnostics.log" file for the full list of diags)
(PID.TID 0000.0001) >#--------------------
(PID.TID 0000.0001) > &DIAG_STATIS_PARMS
(PID.TID 0000.0001) > stat_fields(1:21,1)  = 'SIarea  ','SIheff  ','SIhsnow ','sIceLoad',
(PID.TID 0000.0001) >                        'SIuice  ','SIvice  ','SItaux  ','SItauy  ',
(PID.TID 0000.0001) >                        'SIareaN ','SIheffN ','SIhsnowN',
(PID.TID 0000.0001) >                        'SIqSnow ','SIqIce  ','SImeltPd',
(PID.TID 0000.0001) >                        'SItIces ','SIiceAge',
(PID.TID 0000.0001) >                        'SI_dArea','SI_dHeff','SI_dHsnw',
(PID.TID 0000.0001) >                        'SI_dQSnw','SI_dQIce',
(PID.TID 0000.0001) >#                       'SI_dMPnd','SI_dTIce','SI_dIcAg',
(PID.TID 0000.0001) >  stat_fName(1) = 'iceStDiag',
(PID.TID 0000.0001) >   stat_freq(1) = 3600.,
(PID.TID 0000.0001) ># stat_phase(1) = 1800.,
(PID.TID 0000.0001) > &
(PID.TID 0000.0001) 
(PID.TID 0000.0001) S/R DIAGNOSTICS_READPARMS, read namelist "diagnostics_list": start
(PID.TID 0000.0001) S/R DIAGNOSTICS_READPARMS, read namelist "diagnostics_list": OK
(PID.TID 0000.0001) S/R DIAGNOSTICS_READPARMS, read namelist "DIAG_STATIS_PARMS": start
(PID.TID 0000.0001) S/R DIAGNOSTICS_READPARMS, read namelist "DIAG_STATIS_PARMS": OK
(PID.TID 0000.0001)  DIAGNOSTICS_READPARMS: global parameter summary:
(PID.TID 0000.0001)  dumpAtLast = /* always write time-ave diags at the end */
(PID.TID 0000.0001)                   T
(PID.TID 0000.0001)     ;
(PID.TID 0000.0001)  diag_mnc =   /* write NetCDF output files */
(PID.TID 0000.0001)                   F
(PID.TID 0000.0001)     ;
(PID.TID 0000.0001)  useMissingValue = /* put MissingValue where mask = 0 */
(PID.TID 0000.0001)                   F
(PID.TID 0000.0001)     ;
(PID.TID 0000.0001)  diagCG_maxIters = /* max number of iters in diag_cg2d */
(PID.TID 0000.0001)                     300
(PID.TID 0000.0001)     ;
(PID.TID 0000.0001)  diagCG_resTarget = /* residual target for diag_cg2d */
(PID.TID 0000.0001)                 1.000000000000000E-07
(PID.TID 0000.0001)     ;
(PID.TID 0000.0001)  diagCG_pcOffDFac = /* preconditioner off-diagonal factor */
(PID.TID 0000.0001)                 9.611687812379854E-01
(PID.TID 0000.0001)     ;
(PID.TID 0000.0001) -----------------------------------------------------
(PID.TID 0000.0001)  DIAGNOSTICS_READPARMS: active diagnostics summary:
(PID.TID 0000.0001) -----------------------------------------------------
(PID.TID 0000.0001) Creating Output Stream: surfDiag
(PID.TID 0000.0001) Output Frequency:       3600.000000 ; Phase:           0.000000
(PID.TID 0000.0001)  Averaging Freq.:       3600.000000 , Phase:           0.000000 , Cycle:   1
(PID.TID 0000.0001)  missing value: -9.990000000000E+02
(PID.TID 0000.0001)  Levels:    will be set later
(PID.TID 0000.0001)  Fields:    oceQnet  oceQsw   oceFWflx oceSflux oceTAUX  oceTAUY  THETA    SALT     UVEL     VVEL
(PID.TID 0000.0001) Creating Output Stream: iceDiag
(PID.TID 0000.0001) Output Frequency:       3600.000000 ; Phase:           0.000000
(PID.TID 0000.0001)  Averaging Freq.:       3600.000000 , Phase:           0.000000 , Cycle:   1
(PID.TID 0000.0001)  missing value: -9.990000000000E+02
(PID.TID 0000.0001)  Levels:    will be set later
(PID.TID 0000.0001)  Fields:    SIarea   SIheff   SIhsnow  sIceLoad SIuice   SIvice   SItaux   SItauy
(PID.TID 0000.0001) Creating Output Stream: iceNcat
(PID.TID 0000.0001) Output Frequency:       3600.000000 ; Phase:           0.000000
(PID.TID 0000.0001)  Averaging Freq.:       3600.000000 , Phase:           0.000000 , Cycle:   1
(PID.TID 0000.0001)  missing value: -9.990000000000E+02 ; F-Flags="D       "
(PID.TID 0000.0001)  Levels:    will be set later
(PID.TID 0000.0001)  Fields:    SIareaN  SIheffN  SIhsnowN SIqSnow  SImeltPd SItIces  SIiceAge SI_dArea SI_dHeff SI_dHsnw
(PID.TID 0000.0001)  Fields:    SI_dQSnw
(PID.TID 0000.0001) Creating Output Stream: iceEnerg
(PID.TID 0000.0001) Output Frequency:      -3600.000000 ; Phase:           0.000000
(PID.TID 0000.0001)  Averaging Freq.:          0.000000 , Phase:           0.000000 , Cycle:   1
(PID.TID 0000.0001)  missing value: -9.990000000000E+02
(PID.TID 0000.0001)  Levels:    will be set later
(PID.TID 0000.0001)  Fields:    SIqIce   SI_dQIce
(PID.TID 0000.0001) Creating Output Stream: snowEnerg
(PID.TID 0000.0001) Output Frequency:      -3600.000000 ; Phase:           0.000000
(PID.TID 0000.0001)  Averaging Freq.:          0.000000 , Phase:           0.000000 , Cycle:   1
(PID.TID 0000.0001)  missing value: -9.990000000000E+02
(PID.TID 0000.0001)  Levels:    will be set later
(PID.TID 0000.0001)  Fields:    SIqSnow  SI_dQSnw
(PID.TID 0000.0001) -----------------------------------------------------
(PID.TID 0000.0001)  DIAGNOSTICS_READPARMS: statistics diags. summary:
(PID.TID 0000.0001) Creating Stats. Output Stream: iceStDiag
(PID.TID 0000.0001) Output Frequency:       3600.000000 ; Phase:           0.000000
(PID.TID 0000.0001)  Regions:   0
(PID.TID 0000.0001)  Fields:    SIarea   SIheff   SIhsnow  sIceLoad SIuice   SIvice   SItaux   SItauy   SIareaN  SIheffN
(PID.TID 0000.0001)  Fields:    SIhsnowN SIqSnow  SIqIce   SImeltPd SItIces  SIiceAge SI_dArea SI_dHeff SI_dHsnw SI_dQSnw
(PID.TID 0000.0001)  Fields:    SI_dQIce
(PID.TID 0000.0001) -----------------------------------------------------
(PID.TID 0000.0001) 
(PID.TID 0000.0001) SET_PARMS: done
(PID.TID 0000.0001) Enter INI_VERTICAL_GRID: setInterFDr=    T ; setCenterDr=    F
(PID.TID 0000.0001) tile:   4 ; Read from file tile001.mitgrid
(PID.TID 0000.0001)   => xC yC dxF dyF rA xG yG dxV dyU rAz dxC dyC rAw rAs dxG dyG
(PID.TID 0000.0001) %MON XC_max                       =   1.7997758946678E+02
(PID.TID 0000.0001) %MON XC_min                       =  -1.7998895680928E+02
(PID.TID 0000.0001) %MON XC_mean                      =  -6.8997670631350E+00
(PID.TID 0000.0001) %MON XC_sd                        =   1.0548127462941E+02
(PID.TID 0000.0001) %MON XG_max                       =   1.8000000000000E+02
(PID.TID 0000.0001) %MON XG_min                       =  -1.7999919444240E+02
(PID.TID 0000.0001) %MON XG_mean                      =  -6.3521159278861E+00
(PID.TID 0000.0001) %MON XG_sd                        =   1.0549598176576E+02
(PID.TID 0000.0001) %MON DXC_max                      =   1.1117680031365E+05
(PID.TID 0000.0001) %MON DXC_min                      =   1.3362789164732E+04
(PID.TID 0000.0001) %MON DXC_mean                     =   7.1345115143606E+04
(PID.TID 0000.0001) %MON DXC_sd                       =   2.6107013089865E+04
(PID.TID 0000.0001) %MON DXF_max                      =   1.1117680031365E+05
(PID.TID 0000.0001) %MON DXF_min                      =   1.3491575949394E+04
(PID.TID 0000.0001) %MON DXF_mean                     =   7.1334806791260E+04
(PID.TID 0000.0001) %MON DXF_sd                       =   2.6121349328995E+04
(PID.TID 0000.0001) %MON DXG_max                      =   1.1117747335204E+05
(PID.TID 0000.0001) %MON DXG_min                      =   1.0930409249570E+04
(PID.TID 0000.0001) %MON DXG_mean                     =   7.1313583950284E+04
(PID.TID 0000.0001) %MON DXG_sd                       =   2.6131714747840E+04
(PID.TID 0000.0001) %MON DXV_max                      =   1.1117747335204E+05
(PID.TID 0000.0001) %MON DXV_min                      =   9.4742518926426E+03
(PID.TID 0000.0001) %MON DXV_mean                     =   7.1323777998314E+04
(PID.TID 0000.0001) %MON DXV_sd                       =   2.6117603792432E+04
(PID.TID 0000.0001) %MON YC_max                       =   8.9739397429324E+01
(PID.TID 0000.0001) %MON YC_min                       =  -8.1637173529390E+01
(PID.TID 0000.0001) %MON YC_mean                      =  -5.9338515025079E-01
(PID.TID 0000.0001) %MON YC_sd                        =   5.1058908630085E+01
(PID.TID 0000.0001) %MON YG_max                       =   9.0000000000000E+01
(PID.TID 0000.0001) %MON YG_min                       =  -8.1805478609906E+01
(PID.TID 0000.0001) %MON YG_mean                      =  -5.7357831765458E-01
(PID.TID 0000.0001) %MON YG_sd                        =   5.1060174609345E+01
(PID.TID 0000.0001) %MON DYC_max                      =   1.1117680031365E+05
(PID.TID 0000.0001) %MON DYC_min                      =   1.3362789164732E+04
(PID.TID 0000.0001) %MON DYC_mean                     =   7.0982792089666E+04
(PID.TID 0000.0001) %MON DYC_sd                       =   2.6607387075348E+04
(PID.TID 0000.0001) %MON DYF_max                      =   1.1117680031365E+05
(PID.TID 0000.0001) %MON DYF_min                      =   1.3491575949394E+04
(PID.TID 0000.0001) %MON DYF_mean                     =   7.1000127494934E+04
(PID.TID 0000.0001) %MON DYF_sd                       =   2.6603606017547E+04
(PID.TID 0000.0001) %MON DYG_max                      =   1.1117747335204E+05
(PID.TID 0000.0001) %MON DYG_min                      =   1.0930409249570E+04
(PID.TID 0000.0001) %MON DYG_mean                     =   7.1022116512585E+04
(PID.TID 0000.0001) %MON DYG_sd                       =   2.6571715830406E+04
(PID.TID 0000.0001) %MON DYU_max                      =   1.1117747335204E+05
(PID.TID 0000.0001) %MON DYU_min                      =   9.4742518926426E+03
(PID.TID 0000.0001) %MON DYU_mean                     =   7.1004694583927E+04
(PID.TID 0000.0001) %MON DYU_sd                       =   2.6575655787476E+04
(PID.TID 0000.0001) %MON RA_max                       =   1.1896090857160E+10
(PID.TID 0000.0001) %MON RA_min                       =   2.1263387742345E+08
(PID.TID 0000.0001) %MON RA_mean                      =   5.6344293572480E+09
(PID.TID 0000.0001) %MON RA_sd                        =   3.5929461176606E+09
(PID.TID 0000.0001) %MON RAW_max                      =   1.1896090856781E+10
(PID.TID 0000.0001) %MON RAW_min                      =   1.7369571508711E+08
(PID.TID 0000.0001) %MON RAW_mean                     =   5.6355850434318E+09
(PID.TID 0000.0001) %MON RAW_sd                       =   3.5915487677190E+09
(PID.TID 0000.0001) %MON RAS_max                      =   1.1896090856781E+10
(PID.TID 0000.0001) %MON RAS_min                      =   1.7369571508711E+08
(PID.TID 0000.0001) %MON RAS_mean                     =   5.6320332286162E+09
(PID.TID 0000.0001) %MON RAS_sd                       =   3.5937184228135E+09
(PID.TID 0000.0001) %MON RAZ_max                      =   1.1891903479271E+10
(PID.TID 0000.0001) %MON RAZ_min                      =   1.0413402423292E+08
(PID.TID 0000.0001) %MON RAZ_mean                     =   5.6331824674695E+09
(PID.TID 0000.0001) %MON RAZ_sd                       =   3.5923307220197E+09
(PID.TID 0000.0001) %MON AngleCS_max                  =   1.0000000000000E+00
(PID.TID 0000.0001) %MON AngleCS_min                  =  -9.9996641938864E-01
(PID.TID 0000.0001) %MON AngleCS_mean                 =   4.0572930529500E-01
(PID.TID 0000.0001) %MON AngleCS_sd                   =   5.3874397836718E-01
(PID.TID 0000.0001) %MON AngleSN_max                  =   9.9996641938864E-01
(PID.TID 0000.0001) %MON AngleSN_min                  =  -1.0000000000000E+00
(PID.TID 0000.0001) %MON AngleSN_mean                 =  -4.9986154624599E-01
(PID.TID 0000.0001) %MON AngleSN_sd                   =   5.4339404779819E-01
(PID.TID 0000.0001)  MDS_READ_FIELD: opening global file: bathy.bin
(PID.TID 0000.0001) // =======================================================
(PID.TID 0000.0001) // Field Model R_low (ini_masks_etc)
(PID.TID 0000.0001) // CMIN =         -4.798482910156250E+03
(PID.TID 0000.0001) // CMAX =         -1.998999977111816E+01
(PID.TID 0000.0001) // CINT =          1.769812189031530E+02
(PID.TID 0000.0001) // SYMBOLS (CMIN->CMAX): -abcdefghijklmnopqrstuvwxyz+
(PID.TID 0000.0001) //                  0.0: .
(PID.TID 0000.0001) // RANGE I (Lo:Hi:Step):(    -3:    34:     1)
(PID.TID 0000.0001) // RANGE J (Lo:Hi:Step):(    34:    -3:    -1)
(PID.TID 0000.0001) // RANGE K (Lo:Hi:Step):(   1:   1:   1)
(PID.TID 0000.0001) // =======================================================
(PID.TID 0000.0001) K =   1
(PID.TID 0000.0001) //                I=6       I=16      I=26
(PID.TID 0000.0001) // |--J--|321012345|789012345|789012345|78901234
(PID.TID 0000.0001) //     34 ddccccbbbbbaaaaa--------------abdehjjh
(PID.TID 0000.0001) //     33 eddccccbbbbaaaaaaaaa---------abdefikmk
(PID.TID 0000.0001) //     32 eeddccccbbbbaaaaaaaaaaaaaa--abcfiijlnm
(PID.TID 0000.0001) //     31 eedddcccbbbbbaaaaabbaaaaaaa-bdgknm....
(PID.TID 0000.0001) //     30 feedddcccccbbbbbbbbbbbaaaaabfknpr.....
(PID.TID 0000.0001) //     29 feeddddddcccbbbcccbbbbbbbceilor.......
(PID.TID 0000.0001) //     28 gfeeeeeeddcccccdcccccbbceilnqu........
(PID.TID 0000.0001) //     27 hggfffffeeeeeddddddcccdfimpyy.........
(PID.TID 0000.0001) //     26 jihgggggffffeeeeeeddddfimsyy..........
(PID.TID 0000.0001) //     25 lkihhhgggggfeeeffeeefginuz............
(PID.TID 0000.0001) //     24 nmkjiihhghhgfffgggghjl+...............
(PID.TID 0000.0001) //     23 qonmkkjiiiiihhhihikmqz................
(PID.TID 0000.0001) //     22 tsqpnmlllmllkkkjknsxz.................
(PID.TID 0000.0001) //     21 wwvusppprrrponmlny+z..................
(PID.TID 0000.0001) //     20 yyyxxwvwwwwvusrwx.....................
(PID.TID 0000.0001) //     19 yyyyyyxxxxxxxxyyx.....................
(PID.TID 0000.0001) //     18 yyyyyyxxxwxxyyyyy.....................
(PID.TID 0000.0001) //     17 yyyyyxxxwwxxyyy.......................
(PID.TID 0000.0001) //     16 yyyxxxwwwwxyyyy.......................
(PID.TID 0000.0001) //     15 yyxxwwvvwxyyz.........................
(PID.TID 0000.0001) //     14 yxxwwvvvwyz...........................
(PID.TID 0000.0001) //     13 xxwwvuvwy.............................
(PID.TID 0000.0001) //     12 xwwvuuvx..............................
(PID.TID 0000.0001) //     11 yxvuuuw...............................
(PID.TID 0000.0001) //     10 ......................................
(PID.TID 0000.0001) //      9 ......................................
(PID.TID 0000.0001) //      8 ......................................
(PID.TID 0000.0001) //      7 ......................................
(PID.TID 0000.0001) //      6 ......................................
(PID.TID 0000.0001) //      5 ......................................
(PID.TID 0000.0001) //      4 ......................................
(PID.TID 0000.0001) //      3 ......................................
(PID.TID 0000.0001) //      2 ......................................
(PID.TID 0000.0001) //      1 ......................................
(PID.TID 0000.0001) //      0 ......................................
(PID.TID 0000.0001) //     -1 ......................................
(PID.TID 0000.0001) //     -2 ......................................
(PID.TID 0000.0001) //     -3 ......................................
(PID.TID 0000.0001) // =======================================================
(PID.TID 0000.0001) // END OF FIELD                                          =
(PID.TID 0000.0001) // =======================================================
(PID.TID 0000.0001) 
(PID.TID 0000.0001) // =======================================================
(PID.TID 0000.0001) // Field Model Ro_surf (ini_masks_etc)
(PID.TID 0000.0001) // CMIN =          1.000000000000000E+32
(PID.TID 0000.0001) // CMAX =         -1.000000000000000E+32
(PID.TID 0000.0001) // CINT =          0.000000000000000E+00
(PID.TID 0000.0001) // SYMBOLS (CMIN->CMAX): -abcdefghijklmnopqrstuvwxyz+
(PID.TID 0000.0001) //                  0.0: .
(PID.TID 0000.0001) // RANGE I (Lo:Hi:Step):(    -3:    34:     1)
(PID.TID 0000.0001) // RANGE J (Lo:Hi:Step):(    34:    -3:    -1)
(PID.TID 0000.0001) // RANGE K (Lo:Hi:Step):(   1:   1:   1)
(PID.TID 0000.0001) // =======================================================
(PID.TID 0000.0001) // =======================================================
(PID.TID 0000.0001) // END OF FIELD                                          =
(PID.TID 0000.0001) // =======================================================
(PID.TID 0000.0001) 
(PID.TID 0000.0001) // =======================================================
(PID.TID 0000.0001) // Field hFacC at iteration          0
(PID.TID 0000.0001) // CMIN =          1.000000000000000E+00
(PID.TID 0000.0001) // CMAX =          1.000000000000000E+00
(PID.TID 0000.0001) // CINT =          0.000000000000000E+00
(PID.TID 0000.0001) // SYMBOLS (CMIN->CMAX): -abcdefghijklmnopqrstuvwxyz+
(PID.TID 0000.0001) //                  0.0: .
(PID.TID 0000.0001) // RANGE I (Lo:Hi:Step):(    -3:    34:     1)
(PID.TID 0000.0001) // RANGE J (Lo:Hi:Step):(    34:    -3:    -1)
(PID.TID 0000.0001) // RANGE K (Lo:Hi:Step):(   1:   1:   1)
(PID.TID 0000.0001) // =======================================================
(PID.TID 0000.0001) // =======================================================
(PID.TID 0000.0001) // END OF FIELD                                          =
(PID.TID 0000.0001) // =======================================================
(PID.TID 0000.0001) 
(PID.TID 0000.0001) // =======================================================
(PID.TID 0000.0001) // Field hFacW at iteration          0
(PID.TID 0000.0001) // CMIN =          1.000000000000000E+00
(PID.TID 0000.0001) // CMAX =          1.000000000000000E+00
(PID.TID 0000.0001) // CINT =          0.000000000000000E+00
(PID.TID 0000.0001) // SYMBOLS (CMIN->CMAX): -abcdefghijklmnopqrstuvwxyz+
(PID.TID 0000.0001) //                  0.0: .
(PID.TID 0000.0001) // RANGE I (Lo:Hi:Step):(    -3:    34:     1)
(PID.TID 0000.0001) // RANGE J (Lo:Hi:Step):(    34:    -3:    -1)
(PID.TID 0000.0001) // RANGE K (Lo:Hi:Step):(   1:   1:   1)
(PID.TID 0000.0001) // =======================================================
(PID.TID 0000.0001) // =======================================================
(PID.TID 0000.0001) // END OF FIELD                                          =
(PID.TID 0000.0001) // =======================================================
(PID.TID 0000.0001) 
(PID.TID 0000.0001) // =======================================================
(PID.TID 0000.0001) // Field hFacS at iteration          0
(PID.TID 0000.0001) // CMIN =          1.000000000000000E+00
(PID.TID 0000.0001) // CMAX =          1.000000000000000E+00
(PID.TID 0000.0001) // CINT =          0.000000000000000E+00
(PID.TID 0000.0001) // SYMBOLS (CMIN->CMAX): -abcdefghijklmnopqrstuvwxyz+
(PID.TID 0000.0001) //                  0.0: .
(PID.TID 0000.0001) // RANGE I (Lo:Hi:Step):(    -3:    34:     1)
(PID.TID 0000.0001) // RANGE J (Lo:Hi:Step):(    34:    -3:    -1)
(PID.TID 0000.0001) // RANGE K (Lo:Hi:Step):(   1:   1:   1)
(PID.TID 0000.0001) // =======================================================
(PID.TID 0000.0001) // =======================================================
(PID.TID 0000.0001) // END OF FIELD                                          =
(PID.TID 0000.0001) // =======================================================
(PID.TID 0000.0001) 
(PID.TID 0000.0001) GAD_INIT_FIXED: GAD_OlMinSize=  2  0  2
(PID.TID 0000.0001) 
(PID.TID 0000.0001) // ===================================
(PID.TID 0000.0001) // GAD parameters :
(PID.TID 0000.0001) // ===================================
(PID.TID 0000.0001) tempAdvScheme =   /* Temp. Horiz.Advection scheme selector */
(PID.TID 0000.0001)                      77
(PID.TID 0000.0001)     ;
(PID.TID 0000.0001) tempVertAdvScheme =   /* Temp. Vert. Advection scheme selector */
(PID.TID 0000.0001)                      77
(PID.TID 0000.0001)     ;
(PID.TID 0000.0001) tempMultiDimAdvec =   /* use Muti-Dim Advec method for Temp */
(PID.TID 0000.0001)                   T
(PID.TID 0000.0001)     ;
(PID.TID 0000.0001) tempSOM_Advection = /* use 2nd Order Moment Advection for Temp */
(PID.TID 0000.0001)                   F
(PID.TID 0000.0001)     ;
(PID.TID 0000.0001) AdamsBashforthGt = /* apply Adams-Bashforth extrapolation on Gt */
(PID.TID 0000.0001)                   F
(PID.TID 0000.0001)     ;
(PID.TID 0000.0001) AdamsBashforth_T = /* apply Adams-Bashforth extrapolation on Temp */
(PID.TID 0000.0001)                   F
(PID.TID 0000.0001)     ;
(PID.TID 0000.0001) saltAdvScheme =   /* Salt. Horiz.advection scheme selector */
(PID.TID 0000.0001)                      77
(PID.TID 0000.0001)     ;
(PID.TID 0000.0001) saltVertAdvScheme =   /* Salt. Vert. Advection scheme selector */
(PID.TID 0000.0001)                      77
(PID.TID 0000.0001)     ;
(PID.TID 0000.0001) saltMultiDimAdvec =   /* use Muti-Dim Advec method for Salt */
(PID.TID 0000.0001)                   T
(PID.TID 0000.0001)     ;
(PID.TID 0000.0001) saltSOM_Advection = /* use 2nd Order Moment Advection for Salt */
(PID.TID 0000.0001)                   F
(PID.TID 0000.0001)     ;
(PID.TID 0000.0001) AdamsBashforthGs = /* apply Adams-Bashforth extrapolation on Gs */
(PID.TID 0000.0001)                   F
(PID.TID 0000.0001)     ;
(PID.TID 0000.0001) AdamsBashforth_S = /* apply Adams-Bashforth extrapolation on Salt */
(PID.TID 0000.0001)                   F
(PID.TID 0000.0001)     ;
(PID.TID 0000.0001) // ===================================
(PID.TID 0000.0001)  MDS_READ_FIELD: opening global file: viscA4Dfld.bin
(PID.TID 0000.0001)  MDS_READ_FIELD: opening global file: viscA4Zfld.bin
(PID.TID 0000.0001)  SEAICE_INIT_FIXED:  5 sea ice thickness categories
(PID.TID 0000.0001)  SEAICE_INIT_FIXED: Hlimit =   0.00  0.64  1.39  2.47  4.57 999.9
(PID.TID 0000.0001) // =======================================================
(PID.TID 0000.0001) // Seaice configuration (SEAICE_PARM01) >>> START <<<
(PID.TID 0000.0001) // =======================================================
(PID.TID 0000.0001) 
(PID.TID 0000.0001)    Seaice time stepping configuration   > START <
(PID.TID 0000.0001)    ----------------------------------------------
(PID.TID 0000.0001) SEAICE_deltaTtherm= /* thermodynamic timestep */
(PID.TID 0000.0001)                 9.000000000000000E+02
(PID.TID 0000.0001)     ;
(PID.TID 0000.0001) SEAICE_deltaTdyn  = /* dynamic timestep */
(PID.TID 0000.0001)                 9.000000000000000E+02
(PID.TID 0000.0001)     ;
(PID.TID 0000.0001) SEAICE_deltaTevp  = /* EVP timestep */
(PID.TID 0000.0001)                 1.234567000000000E+05
(PID.TID 0000.0001)     ;
(PID.TID 0000.0001) SEAICEuseBDF2  = /* use backw. differencing for mom. eq. */
(PID.TID 0000.0001)                   F
(PID.TID 0000.0001)     ;
(PID.TID 0000.0001) SEAICEupdateOceanStress= /* update Ocean surf. stress */
(PID.TID 0000.0001)                   T
(PID.TID 0000.0001)     ;
(PID.TID 0000.0001) SEAICErestoreUnderIce  = /* restore T and S under ice */
(PID.TID 0000.0001)                   F
(PID.TID 0000.0001)     ;
(PID.TID 0000.0001) 
(PID.TID 0000.0001)    Seaice dynamics configuration   > START <
(PID.TID 0000.0001)    ------------------------------------------
(PID.TID 0000.0001) SEAICEuseDYNAMICS = /* use dynamics */
(PID.TID 0000.0001)                   T
(PID.TID 0000.0001)     ;
(PID.TID 0000.0001) model grid type   = /* type of sea ice model grid */
(PID.TID 0000.0001)               'C-GRID'
(PID.TID 0000.0001)     ;
(PID.TID 0000.0001) SEAICEuseStrImpCpl = /* use strongly implicit coupling */
(PID.TID 0000.0001)                   F
(PID.TID 0000.0001)     ;
(PID.TID 0000.0001) SEAICEusePicardAsPrecon = /* Picard as preconditioner */
(PID.TID 0000.0001)                   F
(PID.TID 0000.0001)     ;
(PID.TID 0000.0001) SEAICEuseLSR      = /* use default Picard-LSR solver */
(PID.TID 0000.0001)                   T
(PID.TID 0000.0001)     ;
(PID.TID 0000.0001) SEAICEuseKrylov   = /* use Picard-Krylov solver */
(PID.TID 0000.0001)                   F
(PID.TID 0000.0001)     ;
(PID.TID 0000.0001) SEAICEuseEVP      = /* use EVP solver rather than LSR */
(PID.TID 0000.0001)                   F
(PID.TID 0000.0001)     ;
(PID.TID 0000.0001) SEAICEuseJFNK     = /* use JFNK solver */
(PID.TID 0000.0001)                   F
(PID.TID 0000.0001)     ;
(PID.TID 0000.0001) OCEAN_drag        = /* air-ocean drag coefficient */
(PID.TID 0000.0001)                 8.154100000000000E-04
(PID.TID 0000.0001)     ;
(PID.TID 0000.0001) SEAICE_drag       = /* air-ice drag coefficient */
(PID.TID 0000.0001)                 2.000000000000000E-03
(PID.TID 0000.0001)     ;
(PID.TID 0000.0001) SEAICE_drag_south      = /* Southern Ocean SEAICE_drag */
(PID.TID 0000.0001)                 2.000000000000000E-03
(PID.TID 0000.0001)     ;
(PID.TID 0000.0001) SEAICE_waterDrag  = /* water-ice drag */
(PID.TID 0000.0001)                 5.169855072463768E-03
(PID.TID 0000.0001)     ;
(PID.TID 0000.0001) SEAICE_waterDrag_south = /* Southern Ocean waterDrag */
(PID.TID 0000.0001)                 5.169855072463768E-03
(PID.TID 0000.0001)     ;
(PID.TID 0000.0001) SEAICEuseTilt     = /* include surface tilt in dyna. */
(PID.TID 0000.0001)                   T
(PID.TID 0000.0001)     ;
(PID.TID 0000.0001) SEAICEuseTEM      = /* use truncated ellipse rheology */
(PID.TID 0000.0001)                   F
(PID.TID 0000.0001)     ;
(PID.TID 0000.0001) SEAICE_strength   = /* sea-ice strength Pstar */
(PID.TID 0000.0001)                 2.678000000000000E+04
(PID.TID 0000.0001)     ;
(PID.TID 0000.0001) SEAICE_cStar      = /* sea-ice strength parameter cStar */
(PID.TID 0000.0001)                 2.000000000000000E+01
(PID.TID 0000.0001)     ;
(PID.TID 0000.0001) SEAICEpressReplFac= /* press. replacement method factor */
(PID.TID 0000.0001)                 1.000000000000000E+00
(PID.TID 0000.0001)     ;
(PID.TID 0000.0001) SEAICE_tensilFac  = /* sea-ice tensile strength factor */
(PID.TID 0000.0001)                 0.000000000000000E+00
(PID.TID 0000.0001)     ;
(PID.TID 0000.0001) SEAICE_tensilDepth= /* crit. depth for tensile strength */
(PID.TID 0000.0001)                 0.000000000000000E+00
(PID.TID 0000.0001)     ;
(PID.TID 0000.0001) SEAICEpresH0   = /* sea-ice strength Heff threshold */
(PID.TID 0000.0001)                 1.000000000000000E+00
(PID.TID 0000.0001)     ;
(PID.TID 0000.0001) SEAICEpresPow0 = /* exponent for Heff<SEAICEpresH0 */
(PID.TID 0000.0001)                       1
(PID.TID 0000.0001)     ;
(PID.TID 0000.0001) SEAICEpresPow1 = /* exponent for Heff>SEAICEpresH0 */
(PID.TID 0000.0001)                       1
(PID.TID 0000.0001)     ;
(PID.TID 0000.0001) SEAICEetaZmethod = /* method computing eta at Z-point */
(PID.TID 0000.0001)                       0
(PID.TID 0000.0001)     ;
(PID.TID 0000.0001) SEAICE_zetaMin    = /* lower bound for viscosity */
(PID.TID 0000.0001)                 0.000000000000000E+00
(PID.TID 0000.0001)     ;
(PID.TID 0000.0001) SEAICE_eccen    = /* elliptical yield curve eccent */
(PID.TID 0000.0001)                 2.000000000000000E+00
(PID.TID 0000.0001)     ;
(PID.TID 0000.0001) SEAICEstressFactor    = /* wind stress scaling factor */
(PID.TID 0000.0001)                 1.000000000000000E+00
(PID.TID 0000.0001)     ;
(PID.TID 0000.0001) SEAICE_airTurnAngle    = /* air-ice turning angle */
(PID.TID 0000.0001)                 0.000000000000000E+00
(PID.TID 0000.0001)     ;
(PID.TID 0000.0001) SEAICE_waterTurnAngle  = /* ice-water turning angle */
(PID.TID 0000.0001)                 0.000000000000000E+00
(PID.TID 0000.0001)     ;
(PID.TID 0000.0001) SEAICEuseMetricTerms = /* use metric terms */
(PID.TID 0000.0001)                   T
(PID.TID 0000.0001)     ;
(PID.TID 0000.0001) SEAICE_no_slip    = /* no slip boundary conditions */
(PID.TID 0000.0001)                   F
(PID.TID 0000.0001)     ;
(PID.TID 0000.0001) SEAICE_2ndOrderBC = /* 2nd order no slip boundary conditions */
(PID.TID 0000.0001)                   F
(PID.TID 0000.0001)     ;
(PID.TID 0000.0001) SEAICE_clipVeloctities = /* impose max. vels. */
(PID.TID 0000.0001)                   F
(PID.TID 0000.0001)     ;
(PID.TID 0000.0001) useHB87stressCoupling  = /* altern. ice-ocean stress */
(PID.TID 0000.0001)                   F
(PID.TID 0000.0001)     ;
(PID.TID 0000.0001) SEAICEscaleSurfStress  = /* scale atm. and ocean-surface stress with AREA */
(PID.TID 0000.0001)                   F
(PID.TID 0000.0001)     ;
(PID.TID 0000.0001) SEAICE_maskRHS    = /* mask RHS of solver */
(PID.TID 0000.0001)                   F
(PID.TID 0000.0001)     ;
(PID.TID 0000.0001) SEAICEaddSnowMass = /* add snow mass to seaiceMassC/U/V */
(PID.TID 0000.0001)                   F
(PID.TID 0000.0001)     ;
(PID.TID 0000.0001) LSR_mixIniGuess = /* mix free-drift sol. into LSR initial Guess */
(PID.TID 0000.0001)                      -1
(PID.TID 0000.0001)     ;
(PID.TID 0000.0001) SEAICE_LSRrelaxU  = /* LSR solver: relaxation parameter */
(PID.TID 0000.0001)                 9.500000000000000E-01
(PID.TID 0000.0001)     ;
(PID.TID 0000.0001) SEAICE_LSRrelaxV  = /* LSR solver: relaxation parameter */
(PID.TID 0000.0001)                 9.500000000000000E-01
(PID.TID 0000.0001)     ;
(PID.TID 0000.0001) LSR_ERROR         = /* sets accuracy of LSR solver */
(PID.TID 0000.0001)                 1.000000000000000E-04
(PID.TID 0000.0001)     ;
(PID.TID 0000.0001) SOLV_NCHECK       = /* test interval for LSR solver */
(PID.TID 0000.0001)                       2
(PID.TID 0000.0001)     ;
(PID.TID 0000.0001) SEAICEuseMultiTileSolver = /* use full domain tri-diag solver */
(PID.TID 0000.0001)                   F
(PID.TID 0000.0001)     ;
(PID.TID 0000.0001) SEAICE_OLx = /* overlap for LSR/preconditioner */
(PID.TID 0000.0001)                       0
(PID.TID 0000.0001)     ;
(PID.TID 0000.0001) SEAICE_OLy = /* overlap for LSR/preconditioner */
(PID.TID 0000.0001)                       0
(PID.TID 0000.0001)     ;
(PID.TID 0000.0001) SEAICEnonLinIterMax = /* max. number of nonlinear solver steps */
(PID.TID 0000.0001)                       2
(PID.TID 0000.0001)     ;
(PID.TID 0000.0001) SEAICElinearIterMax = /* max. number of linear solver steps */
(PID.TID 0000.0001)                     500
(PID.TID 0000.0001)     ;
(PID.TID 0000.0001) SEAICEnonLinTol     = /* non-linear solver tolerance */
(PID.TID 0000.0001)                 0.000000000000000E+00
(PID.TID 0000.0001)     ;
(PID.TID 0000.0001) 
(PID.TID 0000.0001)    Seaice advection diffusion config,   > START <
(PID.TID 0000.0001)    -----------------------------------------------
(PID.TID 0000.0001) SEAICEmomAdvection = /* advect sea ice momentum */
(PID.TID 0000.0001)                   F
(PID.TID 0000.0001)     ;
(PID.TID 0000.0001) SEAICEadvHeff = /* advect effective ice thickness */
(PID.TID 0000.0001)                   T
(PID.TID 0000.0001)     ;
(PID.TID 0000.0001) SEAICEadvArea = /* advect fractional ice area */
(PID.TID 0000.0001)                   T
(PID.TID 0000.0001)     ;
(PID.TID 0000.0001) SEAICEadvSnow = /* advect snow layer together with ice */
(PID.TID 0000.0001)                   T
(PID.TID 0000.0001)     ;
(PID.TID 0000.0001) SEAICEadvScheme   = /* advection scheme for ice */
(PID.TID 0000.0001)                      77
(PID.TID 0000.0001)     ;
(PID.TID 0000.0001) SEAICEadvSchArea   = /* advection scheme for area */
(PID.TID 0000.0001)                      77
(PID.TID 0000.0001)     ;
(PID.TID 0000.0001) SEAICEadvSchHeff   = /* advection scheme for thickness */
(PID.TID 0000.0001)                      77
(PID.TID 0000.0001)     ;
(PID.TID 0000.0001) SEAICEadvSchSnow   = /* advection scheme for snow */
(PID.TID 0000.0001)                      77
(PID.TID 0000.0001)     ;
(PID.TID 0000.0001) SEAICEdiffKhArea   = /* diffusivity (m^2/s) for area */
(PID.TID 0000.0001)                 0.000000000000000E+00
(PID.TID 0000.0001)     ;
(PID.TID 0000.0001) SEAICEdiffKhHeff   = /* diffusivity (m^2/s) for heff */
(PID.TID 0000.0001)                 0.000000000000000E+00
(PID.TID 0000.0001)     ;
(PID.TID 0000.0001) SEAICEdiffKhSnow   = /* diffusivity (m^2/s) for snow */
(PID.TID 0000.0001)                 0.000000000000000E+00
(PID.TID 0000.0001)     ;
(PID.TID 0000.0001) DIFF1             = /* parameter used in advect.F [m/s] */
(PID.TID 0000.0001)                 0.000000000000000E+00
(PID.TID 0000.0001)     ;
(PID.TID 0000.0001) 
(PID.TID 0000.0001)    Seaice thermodynamics configuration   > START <
(PID.TID 0000.0001)    -----------------------------------------------
(PID.TID 0000.0001) SEAICE_rhoIce     = /* density of sea ice (kg/m3) */
(PID.TID 0000.0001)                 9.100000000000000E+02
(PID.TID 0000.0001)     ;
(PID.TID 0000.0001) SEAICE_rhoSnow    = /* density of snow (kg/m3) */
(PID.TID 0000.0001)                 3.300000000000000E+02
(PID.TID 0000.0001)     ;
(PID.TID 0000.0001) SEAICE_rhoAir     = /* density of air (kg/m3) */
(PID.TID 0000.0001)                 1.300000000000000E+00
(PID.TID 0000.0001)     ;
(PID.TID 0000.0001) usePW79thermodynamics  = /* default 0-layer TD */
(PID.TID 0000.0001)                   F
(PID.TID 0000.0001)     ;
(PID.TID 0000.0001)    pkg/seaice thermodynamics is OFF
(PID.TID 0000.0001) 
(PID.TID 0000.0001)    Seaice initialization and IO config.,   > START <
(PID.TID 0000.0001)    -------------------------------------------------
(PID.TID 0000.0001) SEAICE_initialHEFF= /* initial sea-ice thickness */
(PID.TID 0000.0001)                 0.000000000000000E+00
(PID.TID 0000.0001)     ;
(PID.TID 0000.0001) AreaFile = /* Initial ice concentration File */
(PID.TID 0000.0001)               'const100.bin'
(PID.TID 0000.0001)     ;
(PID.TID 0000.0001) HeffFile = /* Initial effective ice thickness File */
(PID.TID 0000.0001)               'const+20.bin'
(PID.TID 0000.0001)     ;
(PID.TID 0000.0001) HsnowFile = /* Initial snow thickness File */
(PID.TID 0000.0001)               'const_00.bin'
(PID.TID 0000.0001)     ;
(PID.TID 0000.0001) uIceFile = /* Initial U-ice velocity File */
(PID.TID 0000.0001)               ''
(PID.TID 0000.0001)     ;
(PID.TID 0000.0001) vIceFile = /* Initial V-ice velocity File */
(PID.TID 0000.0001)               ''
(PID.TID 0000.0001)     ;
(PID.TID 0000.0001) SEAICEwriteState  = /* write sea ice state to file */
(PID.TID 0000.0001)                   T
(PID.TID 0000.0001)     ;
(PID.TID 0000.0001) SEAICE_monFreq  = /* monitor frequency */
(PID.TID 0000.0001)                 7.200000000000000E+03
(PID.TID 0000.0001)     ;
(PID.TID 0000.0001) SEAICE_dumpFreq   = /* dump frequency */
(PID.TID 0000.0001)                 0.000000000000000E+00
(PID.TID 0000.0001)     ;
(PID.TID 0000.0001) SEAICE_taveFreq   = /* time-averaging frequency */
(PID.TID 0000.0001)                 0.000000000000000E+00
(PID.TID 0000.0001)     ;
(PID.TID 0000.0001) SEAICE_mon_stdio  = /* write monitor to std-outp */
(PID.TID 0000.0001)                   T
(PID.TID 0000.0001)     ;
(PID.TID 0000.0001) SEAICE_dump_mdsio = /* write snap-shot   using MDSIO */
(PID.TID 0000.0001)                   T
(PID.TID 0000.0001)     ;
(PID.TID 0000.0001) SEAICE_tave_mdsio = /* write TimeAverage using MDSIO */
(PID.TID 0000.0001)                   T
(PID.TID 0000.0001)     ;
(PID.TID 0000.0001) 
(PID.TID 0000.0001)    Seaice regularization numbers,   > START <
(PID.TID 0000.0001)    -----------------------------------------------
(PID.TID 0000.0001) SEAICE_deltaMin   = /* reduce singularities in Delta */
(PID.TID 0000.0001)                 1.000000000000000E-10
(PID.TID 0000.0001)     ;
(PID.TID 0000.0001) SEAICE_EPS        = /* small number */
(PID.TID 0000.0001)                 1.000000000000000E-10
(PID.TID 0000.0001)     ;
(PID.TID 0000.0001) SEAICE_EPS_SQ     = /* small number squared */
(PID.TID 0000.0001)                 1.000000000000000E-20
(PID.TID 0000.0001)     ;
(PID.TID 0000.0001) SEAICE_area_reg   = /* reduce derivative singularities */
(PID.TID 0000.0001)                 1.000000000000000E-05
(PID.TID 0000.0001)     ;
(PID.TID 0000.0001) SEAICE_hice_reg   = /* reduce derivative singularities */
(PID.TID 0000.0001)                 5.000000000000000E-02
(PID.TID 0000.0001)     ;
(PID.TID 0000.0001) SEAICE_area_floor = /* reduce derivative singularities */
(PID.TID 0000.0001)                 1.000000000000000E-05
(PID.TID 0000.0001)     ;
(PID.TID 0000.0001) 
(PID.TID 0000.0001) // =======================================================
(PID.TID 0000.0001) // Seaice configuration (SEAICE_PARM01) >>> END <<<
(PID.TID 0000.0001) // =======================================================
(PID.TID 0000.0001) 
(PID.TID 0000.0001) CTRL_INIT_REC: Getting record indices for
(PID.TID 0000.0001) CTRL_INIT_REC: Record indices for :
(PID.TID 0000.0001) CTRL_INIT_REC: startrec =          1, endrec =          1
(PID.TID 0000.0001) CTRL_INIT_REC: Getting record indices for
(PID.TID 0000.0001) CTRL_INIT_REC: Record indices for :
(PID.TID 0000.0001) CTRL_INIT_REC: startrec =          1, endrec =          1
(PID.TID 0000.0001) CTRL_INIT_REC: Getting record indices for
(PID.TID 0000.0001) CTRL_INIT_REC: Record indices for :
(PID.TID 0000.0001) CTRL_INIT_REC: startrec =          1, endrec =          1
(PID.TID 0000.0001) CTRL_INIT_REC: Getting record indices for
(PID.TID 0000.0001) CTRL_INIT_REC: Record indices for :
(PID.TID 0000.0001) CTRL_INIT_REC: startrec =          1, endrec =          1
(PID.TID 0000.0001) CTRL_INIT_REC: Getting record indices for
(PID.TID 0000.0001) CTRL_INIT_REC: Record indices for :
(PID.TID 0000.0001) CTRL_INIT_REC: startrec =          1, endrec =          1
(PID.TID 0000.0001) CTRL_INIT_REC: Getting record indices for
(PID.TID 0000.0001) CTRL_INIT_REC: Record indices for :
(PID.TID 0000.0001) CTRL_INIT_REC: startrec =          1, endrec =          1
(PID.TID 0000.0001) CTRL_INIT_REC: Getting record indices for
(PID.TID 0000.0001) CTRL_INIT_REC: Record indices for :
(PID.TID 0000.0001) CTRL_INIT_REC: startrec =          1, endrec =          1
(PID.TID 0000.0001) CTRL_INIT_REC: Getting record indices for
(PID.TID 0000.0001) CTRL_INIT_REC: Record indices for :
(PID.TID 0000.0001) CTRL_INIT_REC: startrec =          1, endrec =          1
(PID.TID 0000.0001) ctrl-wet 1:    nvarlength =        34632
(PID.TID 0000.0001) ctrl-wet 2: surface wet C =          312
(PID.TID 0000.0001) ctrl-wet 3: surface wet W =          312
(PID.TID 0000.0001) ctrl-wet 4: surface wet S =          283
(PID.TID 0000.0001) ctrl-wet 4a:surface wet V =            0
(PID.TID 0000.0001) ctrl-wet 5: 3D wet points =        11544
(PID.TID 0000.0001) ctrl-wet 6: no recs for i =     1           0
(PID.TID 0000.0001) ctrl-wet 6: no recs for i =     2           0
(PID.TID 0000.0001) ctrl-wet 6: no recs for i =     3           0
(PID.TID 0000.0001) ctrl-wet 6: no recs for i =     4           0
(PID.TID 0000.0001) ctrl-wet 6: no recs for i =     5           0
(PID.TID 0000.0001) ctrl-wet 6: no recs for i =     6           0
(PID.TID 0000.0001) ctrl-wet 6: no recs for i =     7           0
(PID.TID 0000.0001) ctrl-wet 6: no recs for i =     8           0
(PID.TID 0000.0001) ctrl-wet 6: no recs for i =     9           0
(PID.TID 0000.0001) ctrl-wet 6: no recs for i =    10           0
(PID.TID 0000.0001) ctrl-wet 6: no recs for i =    11           0
(PID.TID 0000.0001) ctrl-wet 6: no recs for i =    12           0
(PID.TID 0000.0001) ctrl-wet 6: no recs for i =    13           0
(PID.TID 0000.0001) ctrl-wet 6: no recs for i =    14           0
(PID.TID 0000.0001) ctrl-wet 6: no recs for i =    15           0
(PID.TID 0000.0001) ctrl-wet 6: no recs for i =    16           0
(PID.TID 0000.0001) ctrl-wet 6: no recs for i =    17           0
(PID.TID 0000.0001) ctrl-wet 6: no recs for i =    18           0
(PID.TID 0000.0001) ctrl-wet 6: no recs for i =    19           0
(PID.TID 0000.0001) ctrl-wet 6: no recs for i =    20           0
(PID.TID 0000.0001) ctrl-wet 6: no recs for i =    21           0
(PID.TID 0000.0001) ctrl-wet 6: no recs for i =    22           0
(PID.TID 0000.0001) ctrl-wet 6: no recs for i =    23           0
(PID.TID 0000.0001) ctrl-wet 6: no recs for i =    24           0
(PID.TID 0000.0001) ctrl-wet 6: no recs for i =    25           0
(PID.TID 0000.0001) ctrl-wet 6: no recs for i =    26           0
(PID.TID 0000.0001) ctrl-wet 6: no recs for i =    27           0
(PID.TID 0000.0001) ctrl-wet 6: no recs for i =    28           0
(PID.TID 0000.0001) ctrl-wet 6: no recs for i =    29           0
(PID.TID 0000.0001) ctrl-wet 6: no recs for i =    30           0
(PID.TID 0000.0001) ctrl-wet 6: no recs for i =    31           0
(PID.TID 0000.0001) ctrl-wet 6: no recs for i =    32           0
(PID.TID 0000.0001) ctrl-wet 6: no recs for i =    33           0
(PID.TID 0000.0001) ctrl-wet 6: no recs for i =    34           0
(PID.TID 0000.0001) ctrl-wet 6: no recs for i =    35           0
(PID.TID 0000.0001) ctrl-wet 6: no recs for i =    36           0
(PID.TID 0000.0001) ctrl-wet 6: no recs for i =    37           0
(PID.TID 0000.0001) ctrl-wet 6: no recs for i =    38           0
(PID.TID 0000.0001) ctrl-wet 6: no recs for i =    39           0
(PID.TID 0000.0001) ctrl-wet 6: no recs for i =    40           0
(PID.TID 0000.0001) ctrl-wet 6: no recs for i =    41           0
(PID.TID 0000.0001) ctrl-wet 6: no recs for i =    42           0
(PID.TID 0000.0001) ctrl-wet 6: no recs for i =    43           0
(PID.TID 0000.0001) ctrl-wet 6: no recs for i =    44           0
(PID.TID 0000.0001) ctrl-wet 6: no recs for i =    45           0
(PID.TID 0000.0001) ctrl-wet 6: no recs for i =    46           0
(PID.TID 0000.0001) ctrl-wet 6: no recs for i =    47           0
(PID.TID 0000.0001) ctrl-wet 6: no recs for i =    48           0
(PID.TID 0000.0001) ctrl-wet 6: no recs for i =    49           0
(PID.TID 0000.0001) ctrl-wet 6: no recs for i =    50           0
(PID.TID 0000.0001) ctrl-wet 6: no recs for i =    51           0
(PID.TID 0000.0001) ctrl-wet 6: no recs for i =    52           0
(PID.TID 0000.0001) ctrl-wet 6: no recs for i =    53           0
(PID.TID 0000.0001) ctrl-wet 6: no recs for i =    54           0
(PID.TID 0000.0001) ctrl-wet 6: no recs for i =    55           0
(PID.TID 0000.0001) ctrl-wet 6: no recs for i =    56           0
(PID.TID 0000.0001) ctrl-wet 6: no recs for i =    57           0
(PID.TID 0000.0001) ctrl-wet 6: no recs for i =    58           0
(PID.TID 0000.0001) ctrl-wet 6: no recs for i =    59           0
(PID.TID 0000.0001) ctrl-wet 6: no recs for i =    60           0
(PID.TID 0000.0001) ctrl-wet 6: no recs for i =    61           0
(PID.TID 0000.0001) ctrl-wet 6: no recs for i =    62           0
(PID.TID 0000.0001) ctrl-wet 6: no recs for i =    63           0
(PID.TID 0000.0001) ctrl-wet 6: no recs for i =    64           0
(PID.TID 0000.0001) ctrl-wet 6: no recs for i =    65           0
(PID.TID 0000.0001) ctrl-wet 6: no recs for i =    66           0
(PID.TID 0000.0001) ctrl-wet 6: no recs for i =    67           0
(PID.TID 0000.0001) ctrl-wet 6: no recs for i =    68           0
(PID.TID 0000.0001) ctrl-wet 6: no recs for i =    69           0
(PID.TID 0000.0001) ctrl-wet 6: no recs for i =    70           0
(PID.TID 0000.0001) ctrl-wet 6: no recs for i =    71           0
(PID.TID 0000.0001) ctrl-wet 6: no recs for i =    72           0
(PID.TID 0000.0001) ctrl-wet 6: no recs for i =    73           0
(PID.TID 0000.0001) ctrl-wet 6: no recs for i =    74           0
(PID.TID 0000.0001) ctrl-wet 6: no recs for i =    75           0
(PID.TID 0000.0001) ctrl-wet 6: no recs for i =    76           0
(PID.TID 0000.0001) ctrl-wet 6: no recs for i =    77           0
(PID.TID 0000.0001) ctrl-wet 6: no recs for i =    78           0
(PID.TID 0000.0001) ctrl-wet 6: no recs for i =    79           0
(PID.TID 0000.0001) ctrl-wet 6: no recs for i =    80           0
(PID.TID 0000.0001) ctrl-wet 6: no recs for i =    81           0
(PID.TID 0000.0001) ctrl-wet 6: no recs for i =    82           0
(PID.TID 0000.0001) ctrl-wet 6: no recs for i =    83           0
(PID.TID 0000.0001) ctrl-wet 6: no recs for i =    84           0
(PID.TID 0000.0001) ctrl-wet 6: no recs for i =    85           0
(PID.TID 0000.0001) ctrl-wet 6: no recs for i =    86           0
(PID.TID 0000.0001) ctrl-wet 6: no recs for i =    87           0
(PID.TID 0000.0001) ctrl-wet 6: no recs for i =    88           0
(PID.TID 0000.0001) ctrl-wet 6: no recs for i =    89           0
(PID.TID 0000.0001) ctrl-wet 6: no recs for i =    90           0
(PID.TID 0000.0001) ctrl-wet 6: no recs for i =    91           0
(PID.TID 0000.0001) ctrl-wet 6: no recs for i =    92           0
(PID.TID 0000.0001) ctrl-wet 6: no recs for i =    93           0
(PID.TID 0000.0001) ctrl-wet 6: no recs for i =    94           0
(PID.TID 0000.0001) ctrl-wet 6: no recs for i =    95           0
(PID.TID 0000.0001) ctrl-wet 6: no recs for i =    96           0
(PID.TID 0000.0001) ctrl-wet 6: no recs for i =    97           0
(PID.TID 0000.0001) ctrl-wet 6: no recs for i =    98           0
(PID.TID 0000.0001) ctrl-wet 6: no recs for i =    99           0
(PID.TID 0000.0001) ctrl-wet 6: no recs for i =   100           0
(PID.TID 0000.0001) ctrl-wet 6: no recs for i =   101           0
(PID.TID 0000.0001) ctrl-wet 6: no recs for i =   102           0
(PID.TID 0000.0001) ctrl-wet 6: no recs for i =   103           0
(PID.TID 0000.0001) ctrl-wet 6: no recs for i =   104           0
(PID.TID 0000.0001) ctrl-wet 6: no recs for i =   105           0
(PID.TID 0000.0001) ctrl-wet 6: no recs for i =   106           0
(PID.TID 0000.0001) ctrl-wet 6: no recs for i =   107           0
(PID.TID 0000.0001) ctrl-wet 6: no recs for i =   108           0
(PID.TID 0000.0001) ctrl-wet 6: no recs for i =   109           0
(PID.TID 0000.0001) ctrl-wet 6: no recs for i =   110           0
(PID.TID 0000.0001) ctrl-wet 6: no recs for i =   111           0
(PID.TID 0000.0001) ctrl-wet 6: no recs for i =   112           0
(PID.TID 0000.0001) ctrl-wet 6: no recs for i =   113           0
(PID.TID 0000.0001) ctrl-wet 6: no recs for i =   114           0
(PID.TID 0000.0001) ctrl-wet 6: no recs for i =   115           0
(PID.TID 0000.0001) ctrl-wet 6: no recs for i =   116           0
(PID.TID 0000.0001) ctrl-wet 6: no recs for i =   117           0
(PID.TID 0000.0001) ctrl-wet 6: no recs for i =   118           0
(PID.TID 0000.0001) ctrl-wet 6: no recs for i =   119           0
(PID.TID 0000.0001) ctrl-wet 6: no recs for i =   120           0
(PID.TID 0000.0001) ctrl-wet 6: no recs for i =   121           0
(PID.TID 0000.0001) ctrl-wet 6: no recs for i =   122           0
(PID.TID 0000.0001) ctrl-wet 6: no recs for i =   123           0
(PID.TID 0000.0001) ctrl-wet 6: no recs for i =   124           0
(PID.TID 0000.0001) ctrl-wet 6: no recs for i =   125           0
(PID.TID 0000.0001) ctrl-wet 6: no recs for i =   126           0
(PID.TID 0000.0001) ctrl-wet 6: no recs for i =   127           0
(PID.TID 0000.0001) ctrl-wet 6: no recs for i =   128           0
(PID.TID 0000.0001) ctrl-wet 6: no recs for i =   129           0
(PID.TID 0000.0001) ctrl-wet 6: no recs for i =   130           0
(PID.TID 0000.0001) ctrl-wet 6: no recs for i =   131           0
(PID.TID 0000.0001) ctrl-wet 6: no recs for i =   132           0
(PID.TID 0000.0001) ctrl-wet 6: no recs for i =   133           0
(PID.TID 0000.0001) ctrl-wet 6: no recs for i =   134           0
(PID.TID 0000.0001) ctrl-wet 6: no recs for i =   135           0
(PID.TID 0000.0001) ctrl-wet 6: no recs for i =   136           0
(PID.TID 0000.0001) ctrl-wet 6: no recs for i =   137           0
(PID.TID 0000.0001) ctrl-wet 6: no recs for i =   138           0
(PID.TID 0000.0001) ctrl-wet 6: no recs for i =   139           0
(PID.TID 0000.0001) ctrl-wet 6: no recs for i =   140           0
(PID.TID 0000.0001) ctrl-wet 6: no recs for i =   141           0
(PID.TID 0000.0001) ctrl-wet 6: no recs for i =   142           0
(PID.TID 0000.0001) ctrl-wet 6: no recs for i =   143           0
(PID.TID 0000.0001) ctrl-wet 6: no recs for i =   144           0
(PID.TID 0000.0001) ctrl-wet 6: no recs for i =   145           0
(PID.TID 0000.0001) ctrl-wet 6: no recs for i =   146           0
(PID.TID 0000.0001) ctrl-wet 6: no recs for i =   147           0
(PID.TID 0000.0001) ctrl-wet 6: no recs for i =   148           0
(PID.TID 0000.0001) ctrl-wet 6: no recs for i =   149           0
(PID.TID 0000.0001) ctrl-wet 6: no recs for i =   150           0
(PID.TID 0000.0001) ctrl-wet 6: no recs for i =   151           0
(PID.TID 0000.0001) ctrl-wet 6: no recs for i =   152           0
(PID.TID 0000.0001) ctrl-wet 6: no recs for i =   153           0
(PID.TID 0000.0001) ctrl-wet 6: no recs for i =   154           0
(PID.TID 0000.0001) ctrl-wet 6: no recs for i =   155           0
(PID.TID 0000.0001) ctrl-wet 6: no recs for i =   156           0
(PID.TID 0000.0001) ctrl-wet 6: no recs for i =   157           0
(PID.TID 0000.0001) ctrl-wet 6: no recs for i =   158           0
(PID.TID 0000.0001) ctrl-wet 6: no recs for i =   159           0
(PID.TID 0000.0001) ctrl-wet 6: no recs for i =   160           0
(PID.TID 0000.0001) ctrl-wet 6: no recs for i =   161           0
(PID.TID 0000.0001) ctrl-wet 6: no recs for i =   162           0
(PID.TID 0000.0001) ctrl-wet 6: no recs for i =   163           0
(PID.TID 0000.0001) ctrl-wet 6: no recs for i =   164           0
(PID.TID 0000.0001) ctrl-wet 6: no recs for i =   165           0
(PID.TID 0000.0001) ctrl-wet 6: no recs for i =   166           0
(PID.TID 0000.0001) ctrl-wet 6: no recs for i =   167           0
(PID.TID 0000.0001) ctrl-wet 6: no recs for i =   168           0
(PID.TID 0000.0001) ctrl-wet 6: no recs for i =   169           0
(PID.TID 0000.0001) ctrl-wet 6: no recs for i =   170           0
(PID.TID 0000.0001) ctrl-wet 6: no recs for i =   171           0
(PID.TID 0000.0001) ctrl-wet 6: no recs for i =   172           0
(PID.TID 0000.0001) ctrl-wet 6: no recs for i =   173           0
(PID.TID 0000.0001) ctrl-wet 6: no recs for i =   174           0
(PID.TID 0000.0001) ctrl-wet 6: no recs for i =   175           0
(PID.TID 0000.0001) ctrl-wet 6: no recs for i =   176           0
(PID.TID 0000.0001) ctrl-wet 6: no recs for i =   177           0
(PID.TID 0000.0001) ctrl-wet 6: no recs for i =   178           0
(PID.TID 0000.0001) ctrl-wet 6: no recs for i =   179           0
(PID.TID 0000.0001) ctrl-wet 6: no recs for i =   180           0
(PID.TID 0000.0001) ctrl-wet 6: no recs for i =   181           0
(PID.TID 0000.0001) ctrl-wet 6: no recs for i =   182           0
(PID.TID 0000.0001) ctrl-wet 6: no recs for i =   183           0
(PID.TID 0000.0001) ctrl-wet 6: no recs for i =   184           0
(PID.TID 0000.0001) ctrl-wet 6: no recs for i =   185           0
(PID.TID 0000.0001) ctrl-wet 6: no recs for i =   186           0
(PID.TID 0000.0001) ctrl-wet 6: no recs for i =   187           0
(PID.TID 0000.0001) ctrl-wet 6: no recs for i =   188           0
(PID.TID 0000.0001) ctrl-wet 6: no recs for i =   189           0
(PID.TID 0000.0001) ctrl-wet 6: no recs for i =   190           0
(PID.TID 0000.0001) ctrl-wet 6: no recs for i =   191           0
(PID.TID 0000.0001) ctrl-wet 6: no recs for i =   192           0
(PID.TID 0000.0001) ctrl-wet 6: no recs for i =   193           0
(PID.TID 0000.0001) ctrl-wet 6: no recs for i =   194           0
(PID.TID 0000.0001) ctrl-wet 6: no recs for i =   195           0
(PID.TID 0000.0001) ctrl-wet 6: no recs for i =   196           0
(PID.TID 0000.0001) ctrl-wet 6: no recs for i =   197           0
(PID.TID 0000.0001) ctrl-wet 6: no recs for i =   198           0
(PID.TID 0000.0001) ctrl-wet 6: no recs for i =   199           0
(PID.TID 0000.0001) ctrl-wet 6: no recs for i =   200           0
(PID.TID 0000.0001) ctrl-wet 6: no recs for i =   201           1
(PID.TID 0000.0001) ctrl-wet 6: no recs for i =   202           1
(PID.TID 0000.0001) ctrl-wet 6: no recs for i =   203           1
(PID.TID 0000.0001) ctrl-wet 6: no recs for i =   204           0
(PID.TID 0000.0001) ctrl-wet 6: no recs for i =   205           0
(PID.TID 0000.0001) ctrl-wet 6: no recs for i =   206           0
(PID.TID 0000.0001) ctrl-wet 6: no recs for i =   207           0
(PID.TID 0000.0001) ctrl-wet 6: no recs for i =   208           0
(PID.TID 0000.0001) ctrl-wet 6: no recs for i =   209           0
(PID.TID 0000.0001) ctrl-wet 6: no recs for i =   210           0
(PID.TID 0000.0001) ctrl-wet 6: no recs for i =   211           0
(PID.TID 0000.0001) ctrl-wet 6: no recs for i =   212           0
(PID.TID 0000.0001) ctrl-wet 6: no recs for i =   213           0
(PID.TID 0000.0001) ctrl-wet 6: no recs for i =   214           0
(PID.TID 0000.0001) ctrl-wet 6: no recs for i =   215           0
(PID.TID 0000.0001) ctrl-wet 6: no recs for i =   216           0
(PID.TID 0000.0001) ctrl-wet 6: no recs for i =   217           0
(PID.TID 0000.0001) ctrl-wet 6: no recs for i =   218           0
(PID.TID 0000.0001) ctrl-wet 6: no recs for i =   219           0
(PID.TID 0000.0001) ctrl-wet 6: no recs for i =   220           0
(PID.TID 0000.0001) ctrl-wet 6: no recs for i =   221           0
(PID.TID 0000.0001) ctrl-wet 6: no recs for i =   222           0
(PID.TID 0000.0001) ctrl-wet 6: no recs for i =   223           0
(PID.TID 0000.0001) ctrl-wet 6: no recs for i =   224           0
(PID.TID 0000.0001) ctrl-wet 6: no recs for i =   225           0
(PID.TID 0000.0001) ctrl-wet 6: no recs for i =   226           0
(PID.TID 0000.0001) ctrl-wet 6: no recs for i =   227           0
(PID.TID 0000.0001) ctrl-wet 6: no recs for i =   228           0
(PID.TID 0000.0001) ctrl-wet 6: no recs for i =   229           0
(PID.TID 0000.0001) ctrl-wet 6: no recs for i =   230           0
(PID.TID 0000.0001) ctrl-wet 6: no recs for i =   231           0
(PID.TID 0000.0001) ctrl-wet 6: no recs for i =   232           0
(PID.TID 0000.0001) ctrl-wet 6: no recs for i =   233           0
(PID.TID 0000.0001) ctrl-wet 6: no recs for i =   234           0
(PID.TID 0000.0001) ctrl-wet 6: no recs for i =   235           0
(PID.TID 0000.0001) ctrl-wet 6: no recs for i =   236           0
(PID.TID 0000.0001) ctrl-wet 6: no recs for i =   237           0
(PID.TID 0000.0001) ctrl-wet 6: no recs for i =   238           0
(PID.TID 0000.0001) ctrl-wet 6: no recs for i =   239           0
(PID.TID 0000.0001) ctrl-wet 6: no recs for i =   240           0
(PID.TID 0000.0001) ctrl-wet 6: no recs for i =   241           0
(PID.TID 0000.0001) ctrl-wet 6: no recs for i =   242           0
(PID.TID 0000.0001) ctrl-wet 6: no recs for i =   243           0
(PID.TID 0000.0001) ctrl-wet 6: no recs for i =   244           0
(PID.TID 0000.0001) ctrl-wet 6: no recs for i =   245           0
(PID.TID 0000.0001) ctrl-wet 6: no recs for i =   246           0
(PID.TID 0000.0001) ctrl-wet 6: no recs for i =   247           0
(PID.TID 0000.0001) ctrl-wet 6: no recs for i =   248           0
(PID.TID 0000.0001) ctrl-wet 6: no recs for i =   249           0
(PID.TID 0000.0001) ctrl-wet 6: no recs for i =   250           0
(PID.TID 0000.0001) ctrl-wet 6: no recs for i =   251           0
(PID.TID 0000.0001) ctrl-wet 6: no recs for i =   252           0
(PID.TID 0000.0001) ctrl-wet 6: no recs for i =   253           0
(PID.TID 0000.0001) ctrl-wet 6: no recs for i =   254           0
(PID.TID 0000.0001) ctrl-wet 6: no recs for i =   255           0
(PID.TID 0000.0001) ctrl-wet 6: no recs for i =   256           0
(PID.TID 0000.0001) ctrl-wet 6: no recs for i =   257           0
(PID.TID 0000.0001) ctrl-wet 6: no recs for i =   258           0
(PID.TID 0000.0001) ctrl-wet 6: no recs for i =   259           0
(PID.TID 0000.0001) ctrl-wet 6: no recs for i =   260           0
(PID.TID 0000.0001) ctrl-wet 6: no recs for i =   261           0
(PID.TID 0000.0001) ctrl-wet 6: no recs for i =   262           0
(PID.TID 0000.0001) ctrl-wet 6: no recs for i =   263           0
(PID.TID 0000.0001) ctrl-wet 6: no recs for i =   264           0
(PID.TID 0000.0001) ctrl-wet 6: no recs for i =   265           0
(PID.TID 0000.0001) ctrl-wet 6: no recs for i =   266           0
(PID.TID 0000.0001) ctrl-wet 6: no recs for i =   267           0
(PID.TID 0000.0001) ctrl-wet 6: no recs for i =   268           0
(PID.TID 0000.0001) ctrl-wet 6: no recs for i =   269           0
(PID.TID 0000.0001) ctrl-wet 6: no recs for i =   270           0
(PID.TID 0000.0001) ctrl-wet 6: no recs for i =   271           0
(PID.TID 0000.0001) ctrl-wet 6: no recs for i =   272           0
(PID.TID 0000.0001) ctrl-wet 6: no recs for i =   273           0
(PID.TID 0000.0001) ctrl-wet 6: no recs for i =   274           0
(PID.TID 0000.0001) ctrl-wet 6: no recs for i =   275           0
(PID.TID 0000.0001) ctrl-wet 6: no recs for i =   276           0
(PID.TID 0000.0001) ctrl-wet 6: no recs for i =   277           0
(PID.TID 0000.0001) ctrl-wet 6: no recs for i =   278           0
(PID.TID 0000.0001) ctrl-wet 6: no recs for i =   279           0
(PID.TID 0000.0001) ctrl-wet 6: no recs for i =   280           0
(PID.TID 0000.0001) ctrl-wet 6: no recs for i =   281           0
(PID.TID 0000.0001) ctrl-wet 6: no recs for i =   282           0
(PID.TID 0000.0001) ctrl-wet 6: no recs for i =   283           0
(PID.TID 0000.0001) ctrl-wet 6: no recs for i =   284           0
(PID.TID 0000.0001) ctrl-wet 6: no recs for i =   285           0
(PID.TID 0000.0001) ctrl-wet 6: no recs for i =   286           0
(PID.TID 0000.0001) ctrl-wet 6: no recs for i =   287           0
(PID.TID 0000.0001) ctrl-wet 6: no recs for i =   288           0
(PID.TID 0000.0001) ctrl-wet 6: no recs for i =   289           0
(PID.TID 0000.0001) ctrl-wet 6: no recs for i =   290           0
(PID.TID 0000.0001) ctrl-wet 6: no recs for i =   291           0
(PID.TID 0000.0001) ctrl-wet 6: no recs for i =   292           0
(PID.TID 0000.0001) ctrl-wet 6: no recs for i =   293           0
(PID.TID 0000.0001) ctrl-wet 6: no recs for i =   294           0
(PID.TID 0000.0001) ctrl-wet 6: no recs for i =   295           0
(PID.TID 0000.0001) ctrl-wet 6: no recs for i =   296           0
(PID.TID 0000.0001) ctrl-wet 6: no recs for i =   297           0
(PID.TID 0000.0001) ctrl-wet 6: no recs for i =   298           0
(PID.TID 0000.0001) ctrl-wet 6: no recs for i =   299           0
(PID.TID 0000.0001) ctrl-wet 6: no recs for i =   300           0
(PID.TID 0000.0001) ctrl-wet 6: no recs for i =   301           0
(PID.TID 0000.0001) ctrl-wet 6: no recs for i =   302           0
(PID.TID 0000.0001) ctrl-wet 6: no recs for i =   303           0
(PID.TID 0000.0001) ctrl-wet 6: no recs for i =   304           0
(PID.TID 0000.0001) ctrl-wet 6: no recs for i =   305           0
(PID.TID 0000.0001) ctrl-wet 6: no recs for i =   306           0
(PID.TID 0000.0001) ctrl-wet 6: no recs for i =   307           0
(PID.TID 0000.0001) ctrl-wet 6: no recs for i =   308           0
(PID.TID 0000.0001) ctrl-wet 6: no recs for i =   309           0
(PID.TID 0000.0001) ctrl-wet 6: no recs for i =   310           0
(PID.TID 0000.0001) ctrl-wet 6: no recs for i =   311           0
(PID.TID 0000.0001) ctrl-wet 6: no recs for i =   312           0
(PID.TID 0000.0001) ctrl-wet 6: no recs for i =   313           0
(PID.TID 0000.0001) ctrl-wet 6: no recs for i =   314           0
(PID.TID 0000.0001) ctrl-wet 6: no recs for i =   315           0
(PID.TID 0000.0001) ctrl-wet 6: no recs for i =   316           0
(PID.TID 0000.0001) ctrl-wet 6: no recs for i =   317           0
(PID.TID 0000.0001) ctrl-wet 6: no recs for i =   318           0
(PID.TID 0000.0001) ctrl-wet 6: no recs for i =   319           0
(PID.TID 0000.0001) ctrl-wet 6: no recs for i =   320           0
(PID.TID 0000.0001) ctrl-wet 6: no recs for i =   321           0
(PID.TID 0000.0001) ctrl-wet 6: no recs for i =   322           0
(PID.TID 0000.0001) ctrl-wet 6: no recs for i =   323           0
(PID.TID 0000.0001) ctrl-wet 6: no recs for i =   324           0
(PID.TID 0000.0001) ctrl-wet 6: no recs for i =   325           0
(PID.TID 0000.0001) ctrl-wet 6: no recs for i =   326           0
(PID.TID 0000.0001) ctrl-wet 6: no recs for i =   327           0
(PID.TID 0000.0001) ctrl-wet 6: no recs for i =   328           0
(PID.TID 0000.0001) ctrl-wet 6: no recs for i =   329           0
(PID.TID 0000.0001) ctrl-wet 6: no recs for i =   330           0
(PID.TID 0000.0001) ctrl-wet 6: no recs for i =   331           0
(PID.TID 0000.0001) ctrl-wet 6: no recs for i =   332           0
(PID.TID 0000.0001) ctrl-wet 6: no recs for i =   333           0
(PID.TID 0000.0001) ctrl-wet 6: no recs for i =   334           0
(PID.TID 0000.0001) ctrl-wet 6: no recs for i =   335           0
(PID.TID 0000.0001) ctrl-wet 6: no recs for i =   336           0
(PID.TID 0000.0001) ctrl-wet 6: no recs for i =   337           0
(PID.TID 0000.0001) ctrl-wet 6: no recs for i =   338           0
(PID.TID 0000.0001) ctrl-wet 6: no recs for i =   339           0
(PID.TID 0000.0001) ctrl-wet 6: no recs for i =   340           0
(PID.TID 0000.0001) ctrl-wet 6: no recs for i =   341           0
(PID.TID 0000.0001) ctrl-wet 6: no recs for i =   342           0
(PID.TID 0000.0001) ctrl-wet 6: no recs for i =   343           0
(PID.TID 0000.0001) ctrl-wet 6: no recs for i =   344           0
(PID.TID 0000.0001) ctrl-wet 6: no recs for i =   345           0
(PID.TID 0000.0001) ctrl-wet 6: no recs for i =   346           0
(PID.TID 0000.0001) ctrl-wet 6: no recs for i =   347           0
(PID.TID 0000.0001) ctrl-wet 6: no recs for i =   348           0
(PID.TID 0000.0001) ctrl-wet 6: no recs for i =   349           0
(PID.TID 0000.0001) ctrl-wet 6: no recs for i =   350           0
(PID.TID 0000.0001) ctrl-wet 6: no recs for i =   351           0
(PID.TID 0000.0001) ctrl-wet 6: no recs for i =   352           0
(PID.TID 0000.0001) ctrl-wet 6: no recs for i =   353           0
(PID.TID 0000.0001) ctrl-wet 6: no recs for i =   354           0
(PID.TID 0000.0001) ctrl-wet 6: no recs for i =   355           0
(PID.TID 0000.0001) ctrl-wet 6: no recs for i =   356           0
(PID.TID 0000.0001) ctrl-wet 6: no recs for i =   357           0
(PID.TID 0000.0001) ctrl-wet 6: no recs for i =   358           0
(PID.TID 0000.0001) ctrl-wet 6: no recs for i =   359           0
(PID.TID 0000.0001) ctrl-wet 6: no recs for i =   360           0
(PID.TID 0000.0001) ctrl-wet 6: no recs for i =   361           0
(PID.TID 0000.0001) ctrl-wet 6: no recs for i =   362           0
(PID.TID 0000.0001) ctrl-wet 6: no recs for i =   363           0
(PID.TID 0000.0001) ctrl-wet 6: no recs for i =   364           0
(PID.TID 0000.0001) ctrl-wet 6: no recs for i =   365           0
(PID.TID 0000.0001) ctrl-wet 6: no recs for i =   366           0
(PID.TID 0000.0001) ctrl-wet 6: no recs for i =   367           0
(PID.TID 0000.0001) ctrl-wet 6: no recs for i =   368           0
(PID.TID 0000.0001) ctrl-wet 6: no recs for i =   369           0
(PID.TID 0000.0001) ctrl-wet 6: no recs for i =   370           0
(PID.TID 0000.0001) ctrl-wet 6: no recs for i =   371           0
(PID.TID 0000.0001) ctrl-wet 6: no recs for i =   372           0
(PID.TID 0000.0001) ctrl-wet 6: no recs for i =   373           0
(PID.TID 0000.0001) ctrl-wet 6: no recs for i =   374           0
(PID.TID 0000.0001) ctrl-wet 6: no recs for i =   375           0
(PID.TID 0000.0001) ctrl-wet 6: no recs for i =   376           0
(PID.TID 0000.0001) ctrl-wet 6: no recs for i =   377           0
(PID.TID 0000.0001) ctrl-wet 6: no recs for i =   378           0
(PID.TID 0000.0001) ctrl-wet 6: no recs for i =   379           0
(PID.TID 0000.0001) ctrl-wet 6: no recs for i =   380           0
(PID.TID 0000.0001) ctrl-wet 6: no recs for i =   381           0
(PID.TID 0000.0001) ctrl-wet 6: no recs for i =   382           0
(PID.TID 0000.0001) ctrl-wet 6: no recs for i =   383           0
(PID.TID 0000.0001) ctrl-wet 6: no recs for i =   384           0
(PID.TID 0000.0001) ctrl-wet 6: no recs for i =   385           0
(PID.TID 0000.0001) ctrl-wet 6: no recs for i =   386           0
(PID.TID 0000.0001) ctrl-wet 6: no recs for i =   387           0
(PID.TID 0000.0001) ctrl-wet 6: no recs for i =   388           0
(PID.TID 0000.0001) ctrl-wet 6: no recs for i =   389           0
(PID.TID 0000.0001) ctrl-wet 6: no recs for i =   390           0
(PID.TID 0000.0001) ctrl-wet 6: no recs for i =   391           0
(PID.TID 0000.0001) ctrl-wet 6: no recs for i =   392           0
(PID.TID 0000.0001) ctrl-wet 6: no recs for i =   393           0
(PID.TID 0000.0001) ctrl-wet 6: no recs for i =   394           0
(PID.TID 0000.0001) ctrl-wet 6: no recs for i =   395           0
(PID.TID 0000.0001) ctrl-wet 6: no recs for i =   396           0
(PID.TID 0000.0001) ctrl-wet 6: no recs for i =   397           0
(PID.TID 0000.0001) ctrl-wet 6: no recs for i =   398           0
(PID.TID 0000.0001) ctrl-wet 6: no recs for i =   399           0
(PID.TID 0000.0001) ctrl-wet 6: no recs for i =   400           0
(PID.TID 0000.0001) ctrl-wet 7: flux         23088
(PID.TID 0000.0001) ctrl-wet 8: atmos        23088
(PID.TID 0000.0001) ctrl-wet -------------------------------------------------
(PID.TID 0000.0001) ctrl-wet 13: global nvarlength for Nr =   50     7220976
(PID.TID 0000.0001) ctrl-wet -------------------------------------------------
(PID.TID 0000.0001) ctrl-wet 14: global nWet C/S/W/V k=    1       60646       59295       59493           0
(PID.TID 0000.0001) ctrl-wet 14: global nWet C/S/W/V k=    2       60646       59295       59493           0
(PID.TID 0000.0001) ctrl-wet 14: global nWet C/S/W/V k=    3       59874       58517       58725           0
(PID.TID 0000.0001) ctrl-wet 14: global nWet C/S/W/V k=    4       59387       58040       58258           0
(PID.TID 0000.0001) ctrl-wet 14: global nWet C/S/W/V k=    5       58882       57536       57754           0
(PID.TID 0000.0001) ctrl-wet 14: global nWet C/S/W/V k=    6       58399       57057       57276           0
(PID.TID 0000.0001) ctrl-wet 14: global nWet C/S/W/V k=    7       58052       56735       56936           0
(PID.TID 0000.0001) ctrl-wet 14: global nWet C/S/W/V k=    8       57781       56461       56669           0
(PID.TID 0000.0001) ctrl-wet 14: global nWet C/S/W/V k=    9       57530       56212       56416           0
(PID.TID 0000.0001) ctrl-wet 14: global nWet C/S/W/V k=   10       57283       55964       56154           0
(PID.TID 0000.0001) ctrl-wet 14: global nWet C/S/W/V k=   11       57022       55702       55883           0
(PID.TID 0000.0001) ctrl-wet 14: global nWet C/S/W/V k=   12       56818       55497       55681           0
(PID.TID 0000.0001) ctrl-wet 14: global nWet C/S/W/V k=   13       56634       55322       55509           0
(PID.TID 0000.0001) ctrl-wet 14: global nWet C/S/W/V k=   14       56430       55125       55312           0
(PID.TID 0000.0001) ctrl-wet 14: global nWet C/S/W/V k=   15       56238       54935       55117           0
(PID.TID 0000.0001) ctrl-wet 14: global nWet C/S/W/V k=   16       55975       54689       54858           0
(PID.TID 0000.0001) ctrl-wet 14: global nWet C/S/W/V k=   17       55703       54421       54600           0
(PID.TID 0000.0001) ctrl-wet 14: global nWet C/S/W/V k=   18       55358       54075       54251           0
(PID.TID 0000.0001) ctrl-wet 14: global nWet C/S/W/V k=   19       54964       53666       53853           0
(PID.TID 0000.0001) ctrl-wet 14: global nWet C/S/W/V k=   20       54471       53205       53372           0
(PID.TID 0000.0001) ctrl-wet 14: global nWet C/S/W/V k=   21       53952       52716       52877           0
(PID.TID 0000.0001) ctrl-wet 14: global nWet C/S/W/V k=   22       53489       52249       52409           0
(PID.TID 0000.0001) ctrl-wet 14: global nWet C/S/W/V k=   23       52892       51633       51797           0
(PID.TID 0000.0001) ctrl-wet 14: global nWet C/S/W/V k=   24       52223       50961       51129           0
(PID.TID 0000.0001) ctrl-wet 14: global nWet C/S/W/V k=   25       51696       50480       50635           0
(PID.TID 0000.0001) ctrl-wet 14: global nWet C/S/W/V k=   26       51259       50075       50241           0
(PID.TID 0000.0001) ctrl-wet 14: global nWet C/S/W/V k=   27       50929       49774       49935           0
(PID.TID 0000.0001) ctrl-wet 14: global nWet C/S/W/V k=   28       50664       49532       49678           0
(PID.TID 0000.0001) ctrl-wet 14: global nWet C/S/W/V k=   29       50438       49306       49450           0
(PID.TID 0000.0001) ctrl-wet 14: global nWet C/S/W/V k=   30       50187       49035       49179           0
(PID.TID 0000.0001) ctrl-wet 14: global nWet C/S/W/V k=   31       49964       48805       48937           0
(PID.TID 0000.0001) ctrl-wet 14: global nWet C/S/W/V k=   32       49700       48530       48662           0
(PID.TID 0000.0001) ctrl-wet 14: global nWet C/S/W/V k=   33       49431       48260       48383           0
(PID.TID 0000.0001) ctrl-wet 14: global nWet C/S/W/V k=   34       49176       47993       48108           0
(PID.TID 0000.0001) ctrl-wet 14: global nWet C/S/W/V k=   35       48854       47652       47764           0
(PID.TID 0000.0001) ctrl-wet 14: global nWet C/S/W/V k=   36       48501       47264       47375           0
(PID.TID 0000.0001) ctrl-wet 14: global nWet C/S/W/V k=   37       48098       46846       46951           0
(PID.TID 0000.0001) ctrl-wet 14: global nWet C/S/W/V k=   38       47523       46253       46362           0
(PID.TID 0000.0001) ctrl-wet 14: global nWet C/S/W/V k=   39       46849       45558       45657           0
(PID.TID 0000.0001) ctrl-wet 14: global nWet C/S/W/V k=   40       45984       44670       44751           0
(PID.TID 0000.0001) ctrl-wet 14: global nWet C/S/W/V k=   41       44793       43419       43459           0
(PID.TID 0000.0001) ctrl-wet 14: global nWet C/S/W/V k=   42       42984       41497       41533           0
(PID.TID 0000.0001) ctrl-wet 14: global nWet C/S/W/V k=   43       40302       38691       38718           0
(PID.TID 0000.0001) ctrl-wet 14: global nWet C/S/W/V k=   44       36689       35007       35032           0
(PID.TID 0000.0001) ctrl-wet 14: global nWet C/S/W/V k=   45       31681       30069       29999           0
(PID.TID 0000.0001) ctrl-wet 14: global nWet C/S/W/V k=   46       25595       24028       24031           0
(PID.TID 0000.0001) ctrl-wet 14: global nWet C/S/W/V k=   47       18224       16890       16872           0
(PID.TID 0000.0001) ctrl-wet 14: global nWet C/S/W/V k=   48       11407       10397       10351           0
(PID.TID 0000.0001) ctrl-wet 14: global nWet C/S/W/V k=   49        4597        3913        3912           0
(PID.TID 0000.0001) ctrl-wet 14: global nWet C/S/W/V k=   50         818         624         622           0
(PID.TID 0000.0001) ctrl-wet -------------------------------------------------
(PID.TID 0000.0001) ctrl-wet -------------------------------------------------
(PID.TID 0000.0001) ctrl-wet -------------------------------------------------
(PID.TID 0000.0001) ctrl_init: no. of control variables:            3
(PID.TID 0000.0001) ctrl_init: control vector length:         7220976
(PID.TID 0000.0001) 
(PID.TID 0000.0001) // =======================================================
(PID.TID 0000.0001) // control vector configuration  >>> START <<<
(PID.TID 0000.0001) // =======================================================
(PID.TID 0000.0001) 
(PID.TID 0000.0001)  Total number of ocean points per tile:
(PID.TID 0000.0001)  --------------------------------------
(PID.TID 0000.0001)  snx*sny*nr =    45000
(PID.TID 0000.0001) 
(PID.TID 0000.0001)  Number of ocean points per tile:
(PID.TID 0000.0001)  --------------------------------
(PID.TID 0000.0001)  bi,bj,#(c/s/w): 0001 0001 011544 010207 011460
(PID.TID 0000.0001) 
(PID.TID 0000.0001)  Settings of generic controls:
(PID.TID 0000.0001)  -----------------------------
(PID.TID 0000.0001) 
(PID.TID 0000.0001)  ctrlUseGen  =     T /* use generic controls */
(PID.TID 0000.0001)  -> 3d control, genarr3d no.  1 is in use
(PID.TID 0000.0001)       file       = xx_kapgm
(PID.TID 0000.0001)       weight     = wt_ones.data
(PID.TID 0000.0001)  -> 3d control, genarr3d no.  2 is in use
(PID.TID 0000.0001)       file       = xx_kapredi
(PID.TID 0000.0001)       weight     = wt_ones.data
(PID.TID 0000.0001)  -> 3d control, genarr3d no.  3 is in use
(PID.TID 0000.0001)       file       = xx_diffkr
(PID.TID 0000.0001)       weight     = wt_ones.data
(PID.TID 0000.0001) 
(PID.TID 0000.0001) // =======================================================
(PID.TID 0000.0001) // control vector configuration  >>> END <<<
(PID.TID 0000.0001) // =======================================================
(PID.TID 0000.0001) 
(PID.TID 0000.0001) ------------------------------------------------------------
(PID.TID 0000.0001) DIAGNOSTICS_SET_LEVELS: done
(PID.TID 0000.0001)  Total Nb of available Diagnostics: ndiagt=   300
(PID.TID 0000.0001)  write list of available Diagnostics to file: available_diagnostics.log
(PID.TID 0000.0001) SETDIAG: Allocate  1 x  1 Levels for Diagnostic #    86 oceQnet
(PID.TID 0000.0001) SETDIAG: Allocate  1 x  1 Levels for Diagnostic #    87 oceQsw
(PID.TID 0000.0001) SETDIAG: Allocate  1 x  1 Levels for Diagnostic #    84 oceFWflx
(PID.TID 0000.0001) SETDIAG: Allocate  1 x  1 Levels for Diagnostic #    85 oceSflux
(PID.TID 0000.0001) SETDIAG: Allocate  1 x  1 Levels for Diagnostic #    80 oceTAUX
(PID.TID 0000.0001) SETDIAG: Allocate  1 x  1 Levels for Diagnostic #    81 oceTAUY
(PID.TID 0000.0001) SETDIAG: Allocate 50 x  1 Levels for Diagnostic #    26 THETA
(PID.TID 0000.0001) SETDIAG: Allocate 50 x  1 Levels for Diagnostic #    27 SALT
(PID.TID 0000.0001) SETDIAG: Allocate 50 x  1 Levels for Diagnostic #    30 UVEL
(PID.TID 0000.0001) SETDIAG: Allocate 50 x  1 Levels for Diagnostic #    31 VVEL
(PID.TID 0000.0001) SETDIAG: Allocate  1 x  1 Levels for Diagnostic #   214 SIarea
(PID.TID 0000.0001) SETDIAG: Allocate  1 x  1 Levels for Diagnostic #   217 SIheff
(PID.TID 0000.0001) SETDIAG: Allocate  1 x  1 Levels for Diagnostic #   219 SIhsnow
(PID.TID 0000.0001) SETDIAG: Allocate  1 x  1 Levels for Diagnostic #    83 sIceLoad
(PID.TID 0000.0001) SETDIAG: Allocate  1 x  1 Levels for Diagnostic #   223 SIuice
(PID.TID 0000.0001) SETDIAG: Allocate  1 x  1 Levels for Diagnostic #   224 SIvice
(PID.TID 0000.0001) SETDIAG: Allocate  1 x  1 Levels for Diagnostic #   225 SItaux
(PID.TID 0000.0001) SETDIAG: Allocate  1 x  1 Levels for Diagnostic #   226 SItauy
(PID.TID 0000.0001) SETDIAG: Allocate  5 x  1 Levels for Diagnostic #   285 SIareaN
(PID.TID 0000.0001) SETDIAG: Allocate  5 x  1 Levels for Diagnostic #   284 SIheffN
(PID.TID 0000.0001) SETDIAG: Allocate  5 x  1 Levels for Diagnostic #   286 SIhsnowN
(PID.TID 0000.0001) SETDIAG: Allocate  5 x  1 Levels for Diagnostic #   290 SIqSnow
(PID.TID 0000.0001) SETDIAG: Allocate  5 x  1 Levels for Diagnostic #   291 SImeltPd
(PID.TID 0000.0001) SETDIAG: Allocate  5 x  1 Levels for Diagnostic #   288 SItIces
(PID.TID 0000.0001) SETDIAG: Allocate  5 x  1 Levels for Diagnostic #   292 SIiceAge
(PID.TID 0000.0001) SETDIAG: Allocate  5 x  1 Levels for Diagnostic #   293 SI_dArea
(PID.TID 0000.0001) SETDIAG: Allocate  5 x  1 Levels for Diagnostic #   294 SI_dHeff
(PID.TID 0000.0001) SETDIAG: Allocate  5 x  1 Levels for Diagnostic #   295 SI_dHsnw
(PID.TID 0000.0001) SETDIAG: Allocate  5 x  1 Levels for Diagnostic #   298 SI_dQSnw
(PID.TID 0000.0001) SETDIAG: Allocate 20 x  1 Levels for Diagnostic #   289 SIqIce
(PID.TID 0000.0001) SETDIAG: Allocate 20 x  1 Levels for Diagnostic #   297 SI_dQIce
(PID.TID 0000.0001) SETDIAG: Allocate  5 x  1 Levels for Diagnostic #   290 SIqSnow
(PID.TID 0000.0001) SETDIAG: Allocate  5 x  1 Levels for Diagnostic #   298 SI_dQSnw
(PID.TID 0000.0001)   space allocated for all diagnostics:     319 levels
(PID.TID 0000.0001)   set mate pointer for diag #    80  oceTAUX  , Parms: UU      U1 , mate:    81
(PID.TID 0000.0001)   set mate pointer for diag #    81  oceTAUY  , Parms: VV      U1 , mate:    80
(PID.TID 0000.0001)   set mate pointer for diag #    30  UVEL     , Parms: UUR     MR , mate:    31
(PID.TID 0000.0001)   set mate pointer for diag #    31  VVEL     , Parms: VVR     MR , mate:    30
(PID.TID 0000.0001)   set mate pointer for diag #   223  SIuice   , Parms: UU      M1 , mate:   224
(PID.TID 0000.0001)   set mate pointer for diag #   224  SIvice   , Parms: VV      M1 , mate:   223
(PID.TID 0000.0001)   set mate pointer for diag #   225  SItaux   , Parms: UU      U1 , mate:   226
(PID.TID 0000.0001)   set mate pointer for diag #   226  SItauy   , Parms: VV      U1 , mate:   225
(PID.TID 0000.0001) DIAGNOSTICS_SET_POINTERS: Set levels for Outp.Stream: surfDiag
(PID.TID 0000.0001)  Levels:       1.
(PID.TID 0000.0001) DIAGNOSTICS_SET_POINTERS: Set levels for Outp.Stream: iceDiag
(PID.TID 0000.0001)  Levels:       1.
(PID.TID 0000.0001) DIAGNOSTICS_SET_POINTERS: Set levels for Outp.Stream: iceNcat
(PID.TID 0000.0001)  Levels:       1.   2.   3.   4.   5.
(PID.TID 0000.0001) DIAGNOSTICS_SET_POINTERS: Set levels for Outp.Stream: iceEnerg
(PID.TID 0000.0001)  Levels:       1.   2.   3.   4.   5.   6.   7.   8.   9.  10.  11.  12.  13.  14.  15.  16.  17.  18.  19.  20.
(PID.TID 0000.0001) DIAGNOSTICS_SET_POINTERS: Set levels for Outp.Stream: snowEnerg
(PID.TID 0000.0001)  Levels:       1.   2.   3.   4.   5.
(PID.TID 0000.0001) DIAGNOSTICS_SET_POINTERS: done
(PID.TID 0000.0001) ------------------------------------------------------------
(PID.TID 0000.0001) DIAGSTATS_SET_REGIONS: define   0 regions:
(PID.TID 0000.0001) ------------------------------------------------------------
(PID.TID 0000.0001) SETDIAG: Allocate  1 Levels for Stats-Diag #   214 SIarea
(PID.TID 0000.0001) SETDIAG: Allocate  1 Levels for Stats-Diag #   217 SIheff
(PID.TID 0000.0001) SETDIAG: Allocate  1 Levels for Stats-Diag #   219 SIhsnow
(PID.TID 0000.0001) SETDIAG: Allocate  1 Levels for Stats-Diag #    83 sIceLoad
(PID.TID 0000.0001) SETDIAG: Allocate  1 Levels for Stats-Diag #   223 SIuice
(PID.TID 0000.0001) SETDIAG: Allocate  1 Levels for Stats-Diag #   224 SIvice
(PID.TID 0000.0001) SETDIAG: Allocate  1 Levels for Stats-Diag #   225 SItaux
(PID.TID 0000.0001) SETDIAG: Allocate  1 Levels for Stats-Diag #   226 SItauy
(PID.TID 0000.0001) SETDIAG: Allocate  5 Levels for Stats-Diag #   285 SIareaN
(PID.TID 0000.0001) SETDIAG: Allocate  5 Levels for Stats-Diag #   284 SIheffN
(PID.TID 0000.0001) SETDIAG: Allocate  5 Levels for Stats-Diag #   286 SIhsnowN
(PID.TID 0000.0001) SETDIAG: Allocate  5 Levels for Stats-Diag #   290 SIqSnow
(PID.TID 0000.0001) SETDIAG: Allocate 20 Levels for Stats-Diag #   289 SIqIce
(PID.TID 0000.0001) SETDIAG: Allocate  5 Levels for Stats-Diag #   291 SImeltPd
(PID.TID 0000.0001) SETDIAG: Allocate  5 Levels for Stats-Diag #   288 SItIces
(PID.TID 0000.0001) SETDIAG: Allocate  5 Levels for Stats-Diag #   292 SIiceAge
(PID.TID 0000.0001) SETDIAG: Allocate  5 Levels for Stats-Diag #   293 SI_dArea
(PID.TID 0000.0001) SETDIAG: Allocate  5 Levels for Stats-Diag #   294 SI_dHeff
(PID.TID 0000.0001) SETDIAG: Allocate  5 Levels for Stats-Diag #   295 SI_dHsnw
(PID.TID 0000.0001) SETDIAG: Allocate  5 Levels for Stats-Diag #   298 SI_dQSnw
(PID.TID 0000.0001) SETDIAG: Allocate 20 Levels for Stats-Diag #   297 SI_dQIce
(PID.TID 0000.0001)   space allocated for all stats-diags:     103 levels
(PID.TID 0000.0001) DIAGSTATS_SET_POINTERS: done
(PID.TID 0000.0001) ------------------------------------------------------------
(PID.TID 0000.0001) DIAGSTATS_INI_IO: open file: iceStDiag.0000000001.txt , unit=    37
(PID.TID 0000.0001) INI_GLOBAL_DOMAIN: Found   0 CS-corner Pts in the domain
(PID.TID 0000.0001) %MON fCori_max                    =   1.4584096177006E-04
(PID.TID 0000.0001) %MON fCori_min                    =  -1.4429171327635E-04
(PID.TID 0000.0001) %MON fCori_mean                   =  -1.9531894197173E-06
(PID.TID 0000.0001) %MON fCori_sd                     =   1.0434730642309E-04
(PID.TID 0000.0001) %MON fCoriG_max                   =   1.4584247033981E-04
(PID.TID 0000.0001) %MON fCoriG_min                   =  -1.4435339896041E-04
(PID.TID 0000.0001) %MON fCoriG_mean                  =  -1.9303770726087E-06
(PID.TID 0000.0001) %MON fCoriG_sd                    =   1.0435958182593E-04
(PID.TID 0000.0001) %MON fCoriCos_max                 =   1.4584158744890E-04
(PID.TID 0000.0001) %MON fCoriCos_min                 =   6.6334365221135E-07
(PID.TID 0000.0001) %MON fCoriCos_mean                =   9.3876998486639E-05
(PID.TID 0000.0001) %MON fCoriCos_sd                  =   3.9559575367967E-05
(PID.TID 0000.0001) INI_CG2D: CG2D normalisation factor =  7.1522409280111305E-05
(PID.TID 0000.0001) INI_CG2D: cg2dTolerance = 2.845112656120382E-05 (Area=3.5801386115E+14)
(PID.TID 0000.0001) 
(PID.TID 0000.0001) // =======================================================
(PID.TID 0000.0001) // Model configuration
(PID.TID 0000.0001) // =======================================================
(PID.TID 0000.0001) //
(PID.TID 0000.0001) // "Physical" paramters ( PARM01 in namelist )
(PID.TID 0000.0001) //
(PID.TID 0000.0001) buoyancyRelation = /* Type of relation to get Buoyancy */
(PID.TID 0000.0001)               'OCEANIC'
(PID.TID 0000.0001)     ;
(PID.TID 0000.0001) fluidIsAir   =  /* fluid major constituent is Air */
(PID.TID 0000.0001)                   F
(PID.TID 0000.0001)     ;
(PID.TID 0000.0001) fluidIsWater =  /* fluid major constituent is Water */
(PID.TID 0000.0001)                   T
(PID.TID 0000.0001)     ;
(PID.TID 0000.0001) usingPCoords =  /* use p (or p*) vertical coordinate */
(PID.TID 0000.0001)                   F
(PID.TID 0000.0001)     ;
(PID.TID 0000.0001) usingZCoords =  /* use z (or z*) vertical coordinate */
(PID.TID 0000.0001)                   T
(PID.TID 0000.0001)     ;
(PID.TID 0000.0001) tRef =   /* Reference temperature profile ( oC or K ) */
(PID.TID 0000.0001)     3 @  2.300000000000000E+01,             /* K =  1:  3 */
(PID.TID 0000.0001)     3 @  2.200000000000000E+01,             /* K =  4:  6 */
(PID.TID 0000.0001)                 2.100000000000000E+01,      /* K =  7 */
(PID.TID 0000.0001)     2 @  2.000000000000000E+01,             /* K =  8:  9 */
(PID.TID 0000.0001)                 1.900000000000000E+01,      /* K = 10 */
(PID.TID 0000.0001)     2 @  1.800000000000000E+01,             /* K = 11: 12 */
(PID.TID 0000.0001)                 1.700000000000000E+01,      /* K = 13 */
(PID.TID 0000.0001)     2 @  1.600000000000000E+01,             /* K = 14: 15 */
(PID.TID 0000.0001)                 1.500000000000000E+01,      /* K = 16 */
(PID.TID 0000.0001)                 1.400000000000000E+01,      /* K = 17 */
(PID.TID 0000.0001)                 1.300000000000000E+01,      /* K = 18 */
(PID.TID 0000.0001)                 1.200000000000000E+01,      /* K = 19 */
(PID.TID 0000.0001)                 1.100000000000000E+01,      /* K = 20 */
(PID.TID 0000.0001)     2 @  9.000000000000000E+00,             /* K = 21: 22 */
(PID.TID 0000.0001)                 8.000000000000000E+00,      /* K = 23 */
(PID.TID 0000.0001)                 7.000000000000000E+00,      /* K = 24 */
(PID.TID 0000.0001)     2 @  6.000000000000000E+00,             /* K = 25: 26 */
(PID.TID 0000.0001)     2 @  5.000000000000000E+00,             /* K = 27: 28 */
(PID.TID 0000.0001)     3 @  4.000000000000000E+00,             /* K = 29: 31 */
(PID.TID 0000.0001)     3 @  3.000000000000000E+00,             /* K = 32: 34 */
(PID.TID 0000.0001)     4 @  2.000000000000000E+00,             /* K = 35: 38 */
(PID.TID 0000.0001)    12 @  1.000000000000000E+00              /* K = 39: 50 */
(PID.TID 0000.0001)     ;
(PID.TID 0000.0001) sRef =   /* Reference salinity profile ( psu ) */
(PID.TID 0000.0001)    50 @  3.450000000000000E+01              /* K =  1: 50 */
(PID.TID 0000.0001)     ;
(PID.TID 0000.0001) useStrainTensionVisc= /* Use StrainTension Form of Viscous Operator */
(PID.TID 0000.0001)                   F
(PID.TID 0000.0001)     ;
(PID.TID 0000.0001) useVariableVisc = /* Use variable horizontal viscosity */
(PID.TID 0000.0001)                   T
(PID.TID 0000.0001)     ;
(PID.TID 0000.0001) useHarmonicVisc = /* Use harmonic horizontal viscosity */
(PID.TID 0000.0001)                   T
(PID.TID 0000.0001)     ;
(PID.TID 0000.0001) useBiharmonicVisc= /* Use biharmonic horiz.  viscosity */
(PID.TID 0000.0001)                   T
(PID.TID 0000.0001)     ;
(PID.TID 0000.0001) useSmag3D = /* Use isotropic 3-D Smagorinsky viscosity */
(PID.TID 0000.0001)                   F
(PID.TID 0000.0001)     ;
(PID.TID 0000.0001) viscAh  =   /* Lateral harmonic viscosity ( m^2/s ) */
(PID.TID 0000.0001)                 1.000000000000000E+00
(PID.TID 0000.0001)     ;
(PID.TID 0000.0001) viscAhMax = /* Maximum lateral harmonic viscosity ( m^2/s ) */
(PID.TID 0000.0001)                 1.000000000000000E+21
(PID.TID 0000.0001)     ;
(PID.TID 0000.0001) viscAhGrid = /* Grid dependent lateral harmonic viscosity ( non-dim. ) */
(PID.TID 0000.0001)                 2.000000000000000E-02
(PID.TID 0000.0001)     ;
(PID.TID 0000.0001) useFullLeith = /* Use Full Form of Leith Viscosity on/off flag*/
(PID.TID 0000.0001)                   F
(PID.TID 0000.0001)     ;
(PID.TID 0000.0001) useAreaViscLength = /* Use area for visc length instead of geom. mean*/
(PID.TID 0000.0001)                   F
(PID.TID 0000.0001)     ;
(PID.TID 0000.0001) viscC2leith = /* Leith harmonic visc. factor (on grad(vort),non-dim.) */
(PID.TID 0000.0001)                 0.000000000000000E+00
(PID.TID 0000.0001)     ;
(PID.TID 0000.0001) viscC2leithD = /* Leith harmonic viscosity factor (on grad(div),non-dim.)*/
(PID.TID 0000.0001)                 0.000000000000000E+00
(PID.TID 0000.0001)     ;
(PID.TID 0000.0001) viscC2smag = /* Smagorinsky harmonic viscosity factor (non-dim.) */
(PID.TID 0000.0001)                 0.000000000000000E+00
(PID.TID 0000.0001)     ;
(PID.TID 0000.0001) viscA4  =   /* Lateral biharmonic viscosity ( m^4/s ) */
(PID.TID 0000.0001)                 0.000000000000000E+00
(PID.TID 0000.0001)     ;
(PID.TID 0000.0001) viscA4Max = /* Maximum biharmonic viscosity ( m^2/s ) */
(PID.TID 0000.0001)                 1.000000000000000E+21
(PID.TID 0000.0001)     ;
(PID.TID 0000.0001) viscA4Grid = /* Grid dependent biharmonic viscosity ( non-dim. ) */
(PID.TID 0000.0001)                 0.000000000000000E+00
(PID.TID 0000.0001)     ;
(PID.TID 0000.0001) viscC4leith = /* Leith biharm viscosity factor (on grad(vort), non-dim.)*/
(PID.TID 0000.0001)                 0.000000000000000E+00
(PID.TID 0000.0001)     ;
(PID.TID 0000.0001) viscC4leithD = /* Leith biharm viscosity factor (on grad(div), non-dim.) */
(PID.TID 0000.0001)                 0.000000000000000E+00
(PID.TID 0000.0001)     ;
(PID.TID 0000.0001) viscC4Smag = /* Smagorinsky biharm viscosity factor (non-dim) */
(PID.TID 0000.0001)                 0.000000000000000E+00
(PID.TID 0000.0001)     ;
(PID.TID 0000.0001) no_slip_sides =  /* Viscous BCs: No-slip sides */
(PID.TID 0000.0001)                   T
(PID.TID 0000.0001)     ;
(PID.TID 0000.0001) sideDragFactor = /* side-drag scaling factor (non-dim) */
(PID.TID 0000.0001)                 2.000000000000000E+00
(PID.TID 0000.0001)     ;
(PID.TID 0000.0001) viscArNr = /* vertical profile of vertical viscosity ( m^2/s )*/
(PID.TID 0000.0001)    50 @  5.000000000000000E-05              /* K =  1: 50 */
(PID.TID 0000.0001)     ;
(PID.TID 0000.0001) no_slip_bottom =  /* Viscous BCs: No-slip bottom */
(PID.TID 0000.0001)                   T
(PID.TID 0000.0001)     ;
(PID.TID 0000.0001) bottomVisc_pCell = /* Partial-cell in bottom Visc. BC */
(PID.TID 0000.0001)                   F
(PID.TID 0000.0001)     ;
(PID.TID 0000.0001) bottomDragLinear = /* linear bottom-drag coefficient ( m/s ) */
(PID.TID 0000.0001)                 0.000000000000000E+00
(PID.TID 0000.0001)     ;
(PID.TID 0000.0001) bottomDragQuadratic = /* quadratic bottom-drag coefficient (-) */
(PID.TID 0000.0001)                 1.000000000000000E-03
(PID.TID 0000.0001)     ;
(PID.TID 0000.0001) selectBotDragQuadr = /* select quadratic bottom drag options */
(PID.TID 0000.0001)                       0
(PID.TID 0000.0001)     ;
(PID.TID 0000.0001) diffKhT =   /* Laplacian diffusion of heat laterally ( m^2/s ) */
(PID.TID 0000.0001)                 1.000000000000000E+01
(PID.TID 0000.0001)     ;
(PID.TID 0000.0001) diffK4T =   /* Biharmonic diffusion of heat laterally ( m^4/s ) */
(PID.TID 0000.0001)                 0.000000000000000E+00
(PID.TID 0000.0001)     ;
(PID.TID 0000.0001) diffKhS =   /* Laplacian diffusion of salt laterally ( m^2/s ) */
(PID.TID 0000.0001)                 1.000000000000000E+01
(PID.TID 0000.0001)     ;
(PID.TID 0000.0001) diffK4S =   /* Biharmonic diffusion of salt laterally ( m^4/s ) */
(PID.TID 0000.0001)                 0.000000000000000E+00
(PID.TID 0000.0001)     ;
(PID.TID 0000.0001) diffKrNrT = /* vertical profile of vertical diffusion of Temp ( m^2/s )*/
(PID.TID 0000.0001)    50 @  1.000000000000000E-05              /* K =  1: 50 */
(PID.TID 0000.0001)     ;
(PID.TID 0000.0001) diffKrNrS = /* vertical profile of vertical diffusion of Salt ( m^2/s )*/
(PID.TID 0000.0001)    50 @  1.000000000000000E-05              /* K =  1: 50 */
(PID.TID 0000.0001)     ;
(PID.TID 0000.0001) diffKrBL79surf = /* Surface diffusion for Bryan and Lewis 79 ( m^2/s ) */
(PID.TID 0000.0001)                 0.000000000000000E+00
(PID.TID 0000.0001)     ;
(PID.TID 0000.0001) diffKrBL79deep = /* Deep diffusion for Bryan and Lewis 1979 ( m^2/s ) */
(PID.TID 0000.0001)                 0.000000000000000E+00
(PID.TID 0000.0001)     ;
(PID.TID 0000.0001) diffKrBL79scl = /* Depth scale for Bryan and Lewis 1979 ( m ) */
(PID.TID 0000.0001)                 2.000000000000000E+02
(PID.TID 0000.0001)     ;
(PID.TID 0000.0001) diffKrBL79Ho = /* Turning depth for Bryan and Lewis 1979 ( m ) */
(PID.TID 0000.0001)                -2.000000000000000E+03
(PID.TID 0000.0001)     ;
(PID.TID 0000.0001) ivdc_kappa = /* Implicit Vertical Diffusivity for Convection ( m^2/s) */
(PID.TID 0000.0001)                 1.000000000000000E+01
(PID.TID 0000.0001)     ;
(PID.TID 0000.0001) hMixCriteria=  /* Criteria for mixed-layer diagnostic */
(PID.TID 0000.0001)                -8.000000000000000E-01
(PID.TID 0000.0001)     ;
(PID.TID 0000.0001) dRhoSmall =  /* Parameter for mixed-layer diagnostic */
(PID.TID 0000.0001)                 1.000000000000000E-06
(PID.TID 0000.0001)     ;
(PID.TID 0000.0001) hMixSmooth=  /* Smoothing parameter for mixed-layer diagnostic */
(PID.TID 0000.0001)                 0.000000000000000E+00
(PID.TID 0000.0001)     ;
(PID.TID 0000.0001) eosType =  /* Type of Equation of State */
(PID.TID 0000.0001)               'JMD95Z'
(PID.TID 0000.0001)     ;
(PID.TID 0000.0001) selectP_inEOS_Zc = /* select pressure to use in EOS (0,1,2,3) */
(PID.TID 0000.0001)                       0
(PID.TID 0000.0001)     0= -g*rhoConst*z ; 1= pRef (from tRef,sRef); 2= Hyd P ; 3= Hyd+NH P
(PID.TID 0000.0001)     ;
(PID.TID 0000.0001) HeatCapacity_Cp =  /* Specific heat capacity ( J/kg/K ) */
(PID.TID 0000.0001)                 3.994000000000000E+03
(PID.TID 0000.0001)     ;
(PID.TID 0000.0001) celsius2K = /* 0 degree Celsius converted to Kelvin ( K ) */
(PID.TID 0000.0001)                 2.731500000000000E+02
(PID.TID 0000.0001)     ;
(PID.TID 0000.0001) rhoConst  = /* Reference density (Boussinesq)  ( kg/m^3 ) */
(PID.TID 0000.0001)                 1.029000000000000E+03
(PID.TID 0000.0001)     ;
(PID.TID 0000.0001) rhoFacC = /* normalized Reference density @ cell-Center (-) */
(PID.TID 0000.0001)    50 @  1.000000000000000E+00              /* K =  1: 50 */
(PID.TID 0000.0001)     ;
(PID.TID 0000.0001) rhoFacF = /* normalized Reference density @ W-Interface (-) */
(PID.TID 0000.0001)    51 @  1.000000000000000E+00              /* K =  1: 51 */
(PID.TID 0000.0001)     ;
(PID.TID 0000.0001) rhoConstFresh = /* Fresh-water reference density ( kg/m^3 ) */
(PID.TID 0000.0001)                 1.000000000000000E+03
(PID.TID 0000.0001)     ;
(PID.TID 0000.0001) gravity =   /* Gravitational acceleration ( m/s^2 ) */
(PID.TID 0000.0001)                 9.810000000000000E+00
(PID.TID 0000.0001)     ;
(PID.TID 0000.0001) gBaro =   /* Barotropic gravity ( m/s^2 ) */
(PID.TID 0000.0001)                 9.810000000000000E+00
(PID.TID 0000.0001)     ;
(PID.TID 0000.0001) gravFacC = /* gravity factor (vs surf.) @ cell-Center (-) */
(PID.TID 0000.0001)    50 @  1.000000000000000E+00              /* K =  1: 50 */
(PID.TID 0000.0001)     ;
(PID.TID 0000.0001) gravFacF = /* gravity factor (vs surf.) @ W-Interface (-) */
(PID.TID 0000.0001)    51 @  1.000000000000000E+00              /* K =  1: 51 */
(PID.TID 0000.0001)     ;
(PID.TID 0000.0001) rotationPeriod =   /* Rotation Period ( s ) */
(PID.TID 0000.0001)                 8.616400000000000E+04
(PID.TID 0000.0001)     ;
(PID.TID 0000.0001) omega =   /* Angular velocity ( rad/s ) */
(PID.TID 0000.0001)                 7.292123516990375E-05
(PID.TID 0000.0001)     ;
(PID.TID 0000.0001) f0 =   /* Reference coriolis parameter ( 1/s ) */
(PID.TID 0000.0001)                 1.000000000000000E-04
(PID.TID 0000.0001)     ;
(PID.TID 0000.0001) beta =   /* Beta ( 1/(m.s) ) */
(PID.TID 0000.0001)                 9.999999999999999E-12
(PID.TID 0000.0001)     ;
(PID.TID 0000.0001) fPrime =   /* Second coriolis parameter ( 1/s ) */
(PID.TID 0000.0001)                 0.000000000000000E+00
(PID.TID 0000.0001)     ;
(PID.TID 0000.0001) rigidLid =   /* Rigid lid on/off flag */
(PID.TID 0000.0001)                   F
(PID.TID 0000.0001)     ;
(PID.TID 0000.0001) implicitFreeSurface =   /* Implicit free surface on/off flag */
(PID.TID 0000.0001)                   T
(PID.TID 0000.0001)     ;
(PID.TID 0000.0001) freeSurfFac =   /* Implicit free surface factor */
(PID.TID 0000.0001)                 1.000000000000000E+00
(PID.TID 0000.0001)     ;
(PID.TID 0000.0001) implicSurfPress =  /* Surface Pressure implicit factor (0-1)*/
(PID.TID 0000.0001)                 1.000000000000000E+00
(PID.TID 0000.0001)     ;
(PID.TID 0000.0001) implicDiv2DFlow =  /* Barot. Flow Div. implicit factor (0-1)*/
(PID.TID 0000.0001)                 1.000000000000000E+00
(PID.TID 0000.0001)     ;
(PID.TID 0000.0001) uniformLin_PhiSurf = /* use uniform Bo_surf on/off flag*/
(PID.TID 0000.0001)                   T
(PID.TID 0000.0001)     ;
(PID.TID 0000.0001) uniformFreeSurfLev = /* free-surface level-index is uniform */
(PID.TID 0000.0001)                   T
(PID.TID 0000.0001)     ;
(PID.TID 0000.0001) hFacMin =   /* minimum partial cell factor (hFac) */
(PID.TID 0000.0001)                 2.000000000000000E-01
(PID.TID 0000.0001)     ;
(PID.TID 0000.0001) hFacMinDr = /* minimum partial cell thickness ( m) */
(PID.TID 0000.0001)                 5.000000000000000E+00
(PID.TID 0000.0001)     ;
(PID.TID 0000.0001) exactConserv =  /* Exact Volume Conservation on/off flag*/
(PID.TID 0000.0001)                   T
(PID.TID 0000.0001)     ;
(PID.TID 0000.0001) linFSConserveTr = /* Tracer correction for Lin Free Surface on/off flag*/
(PID.TID 0000.0001)                   F
(PID.TID 0000.0001)     ;
(PID.TID 0000.0001) nonlinFreeSurf = /* Non-linear Free Surf. options (-1,0,1,2,3)*/
(PID.TID 0000.0001)                       4
(PID.TID 0000.0001)      -1,0= Off ; 1,2,3= On, 2=+rescale gU,gV, 3=+update cg2d solv.
(PID.TID 0000.0001)     ;
(PID.TID 0000.0001) hFacInf =   /* lower threshold for hFac (nonlinFreeSurf only)*/
(PID.TID 0000.0001)                 2.000000000000000E-01
(PID.TID 0000.0001)     ;
(PID.TID 0000.0001) hFacSup =   /* upper threshold for hFac (nonlinFreeSurf only)*/
(PID.TID 0000.0001)                 2.000000000000000E+00
(PID.TID 0000.0001)     ;
(PID.TID 0000.0001) select_rStar = /* r* Vertical coord. options (=0 r coord.; >0 uses r*)*/
(PID.TID 0000.0001)                       2
(PID.TID 0000.0001)     ;
(PID.TID 0000.0001) useRealFreshWaterFlux = /* Real Fresh Water Flux on/off flag*/
(PID.TID 0000.0001)                   T
(PID.TID 0000.0001)     ;
(PID.TID 0000.0001) temp_EvPrRn = /* Temp. of Evap/Prec/R (UNSET=use local T)(oC)*/
(PID.TID 0000.0001)                 1.234567000000000E+05
(PID.TID 0000.0001)     ;
(PID.TID 0000.0001) salt_EvPrRn = /* Salin. of Evap/Prec/R (UNSET=use local S)(psu)*/
(PID.TID 0000.0001)                 0.000000000000000E+00
(PID.TID 0000.0001)     ;
(PID.TID 0000.0001) selectAddFluid = /* option for mass source/sink of fluid (=0: off) */
(PID.TID 0000.0001)                       0
(PID.TID 0000.0001)     ;
(PID.TID 0000.0001) temp_addMass = /* Temp. of addMass array (UNSET=use local T)(oC)*/
(PID.TID 0000.0001)                 1.234567000000000E+05
(PID.TID 0000.0001)     ;
(PID.TID 0000.0001) salt_addMass = /* Salin. of addMass array (UNSET=use local S)(psu)*/
(PID.TID 0000.0001)                 0.000000000000000E+00
(PID.TID 0000.0001)     ;
(PID.TID 0000.0001) use3Dsolver = /* use 3-D pressure solver on/off flag */
(PID.TID 0000.0001)                   F
(PID.TID 0000.0001)     ;
(PID.TID 0000.0001) nonHydrostatic =  /* Non-Hydrostatic on/off flag */
(PID.TID 0000.0001)                   F
(PID.TID 0000.0001)     ;
(PID.TID 0000.0001) nh_Am2 = /* Non-Hydrostatic terms scaling factor */
(PID.TID 0000.0001)                 1.000000000000000E+00
(PID.TID 0000.0001)     ;
(PID.TID 0000.0001) implicitNHPress = /* Non-Hyd Pressure implicit factor (0-1)*/
(PID.TID 0000.0001)                 1.000000000000000E+00
(PID.TID 0000.0001)     ;
(PID.TID 0000.0001) selectNHfreeSurf = /* Non-Hyd (free-)Surface option */
(PID.TID 0000.0001)                       0
(PID.TID 0000.0001)     ;
(PID.TID 0000.0001) quasiHydrostatic = /* Quasi-Hydrostatic on/off flag */
(PID.TID 0000.0001)                   F
(PID.TID 0000.0001)     ;
(PID.TID 0000.0001) calc_wVelocity = /* vertical velocity calculation on/off flag */
(PID.TID 0000.0001)                   T
(PID.TID 0000.0001)     ;
(PID.TID 0000.0001) momStepping =  /* Momentum equation on/off flag */
(PID.TID 0000.0001)                   T
(PID.TID 0000.0001)     ;
(PID.TID 0000.0001) vectorInvariantMomentum= /* Vector-Invariant Momentum on/off */
(PID.TID 0000.0001)                   T
(PID.TID 0000.0001)     ;
(PID.TID 0000.0001) momAdvection =  /* Momentum advection on/off flag */
(PID.TID 0000.0001)                   T
(PID.TID 0000.0001)     ;
(PID.TID 0000.0001) momViscosity =  /* Momentum viscosity on/off flag */
(PID.TID 0000.0001)                   T
(PID.TID 0000.0001)     ;
(PID.TID 0000.0001) momImplVertAdv= /* Momentum implicit vert. advection on/off*/
(PID.TID 0000.0001)                   F
(PID.TID 0000.0001)     ;
(PID.TID 0000.0001) implicitViscosity = /* Implicit viscosity on/off flag */
(PID.TID 0000.0001)                   T
(PID.TID 0000.0001)     ;
(PID.TID 0000.0001) selectImplicitDrag= /* Implicit bot Drag options (0,1,2)*/
(PID.TID 0000.0001)                       0
(PID.TID 0000.0001)     0= Expl. ; 1= Impl. on provis. Vel ; 2= Fully Impl (with surf.P)
(PID.TID 0000.0001)     ;
(PID.TID 0000.0001) metricTerms =  /* metric-Terms on/off flag */
(PID.TID 0000.0001)                   F
(PID.TID 0000.0001)     ;
(PID.TID 0000.0001) useNHMTerms = /* Non-Hydrostatic Metric-Terms on/off */
(PID.TID 0000.0001)                   F
(PID.TID 0000.0001)     ;
(PID.TID 0000.0001) selectCoriMap = /* Coriolis Map options (0,1,2,3)*/
(PID.TID 0000.0001)                       2
(PID.TID 0000.0001)     0= f-Plane ; 1= Beta-Plane ; 2= Spherical ; 3= read from file
(PID.TID 0000.0001)     ;
(PID.TID 0000.0001) use3dCoriolis = /* 3-D Coriolis on/off flag */
(PID.TID 0000.0001)                   F
(PID.TID 0000.0001)     ;
(PID.TID 0000.0001) useCoriolis =  /* Coriolis on/off flag */
(PID.TID 0000.0001)                   T
(PID.TID 0000.0001)     ;
(PID.TID 0000.0001) useCDscheme =  /* CD scheme on/off flag */
(PID.TID 0000.0001)                   F
(PID.TID 0000.0001)     ;
(PID.TID 0000.0001) useEnergyConservingCoriolis= /* Flx-Form Coriolis scheme flag */
(PID.TID 0000.0001)                   F
(PID.TID 0000.0001)     ;
(PID.TID 0000.0001) useJamartWetPoints= /* Coriolis WetPoints method flag */
(PID.TID 0000.0001)                   T
(PID.TID 0000.0001)     ;
(PID.TID 0000.0001) useJamartMomAdv= /* V.I Non-linear terms Jamart flag */
(PID.TID 0000.0001)                   F
(PID.TID 0000.0001)     ;
(PID.TID 0000.0001) useAbsVorticity= /* V.I Works with f+zeta in Coriolis */
(PID.TID 0000.0001)                   F
(PID.TID 0000.0001)     ;
(PID.TID 0000.0001) selectVortScheme= /* V.I Scheme selector for Vorticity-Term */
(PID.TID 0000.0001)                       1
(PID.TID 0000.0001)    = 0 : enstrophy (Shallow-Water Eq.) conserving scheme by Sadourny, JAS 75
(PID.TID 0000.0001)    = 1 : same as 0 with modified hFac
(PID.TID 0000.0001)    = 2 : energy conserving scheme (used by Sadourny in JAS 75 paper)
(PID.TID 0000.0001)    = 3 : energy (general) and enstrophy (2D, nonDiv.) conserving scheme
(PID.TID 0000.0001)          from Sadourny (Burridge & Haseler, ECMWF Rep.4, 1977)
(PID.TID 0000.0001)     ;
(PID.TID 0000.0001) upwindVorticity= /* V.I Upwind bias vorticity flag */
(PID.TID 0000.0001)                   F
(PID.TID 0000.0001)     ;
(PID.TID 0000.0001) highOrderVorticity= /* V.I High order vort. advect. flag */
(PID.TID 0000.0001)                   F
(PID.TID 0000.0001)     ;
(PID.TID 0000.0001) upwindShear= /* V.I Upwind vertical Shear advection flag */
(PID.TID 0000.0001)                   F
(PID.TID 0000.0001)     ;
(PID.TID 0000.0001) selectKEscheme= /* V.I Kinetic Energy scheme selector */
(PID.TID 0000.0001)                       0
(PID.TID 0000.0001)     ;
(PID.TID 0000.0001) momForcing =  /* Momentum forcing on/off flag */
(PID.TID 0000.0001)                   T
(PID.TID 0000.0001)     ;
(PID.TID 0000.0001) momTidalForcing = /* Momentum Tidal forcing on/off flag */
(PID.TID 0000.0001)                   T
(PID.TID 0000.0001)     ;
(PID.TID 0000.0001) momPressureForcing =  /* Momentum pressure term on/off flag */
(PID.TID 0000.0001)                   T
(PID.TID 0000.0001)     ;
(PID.TID 0000.0001) implicitIntGravWave= /* Implicit Internal Gravity Wave flag */
(PID.TID 0000.0001)                   F
(PID.TID 0000.0001)     ;
(PID.TID 0000.0001) staggerTimeStep =    /* Stagger time stepping on/off flag */
(PID.TID 0000.0001)                   T
(PID.TID 0000.0001)     ;
(PID.TID 0000.0001) doResetHFactors = /* reset thickness factors @ each time-step */
(PID.TID 0000.0001)                   F
(PID.TID 0000.0001)     ;
(PID.TID 0000.0001) multiDimAdvection =  /* enable/disable Multi-Dim Advection */
(PID.TID 0000.0001)                   T
(PID.TID 0000.0001)     ;
(PID.TID 0000.0001) useMultiDimAdvec =   /* Multi-Dim Advection is/is-not used */
(PID.TID 0000.0001)                   T
(PID.TID 0000.0001)     ;
(PID.TID 0000.0001) implicitDiffusion = /* Implicit Diffusion on/off flag */
(PID.TID 0000.0001)                   T
(PID.TID 0000.0001)     ;
(PID.TID 0000.0001) tempStepping =  /* Temperature equation on/off flag */
(PID.TID 0000.0001)                   T
(PID.TID 0000.0001)     ;
(PID.TID 0000.0001) tempAdvection = /* Temperature advection on/off flag */
(PID.TID 0000.0001)                   T
(PID.TID 0000.0001)     ;
(PID.TID 0000.0001) tempImplVertAdv = /* Temp. implicit vert. advection on/off */
(PID.TID 0000.0001)                   F
(PID.TID 0000.0001)     ;
(PID.TID 0000.0001) tempForcing  =  /* Temperature forcing on/off flag */
(PID.TID 0000.0001)                   T
(PID.TID 0000.0001)     ;
(PID.TID 0000.0001) balanceQnet  =  /* balance net heat-flux on/off flag */
(PID.TID 0000.0001)                   F
(PID.TID 0000.0001)     ;
(PID.TID 0000.0001) doThetaClimRelax = /* apply SST relaxation on/off flag */
(PID.TID 0000.0001)                   F
(PID.TID 0000.0001)     ;
(PID.TID 0000.0001) balanceThetaClimRelax= /* balance SST relaxation on/off flag */
(PID.TID 0000.0001)                   F
(PID.TID 0000.0001)     ;
(PID.TID 0000.0001) tempIsActiveTr = /* Temp. is a dynamically Active Tracer */
(PID.TID 0000.0001)                   T
(PID.TID 0000.0001)     ;
(PID.TID 0000.0001) saltStepping =  /* Salinity equation on/off flag */
(PID.TID 0000.0001)                   T
(PID.TID 0000.0001)     ;
(PID.TID 0000.0001) saltAdvection = /* Salinity advection on/off flag */
(PID.TID 0000.0001)                   T
(PID.TID 0000.0001)     ;
(PID.TID 0000.0001) saltImplVertAdv = /* Sali. implicit vert. advection on/off */
(PID.TID 0000.0001)                   F
(PID.TID 0000.0001)     ;
(PID.TID 0000.0001) saltForcing  =  /* Salinity forcing on/off flag */
(PID.TID 0000.0001)                   T
(PID.TID 0000.0001)     ;
(PID.TID 0000.0001) balanceEmPmR =  /* balance net fresh-water flux on/off flag */
(PID.TID 0000.0001)                   F
(PID.TID 0000.0001)     ;
(PID.TID 0000.0001) doSaltClimRelax = /* apply SSS relaxation on/off flag */
(PID.TID 0000.0001)                   F
(PID.TID 0000.0001)     ;
(PID.TID 0000.0001) balanceSaltClimRelax= /* balance SSS relaxation on/off flag */
(PID.TID 0000.0001)                   T
(PID.TID 0000.0001)     ;
(PID.TID 0000.0001) saltIsActiveTr = /* Salt  is a dynamically Active Tracer */
(PID.TID 0000.0001)                   T
(PID.TID 0000.0001)     ;
(PID.TID 0000.0001)  readBinaryPrec = /* Precision used for reading binary files */
(PID.TID 0000.0001)                      32
(PID.TID 0000.0001)     ;
(PID.TID 0000.0001) writeBinaryPrec = /* Precision used for writing binary files */
(PID.TID 0000.0001)                      32
(PID.TID 0000.0001)     ;
(PID.TID 0000.0001)  rwSuffixType =   /* select format of mds file suffix */
(PID.TID 0000.0001)                       0
(PID.TID 0000.0001)    = 0 : myIter (I10.10) ;   = 1 : 100*myTime (100th sec) ;
(PID.TID 0000.0001)    = 2 : myTime (seconds);   = 3 : myTime/360 (10th of hr);
(PID.TID 0000.0001)    = 4 : myTime/3600 (hours)
(PID.TID 0000.0001)     ;
(PID.TID 0000.0001)  globalFiles = /* write "global" (=not per tile) files */
(PID.TID 0000.0001)                   F
(PID.TID 0000.0001)     ;
(PID.TID 0000.0001)  useSingleCpuIO = /* only master MPI process does I/O */
(PID.TID 0000.0001)                   T
(PID.TID 0000.0001)     ;
(PID.TID 0000.0001)  useSingleCpuInput = /* only master process reads input */
(PID.TID 0000.0001)                   T
(PID.TID 0000.0001)     ;
(PID.TID 0000.0001) /* debLev[*]  : level of debug & auxiliary message printing */
(PID.TID 0000.0001) debLevZero =  0 ; /* level of disabled aux. msg printing */
(PID.TID 0000.0001)    debLevA =  1 ; /* level of minimum  aux. msg printing */
(PID.TID 0000.0001)    debLevB =  2 ; /* level of low aux. print (report read-file opening)*/
(PID.TID 0000.0001)    debLevC =  3 ; /* level of moderate debug prt (most pkgs debug msg) */
(PID.TID 0000.0001)    debLevD =  4 ; /* level of enhanced debug prt (add DEBUG_STATS prt) */
(PID.TID 0000.0001)    debLevE =  5 ; /* level of extensive debug printing */
(PID.TID 0000.0001) debugLevel =  /* select debug printing level */
(PID.TID 0000.0001)                       2
(PID.TID 0000.0001)     ;
(PID.TID 0000.0001)  plotLevel =  /* select PLOT_FIELD printing level */
(PID.TID 0000.0001)                       2
(PID.TID 0000.0001)     ;
(PID.TID 0000.0001) //
(PID.TID 0000.0001) // Elliptic solver(s) paramters ( PARM02 in namelist )
(PID.TID 0000.0001) //
(PID.TID 0000.0001) cg2dMaxIters =   /* Upper limit on 2d con. grad iterations  */
(PID.TID 0000.0001)                     300
(PID.TID 0000.0001)     ;
(PID.TID 0000.0001) cg2dChkResFreq =   /* 2d con. grad convergence test frequency */
(PID.TID 0000.0001)                       1
(PID.TID 0000.0001)     ;
(PID.TID 0000.0001) cg2dUseMinResSol= /* use cg2d last-iter(=0) / min-resid.(=1) solution */
(PID.TID 0000.0001)                       0
(PID.TID 0000.0001)     ;
(PID.TID 0000.0001) cg2dTargetResidual =   /* 2d con. grad target residual  */
(PID.TID 0000.0001)                 1.000000000000000E-07
(PID.TID 0000.0001)     ;
(PID.TID 0000.0001) cg2dTargetResWunit =   /* CG2d target residual [W units] */
(PID.TID 0000.0001)                 1.000000000000000E-12
(PID.TID 0000.0001)     ;
(PID.TID 0000.0001) cg2dPreCondFreq =   /* Freq. for updating cg2d preconditioner */
(PID.TID 0000.0001)                       1
(PID.TID 0000.0001)     ;
(PID.TID 0000.0001) useSRCGSolver =  /* use single reduction CG solver(s) */
(PID.TID 0000.0001)                   F
(PID.TID 0000.0001)     ;
(PID.TID 0000.0001) printResidualFreq = /* Freq. for printing CG residual */
(PID.TID 0000.0001)                       0
(PID.TID 0000.0001)     ;
(PID.TID 0000.0001) //
(PID.TID 0000.0001) // Time stepping paramters ( PARM03 in namelist )
(PID.TID 0000.0001) //
(PID.TID 0000.0001) deltaTMom =   /* Momentum equation timestep ( s ) */
(PID.TID 0000.0001)                 9.000000000000000E+02
(PID.TID 0000.0001)     ;
(PID.TID 0000.0001) deltaTFreeSurf = /* FreeSurface equation timestep ( s ) */
(PID.TID 0000.0001)                 9.000000000000000E+02
(PID.TID 0000.0001)     ;
(PID.TID 0000.0001) dTtracerLev =  /* Tracer equation timestep ( s ) */
(PID.TID 0000.0001)    50 @  9.000000000000000E+02              /* K =  1: 50 */
(PID.TID 0000.0001)     ;
(PID.TID 0000.0001) deltaTClock  =   /* Model clock timestep ( s ) */
(PID.TID 0000.0001)                 9.000000000000000E+02
(PID.TID 0000.0001)     ;
(PID.TID 0000.0001) cAdjFreq =   /* Convective adjustment interval ( s ) */
(PID.TID 0000.0001)                 0.000000000000000E+00
(PID.TID 0000.0001)     ;
(PID.TID 0000.0001) momForcingOutAB = /* =1: take Momentum Forcing out of Adams-Bash. stepping */
(PID.TID 0000.0001)                       1
(PID.TID 0000.0001)     ;
(PID.TID 0000.0001) tracForcingOutAB = /* =1: take T,S,pTr Forcing out of Adams-Bash. stepping */
(PID.TID 0000.0001)                       1
(PID.TID 0000.0001)     ;
(PID.TID 0000.0001) momDissip_In_AB = /* put Dissipation Tendency in Adams-Bash. stepping */
(PID.TID 0000.0001)                   F
(PID.TID 0000.0001)     ;
(PID.TID 0000.0001) doAB_onGtGs = /* apply AB on Tendencies (rather than on T,S)*/
(PID.TID 0000.0001)                   T
(PID.TID 0000.0001)     ;
(PID.TID 0000.0001) abEps =   /* Adams-Bashforth-2 stabilizing weight */
(PID.TID 0000.0001)                 1.000000000000000E-01
(PID.TID 0000.0001)     ;
(PID.TID 0000.0001) applyExchUV_early = /* Apply EXCH to U,V earlier in time-step */
(PID.TID 0000.0001)                   F
(PID.TID 0000.0001)     ;
(PID.TID 0000.0001) pickupStrictlyMatch= /* stop if pickup do not strictly match */
(PID.TID 0000.0001)                   F
(PID.TID 0000.0001)     ;
(PID.TID 0000.0001) nIter0   =   /* Run starting timestep number */
(PID.TID 0000.0001)                       1
(PID.TID 0000.0001)     ;
(PID.TID 0000.0001) nTimeSteps = /* Number of timesteps */
(PID.TID 0000.0001)                      96
(PID.TID 0000.0001)     ;
(PID.TID 0000.0001) nEndIter =   /* Run ending timestep number */
(PID.TID 0000.0001)                      97
(PID.TID 0000.0001)     ;
(PID.TID 0000.0001) baseTime =   /* Model base time ( s ) */
(PID.TID 0000.0001)                 0.000000000000000E+00
(PID.TID 0000.0001)     ;
(PID.TID 0000.0001) startTime =  /* Run start time ( s ) */
(PID.TID 0000.0001)                 9.000000000000000E+02
(PID.TID 0000.0001)     ;
(PID.TID 0000.0001) endTime  =   /* Integration ending time ( s ) */
(PID.TID 0000.0001)                 8.730000000000000E+04
(PID.TID 0000.0001)     ;
(PID.TID 0000.0001) pChkPtFreq = /* Permanent restart/pickup file interval ( s ) */
(PID.TID 0000.0001)                 8.640000000000000E+04
(PID.TID 0000.0001)     ;
(PID.TID 0000.0001) chkPtFreq  = /* Rolling restart/pickup file interval ( s ) */
(PID.TID 0000.0001)                 8.640000000000000E+04
(PID.TID 0000.0001)     ;
(PID.TID 0000.0001) pickup_write_mdsio =   /* Model IO flag. */
(PID.TID 0000.0001)                   T
(PID.TID 0000.0001)     ;
(PID.TID 0000.0001) pickup_read_mdsio =   /* Model IO flag. */
(PID.TID 0000.0001)                   T
(PID.TID 0000.0001)     ;
(PID.TID 0000.0001) writePickupAtEnd =   /* Model IO flag. */
(PID.TID 0000.0001)                   T
(PID.TID 0000.0001)     ;
(PID.TID 0000.0001) dumpFreq =   /* Model state write out interval ( s ). */
(PID.TID 0000.0001)                 0.000000000000000E+00
(PID.TID 0000.0001)     ;
(PID.TID 0000.0001) dumpInitAndLast= /* write out Initial & Last iter. model state */
(PID.TID 0000.0001)                   T
(PID.TID 0000.0001)     ;
(PID.TID 0000.0001) snapshot_mdsio =   /* Model IO flag. */
(PID.TID 0000.0001)                   T
(PID.TID 0000.0001)     ;
(PID.TID 0000.0001) monitorFreq =   /* Monitor output interval ( s ). */
(PID.TID 0000.0001)                 7.200000000000000E+03
(PID.TID 0000.0001)     ;
(PID.TID 0000.0001) monitorSelect = /* select group of variables to monitor */
(PID.TID 0000.0001)                       3
(PID.TID 0000.0001)     ;
(PID.TID 0000.0001) monitor_stdio =   /* Model IO flag. */
(PID.TID 0000.0001)                   T
(PID.TID 0000.0001)     ;
(PID.TID 0000.0001) externForcingPeriod =   /* forcing period (s) */
(PID.TID 0000.0001)                 0.000000000000000E+00
(PID.TID 0000.0001)     ;
(PID.TID 0000.0001) externForcingCycle =   /* period of the cyle (s). */
(PID.TID 0000.0001)                 0.000000000000000E+00
(PID.TID 0000.0001)     ;
(PID.TID 0000.0001) tauThetaClimRelax =   /* relaxation time scale (s) */
(PID.TID 0000.0001)                 0.000000000000000E+00
(PID.TID 0000.0001)     ;
(PID.TID 0000.0001) tauSaltClimRelax =   /* relaxation time scale (s) */
(PID.TID 0000.0001)                 0.000000000000000E+00
(PID.TID 0000.0001)     ;
(PID.TID 0000.0001) latBandClimRelax =   /* max. Lat. where relaxation */
(PID.TID 0000.0001)                 1.800000000000000E+02
(PID.TID 0000.0001)     ;
(PID.TID 0000.0001) //
(PID.TID 0000.0001) // Gridding paramters ( PARM04 in namelist )
(PID.TID 0000.0001) //
(PID.TID 0000.0001) usingCartesianGrid = /* Cartesian coordinates flag ( True/False ) */
(PID.TID 0000.0001)                   F
(PID.TID 0000.0001)     ;
(PID.TID 0000.0001) usingCylindricalGrid = /* Cylindrical coordinates flag ( True/False ) */
(PID.TID 0000.0001)                   F
(PID.TID 0000.0001)     ;
(PID.TID 0000.0001) usingSphericalPolarGrid = /* Spherical coordinates flag ( True/False ) */
(PID.TID 0000.0001)                   F
(PID.TID 0000.0001)     ;
(PID.TID 0000.0001) usingCurvilinearGrid = /* Curvilinear coordinates flag ( True/False ) */
(PID.TID 0000.0001)                   T
(PID.TID 0000.0001)     ;
(PID.TID 0000.0001) useMin4hFacEdges = /* set hFacW,S as minimum of adjacent hFacC factor */
(PID.TID 0000.0001)                   F
(PID.TID 0000.0001)     ;
(PID.TID 0000.0001) interViscAr_pCell = /* account for partial-cell in interior vert. viscosity */
(PID.TID 0000.0001)                   F
(PID.TID 0000.0001)     ;
(PID.TID 0000.0001) interDiffKr_pCell = /* account for partial-cell in interior vert. diffusion */
(PID.TID 0000.0001)                   F
(PID.TID 0000.0001)     ;
(PID.TID 0000.0001) pCellMix_select = /* option to enhance mixing near surface & bottom */
(PID.TID 0000.0001)                       0
(PID.TID 0000.0001)     ;
(PID.TID 0000.0001) selectSigmaCoord = /* Hybrid-Sigma Vert. Coordinate option */
(PID.TID 0000.0001)                       0
(PID.TID 0000.0001)     ;
(PID.TID 0000.0001) rSigmaBnd = /* r/sigma transition ( units of r ==  m ) */
(PID.TID 0000.0001)                 1.234567000000000E+05
(PID.TID 0000.0001)     ;
(PID.TID 0000.0001) rkSign =   /* index orientation relative to vertical coordinate */
(PID.TID 0000.0001)                -1.000000000000000E+00
(PID.TID 0000.0001)     ;
(PID.TID 0000.0001) gravitySign = /* gravity orientation relative to vertical coordinate */
(PID.TID 0000.0001)                -1.000000000000000E+00
(PID.TID 0000.0001)     ;
(PID.TID 0000.0001) seaLev_Z =  /* reference height of sea-level [m] */
(PID.TID 0000.0001)                 0.000000000000000E+00
(PID.TID 0000.0001)     ;
(PID.TID 0000.0001) top_Pres =  /* reference pressure at the top [Pa] */
(PID.TID 0000.0001)                 0.000000000000000E+00
(PID.TID 0000.0001)     ;
(PID.TID 0000.0001) mass2rUnit = /* convert mass per unit area [kg/m2] to r-units [m] */
(PID.TID 0000.0001)                 9.718172983479105E-04
(PID.TID 0000.0001)     ;
(PID.TID 0000.0001) rUnit2mass = /* convert r-units [m] to mass per unit area [kg/m2] */
(PID.TID 0000.0001)                 1.029000000000000E+03
(PID.TID 0000.0001)     ;
(PID.TID 0000.0001) drC =   /* C spacing ( units of r ) */
(PID.TID 0000.0001)                 5.000000000000000E+00,      /* K =  1 */
(PID.TID 0000.0001)     6 @  1.000000000000000E+01,             /* K =  2:  7 */
(PID.TID 0000.0001)                 1.000500000000000E+01,      /* K =  8 */
(PID.TID 0000.0001)                 1.002000000000000E+01,      /* K =  9 */
(PID.TID 0000.0001)                 1.007000000000000E+01,      /* K = 10 */
(PID.TID 0000.0001)                 1.021500000000000E+01,      /* K = 11 */
(PID.TID 0000.0001)                 1.056000000000000E+01,      /* K = 12 */
(PID.TID 0000.0001)                 1.128000000000000E+01,      /* K = 13 */
(PID.TID 0000.0001)                 1.259000000000000E+01,      /* K = 14 */
(PID.TID 0000.0001)                 1.473000000000000E+01,      /* K = 15 */
(PID.TID 0000.0001)                 1.793000000000000E+01,      /* K = 16 */
(PID.TID 0000.0001)                 2.233500000000000E+01,      /* K = 17 */
(PID.TID 0000.0001)                 2.797500000000000E+01,      /* K = 18 */
(PID.TID 0000.0001)                 3.476000000000001E+01,      /* K = 19 */
(PID.TID 0000.0001)                 4.246000000000000E+01,      /* K = 20 */
(PID.TID 0000.0001)                 5.075000000000000E+01,      /* K = 21 */
(PID.TID 0000.0001)                 5.925000000000000E+01,      /* K = 22 */
(PID.TID 0000.0001)                 6.753999999999999E+01,      /* K = 23 */
(PID.TID 0000.0001)                 7.524000000000001E+01,      /* K = 24 */
(PID.TID 0000.0001)                 8.202500000000001E+01,      /* K = 25 */
(PID.TID 0000.0001)                 8.766500000000001E+01,      /* K = 26 */
(PID.TID 0000.0001)                 9.206999999999999E+01,      /* K = 27 */
(PID.TID 0000.0001)                 9.527000000000000E+01,      /* K = 28 */
(PID.TID 0000.0001)                 9.741499999999999E+01,      /* K = 29 */
(PID.TID 0000.0001)                 9.875000000000000E+01,      /* K = 30 */
(PID.TID 0000.0001)                 9.963000000000000E+01,      /* K = 31 */
(PID.TID 0000.0001)                 1.006700000000000E+02,      /* K = 32 */
(PID.TID 0000.0001)                 1.029450000000000E+02,      /* K = 33 */
(PID.TID 0000.0001)                 1.079450000000000E+02,      /* K = 34 */
(PID.TID 0000.0001)                 1.170800000000000E+02,      /* K = 35 */
(PID.TID 0000.0001)                 1.309600000000000E+02,      /* K = 36 */
(PID.TID 0000.0001)                 1.490150000000000E+02,      /* K = 37 */
(PID.TID 0000.0001)                 1.698850000000000E+02,      /* K = 38 */
(PID.TID 0000.0001)                 1.921900000000000E+02,      /* K = 39 */
(PID.TID 0000.0001)                 2.150250000000000E+02,      /* K = 40 */
(PID.TID 0000.0001)                 2.380000000000000E+02,      /* K = 41 */
(PID.TID 0000.0001)                 2.610000000000000E+02,      /* K = 42 */
(PID.TID 0000.0001)                 2.840000000000000E+02,      /* K = 43 */
(PID.TID 0000.0001)                 3.070000000000000E+02,      /* K = 44 */
(PID.TID 0000.0001)                 3.300000000000000E+02,      /* K = 45 */
(PID.TID 0000.0001)                 3.530000000000000E+02,      /* K = 46 */
(PID.TID 0000.0001)                 3.760000000000000E+02,      /* K = 47 */
(PID.TID 0000.0001)                 3.990000000000000E+02,      /* K = 48 */
(PID.TID 0000.0001)                 4.220000000000000E+02,      /* K = 49 */
(PID.TID 0000.0001)                 4.450000000000000E+02,      /* K = 50 */
(PID.TID 0000.0001)                 2.282500000000000E+02       /* K = 51 */
(PID.TID 0000.0001)     ;
(PID.TID 0000.0001) drF =   /* W spacing ( units of r ) */
(PID.TID 0000.0001)     7 @  1.000000000000000E+01,             /* K =  1:  7 */
(PID.TID 0000.0001)                 1.001000000000000E+01,      /* K =  8 */
(PID.TID 0000.0001)                 1.003000000000000E+01,      /* K =  9 */
(PID.TID 0000.0001)                 1.011000000000000E+01,      /* K = 10 */
(PID.TID 0000.0001)                 1.032000000000000E+01,      /* K = 11 */
(PID.TID 0000.0001)                 1.080000000000000E+01,      /* K = 12 */
(PID.TID 0000.0001)                 1.176000000000000E+01,      /* K = 13 */
(PID.TID 0000.0001)                 1.342000000000000E+01,      /* K = 14 */
(PID.TID 0000.0001)                 1.604000000000000E+01,      /* K = 15 */
(PID.TID 0000.0001)                 1.982000000000000E+01,      /* K = 16 */
(PID.TID 0000.0001)                 2.485000000000000E+01,      /* K = 17 */
(PID.TID 0000.0001)                 3.110000000000000E+01,      /* K = 18 */
(PID.TID 0000.0001)                 3.842000000000000E+01,      /* K = 19 */
(PID.TID 0000.0001)                 4.650000000000000E+01,      /* K = 20 */
(PID.TID 0000.0001)                 5.500000000000000E+01,      /* K = 21 */
(PID.TID 0000.0001)                 6.350000000000000E+01,      /* K = 22 */
(PID.TID 0000.0001)                 7.158000000000000E+01,      /* K = 23 */
(PID.TID 0000.0001)                 7.890000000000001E+01,      /* K = 24 */
(PID.TID 0000.0001)                 8.515000000000001E+01,      /* K = 25 */
(PID.TID 0000.0001)                 9.018000000000001E+01,      /* K = 26 */
(PID.TID 0000.0001)                 9.395999999999999E+01,      /* K = 27 */
(PID.TID 0000.0001)                 9.658000000000000E+01,      /* K = 28 */
(PID.TID 0000.0001)                 9.825000000000000E+01,      /* K = 29 */
(PID.TID 0000.0001)                 9.925000000000000E+01,      /* K = 30 */
(PID.TID 0000.0001)                 1.000100000000000E+02,      /* K = 31 */
(PID.TID 0000.0001)                 1.013300000000000E+02,      /* K = 32 */
(PID.TID 0000.0001)                 1.045600000000000E+02,      /* K = 33 */
(PID.TID 0000.0001)                 1.113300000000000E+02,      /* K = 34 */
(PID.TID 0000.0001)                 1.228300000000000E+02,      /* K = 35 */
(PID.TID 0000.0001)                 1.390900000000000E+02,      /* K = 36 */
(PID.TID 0000.0001)                 1.589400000000000E+02,      /* K = 37 */
(PID.TID 0000.0001)                 1.808300000000000E+02,      /* K = 38 */
(PID.TID 0000.0001)                 2.035500000000000E+02,      /* K = 39 */
(PID.TID 0000.0001)                 2.265000000000000E+02,      /* K = 40 */
(PID.TID 0000.0001)                 2.495000000000000E+02,      /* K = 41 */
(PID.TID 0000.0001)                 2.725000000000000E+02,      /* K = 42 */
(PID.TID 0000.0001)                 2.955000000000000E+02,      /* K = 43 */
(PID.TID 0000.0001)                 3.185000000000000E+02,      /* K = 44 */
(PID.TID 0000.0001)                 3.415000000000000E+02,      /* K = 45 */
(PID.TID 0000.0001)                 3.645000000000000E+02,      /* K = 46 */
(PID.TID 0000.0001)                 3.875000000000000E+02,      /* K = 47 */
(PID.TID 0000.0001)                 4.105000000000000E+02,      /* K = 48 */
(PID.TID 0000.0001)                 4.335000000000000E+02,      /* K = 49 */
(PID.TID 0000.0001)                 4.565000000000000E+02       /* K = 50 */
(PID.TID 0000.0001)     ;
(PID.TID 0000.0001) radius_fromHorizGrid = /* sphere Radius of input horiz. grid */
(PID.TID 0000.0001)                 6.370000000000000E+06
(PID.TID 0000.0001)     ;
(PID.TID 0000.0001) rSphere =  /* Radius ( ignored - cartesian, m - spherical ) */
(PID.TID 0000.0001)                 6.370000000000000E+06
(PID.TID 0000.0001)     ;
(PID.TID 0000.0001) deepAtmosphere = /* Deep/Shallow Atmosphere flag (True/False) */
(PID.TID 0000.0001)                   F
(PID.TID 0000.0001)     ;
(PID.TID 0000.0001) xC =  /* xC(:,1,:,1) : P-point X coord ( deg. or m if cartesian) */
(PID.TID 0000.0001)                -4.081468768806280E+01,      /* I =  1 */
(PID.TID 0000.0001)                -3.957104986057077E+01,      /* I =  2 */
(PID.TID 0000.0001)                -3.832217028656162E+01,      /* I =  3 */
(PID.TID 0000.0001)                -3.706844413107324E+01,      /* I =  4 */
(PID.TID 0000.0001)                -3.581028225779612E+01,      /* I =  5 */
(PID.TID 0000.0001)                -3.454811012006861E+01,      /* I =  6 */
(PID.TID 0000.0001)                -3.328236654497336E+01,      /* I =  7 */
(PID.TID 0000.0001)                -3.201350241727823E+01,      /* I =  8 */
(PID.TID 0000.0001)                -3.074197927113779E+01,      /* I =  9 */
(PID.TID 0000.0001)                -2.946826779826338E+01,      /* I = 10 */
(PID.TID 0000.0001)                -2.819284628214859E+01,      /* I = 11 */
(PID.TID 0000.0001)                -2.691619896217756E+01,      /* I = 12 */
(PID.TID 0000.0001)                -2.563881425705264E+01,      /* I = 13 */
(PID.TID 0000.0001)                -2.436118574294736E+01,      /* I = 14 */
(PID.TID 0000.0001)                -2.308380103782244E+01,      /* I = 15 */
(PID.TID 0000.0001)                -2.180715371785141E+01,      /* I = 16 */
(PID.TID 0000.0001)                -2.053173220173662E+01,      /* I = 17 */
(PID.TID 0000.0001)                -1.925802072886221E+01,      /* I = 18 */
(PID.TID 0000.0001)                -1.798649758272177E+01,      /* I = 19 */
(PID.TID 0000.0001)                -1.671763345502664E+01,      /* I = 20 */
(PID.TID 0000.0001)                -1.545188987993139E+01,      /* I = 21 */
(PID.TID 0000.0001)                -1.418971774220388E+01,      /* I = 22 */
(PID.TID 0000.0001)                -1.293155586892676E+01,      /* I = 23 */
(PID.TID 0000.0001)                -1.167782971343838E+01,      /* I = 24 */
(PID.TID 0000.0001)                -1.042895013942923E+01,      /* I = 25 */
(PID.TID 0000.0001)                -9.185312311937196E+00,      /* I = 26 */
(PID.TID 0000.0001)                -7.947294700425999E+00,      /* I = 27 */
(PID.TID 0000.0001)                -6.715258197621779E+00,      /* I = 28 */
(PID.TID 0000.0001)                -5.489545357070952E+00,      /* I = 29 */
(PID.TID 0000.0001)                -4.270479749729759E+00       /* I = 30 */
(PID.TID 0000.0001)     ;
(PID.TID 0000.0001) yC =  /* yC(1,:,1,:) : P-point Y coord ( deg. or m if cartesian) */
(PID.TID 0000.0001)                -8.146222940368236E+01,      /* J =  1 */
(PID.TID 0000.0001)                -8.113083815286421E+01,      /* J =  2 */
(PID.TID 0000.0001)                -8.079504828233755E+01,      /* J =  3 */
(PID.TID 0000.0001)                -8.045491317322768E+01,      /* J =  4 */
(PID.TID 0000.0001)                -8.011048280590389E+01,      /* J =  5 */
(PID.TID 0000.0001)                -7.976180430515704E+01,      /* J =  6 */
(PID.TID 0000.0001)                -7.940892240526760E+01,      /* J =  7 */
(PID.TID 0000.0001)                -7.905187984845006E+01,      /* J =  8 */
(PID.TID 0000.0001)                -7.869071772754813E+01,      /* J =  9 */
(PID.TID 0000.0001)                -7.832547578199167E+01,      /* J = 10 */
(PID.TID 0000.0001)                -7.795619265432416E+01,      /* J = 11 */
(PID.TID 0000.0001)                -7.758290611340497E+01,      /* J = 12 */
(PID.TID 0000.0001)                -7.720565324926896E+01,      /* J = 13 */
(PID.TID 0000.0001)                -7.682447064385434E+01,      /* J = 14 */
(PID.TID 0000.0001)                -7.643939452107085E+01,      /* J = 15 */
(PID.TID 0000.0001)                -7.605046087901695E+01,      /* J = 16 */
(PID.TID 0000.0001)                -7.565770560699295E+01,      /* J = 17 */
(PID.TID 0000.0001)                -7.526116458910658E+01,      /* J = 18 */
(PID.TID 0000.0001)                -7.486087379640449E+01,      /* J = 19 */
(PID.TID 0000.0001)                -7.445686936886233E+01,      /* J = 20 */
(PID.TID 0000.0001)                -7.404918768854837E+01,      /* J = 21 */
(PID.TID 0000.0001)                -7.363786544493549E+01,      /* J = 22 */
(PID.TID 0000.0001)                -7.322293969328220E+01,      /* J = 23 */
(PID.TID 0000.0001)                -7.280444790682334E+01,      /* J = 24 */
(PID.TID 0000.0001)                -7.238242802328044E+01,      /* J = 25 */
(PID.TID 0000.0001)                -7.195691848614972E+01,      /* J = 26 */
(PID.TID 0000.0001)                -7.152795828082729E+01,      /* J = 27 */
(PID.TID 0000.0001)                -7.109558696482472E+01,      /* J = 28 */
(PID.TID 0000.0001)                -7.065984468855757E+01,      /* J = 29 */
(PID.TID 0000.0001)                -7.022077218177122E+01       /* J = 30 */
(PID.TID 0000.0001)     ;
(PID.TID 0000.0001) rcoord = /* P-point R coordinate (  units of r ) */
(PID.TID 0000.0001)                -5.000000000000000E+00,      /* K =  1 */
(PID.TID 0000.0001)                -1.500000000000000E+01,      /* K =  2 */
(PID.TID 0000.0001)                -2.500000000000000E+01,      /* K =  3 */
(PID.TID 0000.0001)                -3.500000000000000E+01,      /* K =  4 */
(PID.TID 0000.0001)                -4.500000000000000E+01,      /* K =  5 */
(PID.TID 0000.0001)                -5.500000000000000E+01,      /* K =  6 */
(PID.TID 0000.0001)                -6.500000000000000E+01,      /* K =  7 */
(PID.TID 0000.0001)                -7.500500000000000E+01,      /* K =  8 */
(PID.TID 0000.0001)                -8.502499999999999E+01,      /* K =  9 */
(PID.TID 0000.0001)                -9.509500000000000E+01,      /* K = 10 */
(PID.TID 0000.0001)                -1.053100000000000E+02,      /* K = 11 */
(PID.TID 0000.0001)                -1.158700000000000E+02,      /* K = 12 */
(PID.TID 0000.0001)                -1.271500000000000E+02,      /* K = 13 */
(PID.TID 0000.0001)                -1.397400000000000E+02,      /* K = 14 */
(PID.TID 0000.0001)                -1.544700000000000E+02,      /* K = 15 */
(PID.TID 0000.0001)                -1.724000000000000E+02,      /* K = 16 */
(PID.TID 0000.0001)                -1.947350000000000E+02,      /* K = 17 */
(PID.TID 0000.0001)                -2.227100000000000E+02,      /* K = 18 */
(PID.TID 0000.0001)                -2.574700000000000E+02,      /* K = 19 */
(PID.TID 0000.0001)                -2.999300000000000E+02,      /* K = 20 */
(PID.TID 0000.0001)                -3.506800000000000E+02,      /* K = 21 */
(PID.TID 0000.0001)                -4.099300000000000E+02,      /* K = 22 */
(PID.TID 0000.0001)                -4.774700000000000E+02,      /* K = 23 */
(PID.TID 0000.0001)                -5.527100000000000E+02,      /* K = 24 */
(PID.TID 0000.0001)                -6.347350000000000E+02,      /* K = 25 */
(PID.TID 0000.0001)                -7.224000000000000E+02,      /* K = 26 */
(PID.TID 0000.0001)                -8.144700000000000E+02,      /* K = 27 */
(PID.TID 0000.0001)                -9.097400000000000E+02,      /* K = 28 */
(PID.TID 0000.0001)                -1.007155000000000E+03,      /* K = 29 */
(PID.TID 0000.0001)                -1.105905000000000E+03,      /* K = 30 */
(PID.TID 0000.0001)                -1.205535000000000E+03,      /* K = 31 */
(PID.TID 0000.0001)                -1.306205000000000E+03,      /* K = 32 */
(PID.TID 0000.0001)                -1.409150000000000E+03,      /* K = 33 */
(PID.TID 0000.0001)                -1.517095000000000E+03,      /* K = 34 */
(PID.TID 0000.0001)                -1.634175000000000E+03,      /* K = 35 */
(PID.TID 0000.0001)                -1.765135000000000E+03,      /* K = 36 */
(PID.TID 0000.0001)                -1.914150000000000E+03,      /* K = 37 */
(PID.TID 0000.0001)                -2.084035000000000E+03,      /* K = 38 */
(PID.TID 0000.0001)                -2.276225000000000E+03,      /* K = 39 */
(PID.TID 0000.0001)                -2.491250000000000E+03,      /* K = 40 */
(PID.TID 0000.0001)                -2.729250000000000E+03,      /* K = 41 */
(PID.TID 0000.0001)                -2.990250000000000E+03,      /* K = 42 */
(PID.TID 0000.0001)                -3.274250000000000E+03,      /* K = 43 */
(PID.TID 0000.0001)                -3.581250000000000E+03,      /* K = 44 */
(PID.TID 0000.0001)                -3.911250000000000E+03,      /* K = 45 */
(PID.TID 0000.0001)                -4.264250000000000E+03,      /* K = 46 */
(PID.TID 0000.0001)                -4.640250000000000E+03,      /* K = 47 */
(PID.TID 0000.0001)                -5.039250000000000E+03,      /* K = 48 */
(PID.TID 0000.0001)                -5.461250000000000E+03,      /* K = 49 */
(PID.TID 0000.0001)                -5.906250000000000E+03       /* K = 50 */
(PID.TID 0000.0001)     ;
(PID.TID 0000.0001) rF =   /* W-Interf. R coordinate (  units of r ) */
(PID.TID 0000.0001)                 0.000000000000000E+00,      /* K =  1 */
(PID.TID 0000.0001)                -1.000000000000000E+01,      /* K =  2 */
(PID.TID 0000.0001)                -2.000000000000000E+01,      /* K =  3 */
(PID.TID 0000.0001)                -3.000000000000000E+01,      /* K =  4 */
(PID.TID 0000.0001)                -4.000000000000000E+01,      /* K =  5 */
(PID.TID 0000.0001)                -5.000000000000000E+01,      /* K =  6 */
(PID.TID 0000.0001)                -6.000000000000000E+01,      /* K =  7 */
(PID.TID 0000.0001)                -7.000000000000000E+01,      /* K =  8 */
(PID.TID 0000.0001)                -8.001000000000001E+01,      /* K =  9 */
(PID.TID 0000.0001)                -9.004000000000001E+01,      /* K = 10 */
(PID.TID 0000.0001)                -1.001500000000000E+02,      /* K = 11 */
(PID.TID 0000.0001)                -1.104700000000000E+02,      /* K = 12 */
(PID.TID 0000.0001)                -1.212700000000000E+02,      /* K = 13 */
(PID.TID 0000.0001)                -1.330300000000000E+02,      /* K = 14 */
(PID.TID 0000.0001)                -1.464500000000000E+02,      /* K = 15 */
(PID.TID 0000.0001)                -1.624900000000000E+02,      /* K = 16 */
(PID.TID 0000.0001)                -1.823100000000000E+02,      /* K = 17 */
(PID.TID 0000.0001)                -2.071600000000000E+02,      /* K = 18 */
(PID.TID 0000.0001)                -2.382600000000000E+02,      /* K = 19 */
(PID.TID 0000.0001)                -2.766799999999999E+02,      /* K = 20 */
(PID.TID 0000.0001)                -3.231799999999999E+02,      /* K = 21 */
(PID.TID 0000.0001)                -3.781799999999999E+02,      /* K = 22 */
(PID.TID 0000.0001)                -4.416799999999999E+02,      /* K = 23 */
(PID.TID 0000.0001)                -5.132600000000000E+02,      /* K = 24 */
(PID.TID 0000.0001)                -5.921600000000000E+02,      /* K = 25 */
(PID.TID 0000.0001)                -6.773099999999999E+02,      /* K = 26 */
(PID.TID 0000.0001)                -7.674900000000000E+02,      /* K = 27 */
(PID.TID 0000.0001)                -8.614500000000000E+02,      /* K = 28 */
(PID.TID 0000.0001)                -9.580300000000001E+02,      /* K = 29 */
(PID.TID 0000.0001)                -1.056280000000000E+03,      /* K = 30 */
(PID.TID 0000.0001)                -1.155530000000000E+03,      /* K = 31 */
(PID.TID 0000.0001)                -1.255540000000000E+03,      /* K = 32 */
(PID.TID 0000.0001)                -1.356870000000000E+03,      /* K = 33 */
(PID.TID 0000.0001)                -1.461430000000000E+03,      /* K = 34 */
(PID.TID 0000.0001)                -1.572760000000000E+03,      /* K = 35 */
(PID.TID 0000.0001)                -1.695590000000000E+03,      /* K = 36 */
(PID.TID 0000.0001)                -1.834680000000000E+03,      /* K = 37 */
(PID.TID 0000.0001)                -1.993620000000000E+03,      /* K = 38 */
(PID.TID 0000.0001)                -2.174450000000000E+03,      /* K = 39 */
(PID.TID 0000.0001)                -2.378000000000000E+03,      /* K = 40 */
(PID.TID 0000.0001)                -2.604500000000000E+03,      /* K = 41 */
(PID.TID 0000.0001)                -2.854000000000000E+03,      /* K = 42 */
(PID.TID 0000.0001)                -3.126500000000000E+03,      /* K = 43 */
(PID.TID 0000.0001)                -3.422000000000000E+03,      /* K = 44 */
(PID.TID 0000.0001)                -3.740500000000000E+03,      /* K = 45 */
(PID.TID 0000.0001)                -4.082000000000000E+03,      /* K = 46 */
(PID.TID 0000.0001)                -4.446500000000000E+03,      /* K = 47 */
(PID.TID 0000.0001)                -4.834000000000000E+03,      /* K = 48 */
(PID.TID 0000.0001)                -5.244500000000000E+03,      /* K = 49 */
(PID.TID 0000.0001)                -5.678000000000000E+03,      /* K = 50 */
(PID.TID 0000.0001)                -6.134500000000000E+03       /* K = 51 */
(PID.TID 0000.0001)     ;
(PID.TID 0000.0001) deepFacC = /* deep-model grid factor @ cell-Center (-) */
(PID.TID 0000.0001)    50 @  1.000000000000000E+00              /* K =  1: 50 */
(PID.TID 0000.0001)     ;
(PID.TID 0000.0001) deepFacF = /* deep-model grid factor @ W-Interface (-) */
(PID.TID 0000.0001)    51 @  1.000000000000000E+00              /* K =  1: 51 */
(PID.TID 0000.0001)     ;
(PID.TID 0000.0001) rVel2wUnit = /* convert units: rVel -> wSpeed (=1 if z-coord)*/
(PID.TID 0000.0001)    51 @  1.000000000000000E+00              /* K =  1: 51 */
(PID.TID 0000.0001)     ;
(PID.TID 0000.0001) wUnit2rVel = /* convert units: wSpeed -> rVel (=1 if z-coord)*/
(PID.TID 0000.0001)    51 @  1.000000000000000E+00              /* K =  1: 51 */
(PID.TID 0000.0001)     ;
(PID.TID 0000.0001) dBdrRef = /* Vertical grad. of reference buoyancy [(m/s/r)^2] */
(PID.TID 0000.0001)     3 @  0.000000000000000E+00,             /* K =  1:  3 */
(PID.TID 0000.0001)                 2.706065538651213E-04,      /* K =  4 */
(PID.TID 0000.0001)     2 @  0.000000000000000E+00,             /* K =  5:  6 */
(PID.TID 0000.0001)                 2.632794562663490E-04,      /* K =  7 */
(PID.TID 0000.0001)                 2.554318021231947E-04,      /* K =  8 */
(PID.TID 0000.0001)                 0.000000000000000E+00,      /* K =  9 */
(PID.TID 0000.0001)                 2.461524232360561E-04,      /* K = 10 */
(PID.TID 0000.0001)                 2.348694431245364E-04,      /* K = 11 */
(PID.TID 0000.0001)                 0.000000000000000E+00,      /* K = 12 */
(PID.TID 0000.0001)                 2.056847859884566E-04,      /* K = 13 */
(PID.TID 0000.0001)                 1.777764506003336E-04,      /* K = 14 */
(PID.TID 0000.0001)                 0.000000000000000E+00,      /* K = 15 */
(PID.TID 0000.0001)                 1.203533867077665E-04,      /* K = 16 */
(PID.TID 0000.0001)                 9.288540355629585E-05,      /* K = 17 */
(PID.TID 0000.0001)                 7.115862770365155E-05,      /* K = 18 */
(PID.TID 0000.0001)                 5.484365820533800E-05,      /* K = 19 */
(PID.TID 0000.0001)                 4.290935507113214E-05,      /* K = 20 */
(PID.TID 0000.0001)                 6.658747741703880E-05,      /* K = 21 */
(PID.TID 0000.0001)                 0.000000000000000E+00,      /* K = 22 */
(PID.TID 0000.0001)                 2.323718420342036E-05,      /* K = 23 */
(PID.TID 0000.0001)                 1.974682037962757E-05,      /* K = 24 */
(PID.TID 0000.0001)                 1.709468932536602E-05,      /* K = 25 */
(PID.TID 0000.0001)                 0.000000000000000E+00,      /* K = 26 */
(PID.TID 0000.0001)                 1.455436545977052E-05,      /* K = 27 */
(PID.TID 0000.0001)                 0.000000000000000E+00,      /* K = 28 */
(PID.TID 0000.0001)                 1.315287111980149E-05,      /* K = 29 */
(PID.TID 0000.0001)     2 @  0.000000000000000E+00,             /* K = 30: 31 */
(PID.TID 0000.0001)                 1.240968507885233E-05,      /* K = 32 */
(PID.TID 0000.0001)     2 @  0.000000000000000E+00,             /* K = 33: 34 */
(PID.TID 0000.0001)                 1.045141607964570E-05,      /* K = 35 */
(PID.TID 0000.0001)     3 @  0.000000000000000E+00,             /* K = 36: 38 */
(PID.TID 0000.0001)                 6.628797113709505E-06,      /* K = 39 */
(PID.TID 0000.0001)    11 @  0.000000000000000E+00              /* K = 40: 50 */
(PID.TID 0000.0001)     ;
(PID.TID 0000.0001) rotateGrid = /* use rotated grid ( True/False ) */
(PID.TID 0000.0001)                   F
(PID.TID 0000.0001)     ;
(PID.TID 0000.0001) phiEuler = /* Euler angle, rotation about original z-coordinate [rad] */
(PID.TID 0000.0001)                 0.000000000000000E+00
(PID.TID 0000.0001)     ;
(PID.TID 0000.0001) thetaEuler = /* Euler angle, rotation about new x-coordinate [rad] */
(PID.TID 0000.0001)                 0.000000000000000E+00
(PID.TID 0000.0001)     ;
(PID.TID 0000.0001) psiEuler = /* Euler angle, rotation about new z-coordinate [rad] */
(PID.TID 0000.0001)                 0.000000000000000E+00
(PID.TID 0000.0001)     ;
(PID.TID 0000.0001) dxF =  /* dxF(:,1,:,1) ( units: m ) */
(PID.TID 0000.0001)                 2.071152825743187E+04,      /* I =  1 */
(PID.TID 0000.0001)                 2.070365142756831E+04,      /* I =  2 */
(PID.TID 0000.0001)                 2.069635296570141E+04,      /* I =  3 */
(PID.TID 0000.0001)                 2.068965358413176E+04,      /* I =  4 */
(PID.TID 0000.0001)                 2.068357195583360E+04,      /* I =  5 */
(PID.TID 0000.0001)                 2.067812475356784E+04,      /* I =  6 */
(PID.TID 0000.0001)                 2.067332670125947E+04,      /* I =  7 */
(PID.TID 0000.0001)                 2.066919060389092E+04,      /* I =  8 */
(PID.TID 0000.0001)                 2.066572738985245E+04,      /* I =  9 */
(PID.TID 0000.0001)                 2.066294615597989E+04,      /* I = 10 */
(PID.TID 0000.0001)                 2.066085425372315E+04,      /* I = 11 */
(PID.TID 0000.0001)                 2.065945771525925E+04,      /* I = 12 */
(PID.TID 0000.0001)                 2.065874381268158E+04,      /* I = 13 */
(PID.TID 0000.0001)                 2.065874381268158E+04,      /* I = 14 */
(PID.TID 0000.0001)                 2.065945771525925E+04,      /* I = 15 */
(PID.TID 0000.0001)                 2.066085425372316E+04,      /* I = 16 */
(PID.TID 0000.0001)                 2.066294615597989E+04,      /* I = 17 */
(PID.TID 0000.0001)                 2.066572738985245E+04,      /* I = 18 */
(PID.TID 0000.0001)                 2.066919060389088E+04,      /* I = 19 */
(PID.TID 0000.0001)                 2.067332670125956E+04,      /* I = 20 */
(PID.TID 0000.0001)                 2.067812475356780E+04,      /* I = 21 */
(PID.TID 0000.0001)                 2.068357195583360E+04,      /* I = 22 */
(PID.TID 0000.0001)                 2.068965358413182E+04,      /* I = 23 */
(PID.TID 0000.0001)                 2.069635296570133E+04,      /* I = 24 */
(PID.TID 0000.0001)                 2.070365142756836E+04,      /* I = 25 */
(PID.TID 0000.0001)                 2.071152825743182E+04,      /* I = 26 */
(PID.TID 0000.0001)                 2.071996065138743E+04,      /* I = 27 */
(PID.TID 0000.0001)                 2.072892365863983E+04,      /* I = 28 */
(PID.TID 0000.0001)                 2.073839012765668E+04,      /* I = 29 */
(PID.TID 0000.0001)                 2.074833063718403E+04       /* I = 30 */
(PID.TID 0000.0001)     ;
(PID.TID 0000.0001) dxF =  /* dxF(1,:,1,:) ( units: m ) */
(PID.TID 0000.0001)                 2.071152825743187E+04,      /* J =  1 */
(PID.TID 0000.0001)                 2.109117491456033E+04,      /* J =  2 */
(PID.TID 0000.0001)                 2.148525648961724E+04,      /* J =  3 */
(PID.TID 0000.0001)                 2.189377348588603E+04,      /* J =  4 */
(PID.TID 0000.0001)                 2.231672440915243E+04,      /* J =  5 */
(PID.TID 0000.0001)                 2.275410689480659E+04,      /* J =  6 */
(PID.TID 0000.0001)                 2.320591873318126E+04,      /* J =  7 */
(PID.TID 0000.0001)                 2.367215879054831E+04,      /* J =  8 */
(PID.TID 0000.0001)                 2.415282782538908E+04,      /* J =  9 */
(PID.TID 0000.0001)                 2.464792920101809E+04,      /* J = 10 */
(PID.TID 0000.0001)                 2.515746949702995E+04,      /* J = 11 */
(PID.TID 0000.0001)                 2.568145902315334E+04,      /* J = 12 */
(PID.TID 0000.0001)                 2.621991223981432E+04,      /* J = 13 */
(PID.TID 0000.0001)                 2.677284809033052E+04,      /* J = 14 */
(PID.TID 0000.0001)                 2.734029025013979E+04,      /* J = 15 */
(PID.TID 0000.0001)                 2.792226729855568E+04,      /* J = 16 */
(PID.TID 0000.0001)                 2.851881281852892E+04,      /* J = 17 */
(PID.TID 0000.0001)                 2.912996543046302E+04,      /* J = 18 */
(PID.TID 0000.0001)                 2.975576876502299E+04,      /* J = 19 */
(PID.TID 0000.0001)                 3.039627138062681E+04,      /* J = 20 */
(PID.TID 0000.0001)                 3.105152663065675E+04,      /* J = 21 */
(PID.TID 0000.0001)                 3.172159248542454E+04,      /* J = 22 */
(PID.TID 0000.0001)                 3.240653131349731E+04,      /* J = 23 */
(PID.TID 0000.0001)                 3.310640962675057E+04,      /* J = 24 */
(PID.TID 0000.0001)                 3.382129779388320E+04,      /* J = 25 */
(PID.TID 0000.0001)                 3.455126972555294E+04,      /* J = 26 */
(PID.TID 0000.0001)                 3.529640253603521E+04,      /* J = 27 */
(PID.TID 0000.0001)                 3.605677618612848E+04,      /* J = 28 */
(PID.TID 0000.0001)                 3.683247311866502E+04,      /* J = 29 */
(PID.TID 0000.0001)                 3.762357793548112E+04       /* J = 30 */
(PID.TID 0000.0001)     ;
(PID.TID 0000.0001) dyF =  /* dyF(:,1,:,1) ( units: m ) */
(PID.TID 0000.0001)                 3.700742300337598E+04,      /* I =  1 */
(PID.TID 0000.0001)                 3.707905556394973E+04,      /* I =  2 */
(PID.TID 0000.0001)                 3.714471828319018E+04,      /* I =  3 */
(PID.TID 0000.0001)                 3.720441078960103E+04,      /* I =  4 */
(PID.TID 0000.0001)                 3.725813297080282E+04,      /* I =  5 */
(PID.TID 0000.0001)                 3.730588490725751E+04,      /* I =  6 */
(PID.TID 0000.0001)                 3.734766681359038E+04,      /* I =  7 */
(PID.TID 0000.0001)                 3.738347898712025E+04,      /* I =  8 */
(PID.TID 0000.0001)                 3.741332176340629E+04,      /* I =  9 */
(PID.TID 0000.0001)                 3.743719547859261E+04,      /* I = 10 */
(PID.TID 0000.0001)                 3.745510043824806E+04,      /* I = 11 */
(PID.TID 0000.0001)                 3.746703689267323E+04,      /* I = 12 */
(PID.TID 0000.0001)     2 @  3.747300501832417E+04,             /* I = 13: 14 */
(PID.TID 0000.0001)                 3.746703689267323E+04,      /* I = 15 */
(PID.TID 0000.0001)                 3.745510043824806E+04,      /* I = 16 */
(PID.TID 0000.0001)                 3.743719547859261E+04,      /* I = 17 */
(PID.TID 0000.0001)                 3.741332176340628E+04,      /* I = 18 */
(PID.TID 0000.0001)                 3.738347898712024E+04,      /* I = 19 */
(PID.TID 0000.0001)                 3.734766681359040E+04,      /* I = 20 */
(PID.TID 0000.0001)                 3.730588490725750E+04,      /* I = 21 */
(PID.TID 0000.0001)                 3.725813297080281E+04,      /* I = 22 */
(PID.TID 0000.0001)                 3.720441078960103E+04,      /* I = 23 */
(PID.TID 0000.0001)                 3.714471828319017E+04,      /* I = 24 */
(PID.TID 0000.0001)                 3.707905556394973E+04,      /* I = 25 */
(PID.TID 0000.0001)                 3.700742300337599E+04,      /* I = 26 */
(PID.TID 0000.0001)                 3.692982130617692E+04,      /* I = 27 */
(PID.TID 0000.0001)                 3.684625159269555E+04,      /* I = 28 */
(PID.TID 0000.0001)                 3.675671548992459E+04,      /* I = 29 */
(PID.TID 0000.0001)                 3.666121523181524E+04       /* I = 30 */
(PID.TID 0000.0001)     ;
(PID.TID 0000.0001) dyF =  /* dyF(1,:,1,:) ( units: m ) */
(PID.TID 0000.0001)                 3.700742300337598E+04,      /* J =  1 */
(PID.TID 0000.0001)                 3.745555642044499E+04,      /* J =  2 */
(PID.TID 0000.0001)                 3.790206217653974E+04,      /* J =  3 */
(PID.TID 0000.0001)                 3.834684105117956E+04,      /* J =  4 */
(PID.TID 0000.0001)                 3.878979459357282E+04,      /* J =  5 */
(PID.TID 0000.0001)                 3.923082521328924E+04,      /* J =  6 */
(PID.TID 0000.0001)                 3.966983623246408E+04,      /* J =  7 */
(PID.TID 0000.0001)                 4.010673190475840E+04,      /* J =  8 */
(PID.TID 0000.0001)                 4.054141740950450E+04,      /* J =  9 */
(PID.TID 0000.0001)                 4.097379882434454E+04,      /* J = 10 */
(PID.TID 0000.0001)                 4.140378308084428E+04,      /* J = 11 */
(PID.TID 0000.0001)                 4.183127790875583E+04,      /* J = 12 */
(PID.TID 0000.0001)                 4.225619177206317E+04,      /* J = 13 */
(PID.TID 0000.0001)                 4.267843379867976E+04,      /* J = 14 */
(PID.TID 0000.0001)                 4.309791371221616E+04,      /* J = 15 */
(PID.TID 0000.0001)                 4.351454176087940E+04,      /* J = 16 */
(PID.TID 0000.0001)                 4.392822864881465E+04,      /* J = 17 */
(PID.TID 0000.0001)                 4.433888547805120E+04,      /* J = 18 */
(PID.TID 0000.0001)                 4.474642369096899E+04,      /* J = 19 */
(PID.TID 0000.0001)                 4.515075502217317E+04,      /* J = 20 */
(PID.TID 0000.0001)                 4.555179145554101E+04,      /* J = 21 */
(PID.TID 0000.0001)                 4.594944520275577E+04,      /* J = 22 */
(PID.TID 0000.0001)                 4.634362867401398E+04,      /* J = 23 */
(PID.TID 0000.0001)                 4.673425447947427E+04,      /* J = 24 */
(PID.TID 0000.0001)                 4.712123544873745E+04,      /* J = 25 */
(PID.TID 0000.0001)                 4.750448467975499E+04,      /* J = 26 */
(PID.TID 0000.0001)                 4.788391567392174E+04,      /* J = 27 */
(PID.TID 0000.0001)                 4.825944271092693E+04,      /* J = 28 */
(PID.TID 0000.0001)                 4.863098220111143E+04,      /* J = 29 */
(PID.TID 0000.0001)                 4.899845499569884E+04       /* J = 30 */
(PID.TID 0000.0001)     ;
(PID.TID 0000.0001) dxG =  /* dxG(:,1,:,1) ( units: m ) */
(PID.TID 0000.0001)                 2.052711702021451E+04,      /* I =  1 */
(PID.TID 0000.0001)                 2.051953983526162E+04,      /* I =  2 */
(PID.TID 0000.0001)                 2.051251425926268E+04,      /* I =  3 */
(PID.TID 0000.0001)                 2.050606148013825E+04,      /* I =  4 */
(PID.TID 0000.0001)                 2.050020059906299E+04,      /* I =  5 */
(PID.TID 0000.0001)                 2.049494867086169E+04,      /* I =  6 */
(PID.TID 0000.0001)                 2.049032075633103E+04,      /* I =  7 */
(PID.TID 0000.0001)                 2.048632995314923E+04,      /* I =  8 */
(PID.TID 0000.0001)                 2.048298743895549E+04,      /* I =  9 */
(PID.TID 0000.0001)                 2.048030251694177E+04,      /* I = 10 */
(PID.TID 0000.0001)                 2.047828270203973E+04,      /* I = 11 */
(PID.TID 0000.0001)                 2.047693414389448E+04,      /* I = 12 */
(PID.TID 0000.0001)     2 @  2.047624433858785E+04,             /* I = 13: 14 */
(PID.TID 0000.0001)                 2.047693414389443E+04,      /* I = 15 */
(PID.TID 0000.0001)                 2.047828270203978E+04,      /* I = 16 */
(PID.TID 0000.0001)                 2.048030251694177E+04,      /* I = 17 */
(PID.TID 0000.0001)                 2.048298743895548E+04,      /* I = 18 */
(PID.TID 0000.0001)                 2.048632995314927E+04,      /* I = 19 */
(PID.TID 0000.0001)                 2.049032075633093E+04,      /* I = 20 */
(PID.TID 0000.0001)                 2.049494867086174E+04,      /* I = 21 */
(PID.TID 0000.0001)                 2.050020059906297E+04,      /* I = 22 */
(PID.TID 0000.0001)                 2.050606148013830E+04,      /* I = 23 */
(PID.TID 0000.0001)                 2.051251425926268E+04,      /* I = 24 */
(PID.TID 0000.0001)                 2.051953983526163E+04,      /* I = 25 */
(PID.TID 0000.0001)                 2.052711702021443E+04,      /* I = 26 */
(PID.TID 0000.0001)                 2.053522248594683E+04,      /* I = 27 */
(PID.TID 0000.0001)                 2.054383070727552E+04,      /* I = 28 */
(PID.TID 0000.0001)                 2.055291390664790E+04,      /* I = 29 */
(PID.TID 0000.0001)                 2.056244198352907E+04       /* I = 30 */
(PID.TID 0000.0001)     ;
(PID.TID 0000.0001) dxG =  /* dxG(1,:,1,:) ( units: m ) */
(PID.TID 0000.0001)                 2.052711702021451E+04,      /* J =  1 */
(PID.TID 0000.0001)                 2.089954736357391E+04,      /* J =  2 */
(PID.TID 0000.0001)                 2.128641124518697E+04,      /* J =  3 */
(PID.TID 0000.0001)                 2.168771062037700E+04,      /* J =  4 */
(PID.TID 0000.0001)                 2.210344484655194E+04,      /* J =  5 */
(PID.TID 0000.0001)                 2.253361185972884E+04,      /* J =  6 */
(PID.TID 0000.0001)                 2.297820925105574E+04,      /* J =  7 */
(PID.TID 0000.0001)                 2.343723524028478E+04,      /* J =  8 */
(PID.TID 0000.0001)                 2.391068954427550E+04,      /* J =  9 */
(PID.TID 0000.0001)                 2.439857414125275E+04,      /* J = 10 */
(PID.TID 0000.0001)                 2.490089393241153E+04,      /* J = 11 */
(PID.TID 0000.0001)                 2.541765730414359E+04,      /* J = 12 */
(PID.TID 0000.0001)                 2.594887659459613E+04,      /* J = 13 */
(PID.TID 0000.0001)                 2.649456846940333E+04,      /* J = 14 */
(PID.TID 0000.0001)                 2.705475421181358E+04,      /* J = 15 */
(PID.TID 0000.0001)                 2.762945993231310E+04,      /* J = 16 */
(PID.TID 0000.0001)                 2.821871670385097E+04,      /* J = 17 */
(PID.TID 0000.0001)                 2.882256062780631E+04,      /* J = 18 */
(PID.TID 0000.0001)                 2.944103283669238E+04,      /* J = 19 */
(PID.TID 0000.0001)                 3.007417943861200E+04,      /* J = 20 */
(PID.TID 0000.0001)                 3.072205140902393E+04,      /* J = 21 */
(PID.TID 0000.0001)                 3.138470443467240E+04,      /* J = 22 */
(PID.TID 0000.0001)                 3.206219871470027E+04,      /* J = 23 */
(PID.TID 0000.0001)                 3.275459872326910E+04,      /* J = 24 */
(PID.TID 0000.0001)                 3.346197293831744E+04,      /* J = 25 */
(PID.TID 0000.0001)                 3.418439354048331E+04,      /* J = 26 */
(PID.TID 0000.0001)                 3.492193608585089E+04,      /* J = 27 */
(PID.TID 0000.0001)                 3.567467915738818E+04,      /* J = 28 */
(PID.TID 0000.0001)                 3.644270400216877E+04,      /* J = 29 */
(PID.TID 0000.0001)                 3.722609417427087E+04       /* J = 30 */
(PID.TID 0000.0001)     ;
(PID.TID 0000.0001) dyG =  /* dyG(:,1,:,1) ( units: m ) */
(PID.TID 0000.0001)                 3.696936823759973E+04,      /* I =  1 */
(PID.TID 0000.0001)                 3.704398547852144E+04,      /* I =  2 */
(PID.TID 0000.0001)                 3.711263318385338E+04,      /* I =  3 */
(PID.TID 0000.0001)                 3.717531082528212E+04,      /* I =  4 */
(PID.TID 0000.0001)                 3.723201816961422E+04,      /* I =  5 */
(PID.TID 0000.0001)                 3.728275520872145E+04,      /* I =  6 */
(PID.TID 0000.0001)                 3.732752209699158E+04,      /* I =  7 */
(PID.TID 0000.0001)                 3.736631909640826E+04,      /* I =  8 */
(PID.TID 0000.0001)                 3.739914652852553E+04,      /* I =  9 */
(PID.TID 0000.0001)                 3.742600473350589E+04,      /* I = 10 */
(PID.TID 0000.0001)                 3.744689403567852E+04,      /* I = 11 */
(PID.TID 0000.0001)                 3.746181471567877E+04,      /* I = 12 */
(PID.TID 0000.0001)                 3.747076698884368E+04,      /* I = 13 */
(PID.TID 0000.0001)                 3.747376174977726E+04,      /* I = 14 */
(PID.TID 0000.0001)                 3.747076698884368E+04,      /* I = 15 */
(PID.TID 0000.0001)                 3.746181471567877E+04,      /* I = 16 */
(PID.TID 0000.0001)                 3.744689403567852E+04,      /* I = 17 */
(PID.TID 0000.0001)                 3.742600473350589E+04,      /* I = 18 */
(PID.TID 0000.0001)                 3.739914652852552E+04,      /* I = 19 */
(PID.TID 0000.0001)                 3.736631909640826E+04,      /* I = 20 */
(PID.TID 0000.0001)                 3.732752209699157E+04,      /* I = 21 */
(PID.TID 0000.0001)                 3.728275520872146E+04,      /* I = 22 */
(PID.TID 0000.0001)                 3.723201816961422E+04,      /* I = 23 */
(PID.TID 0000.0001)                 3.717531082528211E+04,      /* I = 24 */
(PID.TID 0000.0001)                 3.711263318385338E+04,      /* I = 25 */
(PID.TID 0000.0001)                 3.704398547852145E+04,      /* I = 26 */
(PID.TID 0000.0001)                 3.696936823759972E+04,      /* I = 27 */
(PID.TID 0000.0001)                 3.688878236278851E+04,      /* I = 28 */
(PID.TID 0000.0001)                 3.680222921581766E+04,      /* I = 29 */
(PID.TID 0000.0001)                 3.670971071402137E+04       /* I = 30 */
(PID.TID 0000.0001)     ;
(PID.TID 0000.0001) dyG =  /* dyG(1,:,1,:) ( units: m ) */
(PID.TID 0000.0001)                 3.696936823759973E+04,      /* J =  1 */
(PID.TID 0000.0001)                 3.741746190559281E+04,      /* J =  2 */
(PID.TID 0000.0001)                 3.786390067184393E+04,      /* J =  3 */
(PID.TID 0000.0001)                 3.830858172733455E+04,      /* J =  4 */
(PID.TID 0000.0001)                 3.875140319955796E+04,      /* J =  5 */
(PID.TID 0000.0001)                 3.919226424948571E+04,      /* J =  6 */
(PID.TID 0000.0001)                 3.963106512715793E+04,      /* J =  7 */
(PID.TID 0000.0001)                 4.006770719102380E+04,      /* J =  8 */
(PID.TID 0000.0001)                 4.050209290047463E+04,      /* J =  9 */
(PID.TID 0000.0001)                 4.093412578484027E+04,      /* J = 10 */
(PID.TID 0000.0001)                 4.136371039407872E+04,      /* J = 11 */
(PID.TID 0000.0001)                 4.179075223673176E+04,      /* J = 12 */
(PID.TID 0000.0001)                 4.221515770920290E+04,      /* J = 13 */
(PID.TID 0000.0001)                 4.263683401805614E+04,      /* J = 14 */
(PID.TID 0000.0001)                 4.305568910412182E+04,      /* J = 15 */
(PID.TID 0000.0001)                 4.347163156363047E+04,      /* J = 16 */
(PID.TID 0000.0001)                 4.388457057225752E+04,      /* J = 17 */
(PID.TID 0000.0001)                 4.429441581934092E+04,      /* J = 18 */
(PID.TID 0000.0001)                 4.470107744374240E+04,      /* J = 19 */
(PID.TID 0000.0001)                 4.510446597891348E+04,      /* J = 20 */
(PID.TID 0000.0001)                 4.550449230395439E+04,      /* J = 21 */
(PID.TID 0000.0001)                 4.590106761654920E+04,      /* J = 22 */
(PID.TID 0000.0001)                 4.629410339849156E+04,      /* J = 23 */
(PID.TID 0000.0001)                 4.668351141269982E+04,      /* J = 24 */
(PID.TID 0000.0001)                 4.706920371856177E+04,      /* J = 25 */
(PID.TID 0000.0001)                 4.745109271730031E+04,      /* J = 26 */
(PID.TID 0000.0001)                 4.782909128417812E+04,      /* J = 27 */
(PID.TID 0000.0001)                 4.820311314005602E+04,      /* J = 28 */
(PID.TID 0000.0001)                 4.857307420014453E+04,      /* J = 29 */
(PID.TID 0000.0001)                 4.893889490827491E+04       /* J = 30 */
(PID.TID 0000.0001)     ;
(PID.TID 0000.0001) dxC =  /* dxC(:,1,:,1) ( units: m ) */
(PID.TID 0000.0001)                 2.071567651695695E+04,      /* I =  1 */
(PID.TID 0000.0001)                 2.070751892245589E+04,      /* I =  2 */
(PID.TID 0000.0001)                 2.069992855779408E+04,      /* I =  3 */
(PID.TID 0000.0001)                 2.069292717562287E+04,      /* I =  4 */
(PID.TID 0000.0001)                 2.068653446229046E+04,      /* I =  5 */
(PID.TID 0000.0001)                 2.068076808552306E+04,      /* I =  6 */
(PID.TID 0000.0001)                 2.067564373903614E+04,      /* I =  7 */
(PID.TID 0000.0001)                 2.067117518190149E+04,      /* I =  8 */
(PID.TID 0000.0001)                 2.066737427558298E+04,      /* I =  9 */
(PID.TID 0000.0001)                 2.066425102685107E+04,      /* I = 10 */
(PID.TID 0000.0001)                 2.066181364132844E+04,      /* I = 11 */
(PID.TID 0000.0001)                 2.066006869803818E+04,      /* I = 12 */
(PID.TID 0000.0001)                 2.065902266229015E+04,      /* I = 13 */
(PID.TID 0000.0001)                 2.065863826775786E+04,      /* I = 14 */
(PID.TID 0000.0001)                 2.065902266229016E+04,      /* I = 15 */
(PID.TID 0000.0001)                 2.066006869803813E+04,      /* I = 16 */
(PID.TID 0000.0001)                 2.066181364132850E+04,      /* I = 17 */
(PID.TID 0000.0001)                 2.066425102685108E+04,      /* I = 18 */
(PID.TID 0000.0001)                 2.066737427558298E+04,      /* I = 19 */
(PID.TID 0000.0001)                 2.067117518190149E+04,      /* I = 20 */
(PID.TID 0000.0001)                 2.067564373903615E+04,      /* I = 21 */
(PID.TID 0000.0001)                 2.068076808552304E+04,      /* I = 22 */
(PID.TID 0000.0001)                 2.068653446229045E+04,      /* I = 23 */
(PID.TID 0000.0001)                 2.069292717562287E+04,      /* I = 24 */
(PID.TID 0000.0001)                 2.069992855779413E+04,      /* I = 25 */
(PID.TID 0000.0001)                 2.070751892245584E+04,      /* I = 26 */
(PID.TID 0000.0001)                 2.071567651695691E+04,      /* I = 27 */
(PID.TID 0000.0001)                 2.072437747324421E+04,      /* I = 28 */
(PID.TID 0000.0001)                 2.073359574551806E+04,      /* I = 29 */
(PID.TID 0000.0001)                 2.074330305575613E+04       /* I = 30 */
(PID.TID 0000.0001)     ;
(PID.TID 0000.0001) dxC =  /* dxC(1,:,1,:) ( units: m ) */
(PID.TID 0000.0001)                 2.071567651695695E+04,      /* J =  1 */
(PID.TID 0000.0001)                 2.109563672137949E+04,      /* J =  2 */
(PID.TID 0000.0001)                 2.149002149497106E+04,      /* J =  3 */
(PID.TID 0000.0001)                 2.189882927482529E+04,      /* J =  4 */
(PID.TID 0000.0001)                 2.232205646389843E+04,      /* J =  5 */
(PID.TID 0000.0001)                 2.275969855854128E+04,      /* J =  6 */
(PID.TID 0000.0001)                 2.321175117362029E+04,      /* J =  7 */
(PID.TID 0000.0001)                 2.367821096276529E+04,      /* J =  8 */
(PID.TID 0000.0001)                 2.415907643347346E+04,      /* J =  9 */
(PID.TID 0000.0001)                 2.465434865814045E+04,      /* J = 10 */
(PID.TID 0000.0001)                 2.516403188365780E+04,      /* J = 11 */
(PID.TID 0000.0001)                 2.568813404310613E+04,      /* J = 12 */
(PID.TID 0000.0001)                 2.622666717399572E+04,      /* J = 13 */
(PID.TID 0000.0001)                 2.677964774799169E+04,      /* J = 14 */
(PID.TID 0000.0001)                 2.734709691757753E+04,      /* J = 15 */
(PID.TID 0000.0001)                 2.792904068517491E+04,      /* J = 16 */
(PID.TID 0000.0001)                 2.852551000032625E+04,      /* J = 17 */
(PID.TID 0000.0001)                 2.913654079081990E+04,      /* J = 18 */
(PID.TID 0000.0001)                 2.976217393306023E+04,      /* J = 19 */
(PID.TID 0000.0001)                 3.040245516699173E+04,      /* J = 20 */
(PID.TID 0000.0001)                 3.105743496108396E+04,      /* J = 21 */
(PID.TID 0000.0001)                 3.172716833208323E+04,      /* J = 22 */
(PID.TID 0000.0001)                 3.241171462422546E+04,      /* J = 23 */
(PID.TID 0000.0001)                 3.311113725244482E+04,      /* J = 24 */
(PID.TID 0000.0001)                 3.382550341391024E+04,      /* J = 25 */
(PID.TID 0000.0001)                 3.455488377140061E+04,      /* J = 26 */
(PID.TID 0000.0001)                 3.529935211332738E+04,      /* J = 27 */
(PID.TID 0000.0001)                 3.605898499520765E+04,      /* J = 28 */
(PID.TID 0000.0001)                 3.683386137397906E+04,      /* J = 29 */
(PID.TID 0000.0001)                 3.762406228407349E+04       /* J = 30 */
(PID.TID 0000.0001)     ;
(PID.TID 0000.0001) dyC =  /* dyC(:,1,:,1) ( units: m ) */
(PID.TID 0000.0001)                 3.678277710845771E+04,      /* I =  1 */
(PID.TID 0000.0001)                 3.685438685866048E+04,      /* I =  2 */
(PID.TID 0000.0001)                 3.692002588020908E+04,      /* I =  3 */
(PID.TID 0000.0001)                 3.697969453541307E+04,      /* I =  4 */
(PID.TID 0000.0001)                 3.703339337607873E+04,      /* I =  5 */
(PID.TID 0000.0001)                 3.708112307814123E+04,      /* I =  6 */
(PID.TID 0000.0001)                 3.712288438364359E+04,      /* I =  7 */
(PID.TID 0000.0001)                 3.715867804995441E+04,      /* I =  8 */
(PID.TID 0000.0001)                 3.718850480589901E+04,      /* I =  9 */
(PID.TID 0000.0001)                 3.721236531452968E+04,      /* I = 10 */
(PID.TID 0000.0001)                 3.723026014246432E+04,      /* I = 11 */
(PID.TID 0000.0001)                 3.724218973548726E+04,      /* I = 12 */
(PID.TID 0000.0001)     2 @  3.724815440020872E+04,             /* I = 13: 14 */
(PID.TID 0000.0001)                 3.724218973548726E+04,      /* I = 15 */
(PID.TID 0000.0001)                 3.723026014246432E+04,      /* I = 16 */
(PID.TID 0000.0001)                 3.721236531452968E+04,      /* I = 17 */
(PID.TID 0000.0001)                 3.718850480589901E+04,      /* I = 18 */
(PID.TID 0000.0001)                 3.715867804995440E+04,      /* I = 19 */
(PID.TID 0000.0001)                 3.712288438364359E+04,      /* I = 20 */
(PID.TID 0000.0001)                 3.708112307814122E+04,      /* I = 21 */
(PID.TID 0000.0001)                 3.703339337607873E+04,      /* I = 22 */
(PID.TID 0000.0001)                 3.697969453541307E+04,      /* I = 23 */
(PID.TID 0000.0001)                 3.692002588020908E+04,      /* I = 24 */
(PID.TID 0000.0001)                 3.685438685866047E+04,      /* I = 25 */
(PID.TID 0000.0001)                 3.678277710845772E+04,      /* I = 26 */
(PID.TID 0000.0001)                 3.670519653011381E+04,      /* I = 27 */
(PID.TID 0000.0001)                 3.662164536844059E+04,      /* I = 28 */
(PID.TID 0000.0001)                 3.653212430257830E+04,      /* I = 29 */
(PID.TID 0000.0001)                 3.643663454523116E+04       /* I = 30 */
(PID.TID 0000.0001)     ;
(PID.TID 0000.0001) dyC =  /* dyC(1,:,1,:) ( units: m ) */
(PID.TID 0000.0001)                 3.678277710845771E+04,      /* J =  1 */
(PID.TID 0000.0001)                 3.723168694115569E+04,      /* J =  2 */
(PID.TID 0000.0001)                 3.767901897410101E+04,      /* J =  3 */
(PID.TID 0000.0001)                 3.812467364657602E+04,      /* J =  4 */
(PID.TID 0000.0001)                 3.856855210935249E+04,      /* J =  5 */
(PID.TID 0000.0001)                 3.901055633269680E+04,      /* J =  6 */
(PID.TID 0000.0001)                 3.945058917911859E+04,      /* J =  7 */
(PID.TID 0000.0001)                 3.988855443472220E+04,      /* J =  8 */
(PID.TID 0000.0001)                 4.032435681898361E+04,      /* J =  9 */
(PID.TID 0000.0001)                 4.075790196435841E+04,      /* J = 10 */
(PID.TID 0000.0001)                 4.118909638222960E+04,      /* J = 11 */
(PID.TID 0000.0001)                 4.161784741043697E+04,      /* J = 12 */
(PID.TID 0000.0001)                 4.204406315499045E+04,      /* J = 13 */
(PID.TID 0000.0001)                 4.246765242091182E+04,      /* J = 14 */
(PID.TID 0000.0001)                 4.288852464034393E+04,      /* J = 15 */
(PID.TID 0000.0001)                 4.330658981118225E+04,      /* J = 16 */
(PID.TID 0000.0001)                 4.372175841431943E+04,      /* J = 17 */
(PID.TID 0000.0001)                 4.413394136293020E+04,      /* J = 18 */
(PID.TID 0000.0001)                 4.454304993440304E+04,      /* J = 19 */
(PID.TID 0000.0001)                 4.494899572325061E+04,      /* J = 20 */
(PID.TID 0000.0001)                 4.535169059286820E+04,      /* J = 21 */
(PID.TID 0000.0001)                 4.575104664412256E+04,      /* J = 22 */
(PID.TID 0000.0001)                 4.614697618947234E+04,      /* J = 23 */
(PID.TID 0000.0001)                 4.653939173844085E+04,      /* J = 24 */
(PID.TID 0000.0001)                 4.692820600744408E+04,      /* J = 25 */
(PID.TID 0000.0001)                 4.731333194957835E+04,      /* J = 26 */
(PID.TID 0000.0001)                 4.769468283927006E+04,      /* J = 27 */
(PID.TID 0000.0001)                 4.807217249390641E+04,      /* J = 28 */
(PID.TID 0000.0001)                 4.844571593362943E+04,      /* J = 29 */
(PID.TID 0000.0001)                 4.881523285497380E+04       /* J = 30 */
(PID.TID 0000.0001)     ;
(PID.TID 0000.0001) dxV =  /* dxV(:,1,:,1) ( units: m ) */
(PID.TID 0000.0001)                 2.053110526075532E+04,      /* I =  1 */
(PID.TID 0000.0001)                 2.052326088418283E+04,      /* I =  2 */
(PID.TID 0000.0001)                 2.051595672244828E+04,      /* I =  3 */
(PID.TID 0000.0001)                 2.050921502797681E+04,      /* I =  4 */
(PID.TID 0000.0001)                 2.050305593886370E+04,      /* I =  5 */
(PID.TID 0000.0001)                 2.049749752783181E+04,      /* I =  6 */
(PID.TID 0000.0001)                 2.049255584793284E+04,      /* I =  7 */
(PID.TID 0000.0001)                 2.048824497292525E+04,      /* I =  8 */
(PID.TID 0000.0001)                 2.048457703515834E+04,      /* I =  9 */
(PID.TID 0000.0001)                 2.048156226915133E+04,      /* I = 10 */
(PID.TID 0000.0001)                 2.047920906551970E+04,      /* I = 11 */
(PID.TID 0000.0001)                 2.047752414469434E+04,      /* I = 12 */
(PID.TID 0000.0001)                 2.047651405696554E+04,      /* I = 13 */
(PID.TID 0000.0001)                 2.047614194664622E+04,      /* I = 14 */
(PID.TID 0000.0001)                 2.047651405696559E+04,      /* I = 15 */
(PID.TID 0000.0001)                 2.047752414469430E+04,      /* I = 16 */
(PID.TID 0000.0001)                 2.047920906551971E+04,      /* I = 17 */
(PID.TID 0000.0001)                 2.048156226915138E+04,      /* I = 18 */
(PID.TID 0000.0001)                 2.048457703515829E+04,      /* I = 19 */
(PID.TID 0000.0001)                 2.048824497292535E+04,      /* I = 20 */
(PID.TID 0000.0001)                 2.049255584793274E+04,      /* I = 21 */
(PID.TID 0000.0001)                 2.049749752783187E+04,      /* I = 22 */
(PID.TID 0000.0001)                 2.050305593886373E+04,      /* I = 23 */
(PID.TID 0000.0001)                 2.050921502797675E+04,      /* I = 24 */
(PID.TID 0000.0001)                 2.051595672244826E+04,      /* I = 25 */
(PID.TID 0000.0001)                 2.052326088418290E+04,      /* I = 26 */
(PID.TID 0000.0001)                 2.053110526075532E+04,      /* I = 27 */
(PID.TID 0000.0001)                 2.053946543494557E+04,      /* I = 28 */
(PID.TID 0000.0001)                 2.054831476098181E+04,      /* I = 29 */
(PID.TID 0000.0001)                 2.055762430839241E+04       /* I = 30 */
(PID.TID 0000.0001)     ;
(PID.TID 0000.0001) dxV =  /* dxV(1,:,1,:) ( units: m ) */
(PID.TID 0000.0001)                 2.053110526075532E+04,      /* J =  1 */
(PID.TID 0000.0001)                 2.090385356266093E+04,      /* J =  2 */
(PID.TID 0000.0001)                 2.129102607314009E+04,      /* J =  3 */
(PID.TID 0000.0001)                 2.169262269996662E+04,      /* J =  4 */
(PID.TID 0000.0001)                 2.210864071595607E+04,      /* J =  5 */
(PID.TID 0000.0001)                 2.253907593617405E+04,      /* J =  6 */
(PID.TID 0000.0001)                 2.298392379458377E+04,      /* J =  7 */
(PID.TID 0000.0001)                 2.344318031700113E+04,      /* J =  8 */
(PID.TID 0000.0001)                 2.391684298864163E+04,      /* J =  9 */
(PID.TID 0000.0001)                 2.440491151699962E+04,      /* J = 10 */
(PID.TID 0000.0001)                 2.490738849171163E+04,      /* J = 11 */
(PID.TID 0000.0001)                 2.542427994477456E+04,      /* J = 12 */
(PID.TID 0000.0001)                 2.595559581485789E+04,      /* J = 13 */
(PID.TID 0000.0001)                 2.650135032062733E+04,      /* J = 14 */
(PID.TID 0000.0001)                 2.706156224833991E+04,      /* J = 15 */
(PID.TID 0000.0001)                 2.763625515890197E+04,      /* J = 16 */
(PID.TID 0000.0001)                 2.822545752042790E+04,      /* J = 17 */
(PID.TID 0000.0001)                 2.882920277162976E+04,      /* J = 18 */
(PID.TID 0000.0001)                 2.944752932187136E+04,      /* J = 19 */
(PID.TID 0000.0001)                 3.008048049319959E+04,      /* J = 20 */
(PID.TID 0000.0001)                 3.072810440966728E+04,      /* J = 21 */
(PID.TID 0000.0001)                 3.139045383903842E+04,      /* J = 22 */
(PID.TID 0000.0001)                 3.206758599174654E+04,      /* J = 23 */
(PID.TID 0000.0001)                 3.275956228156967E+04,      /* J = 24 */
(PID.TID 0000.0001)                 3.346644805244220E+04,      /* J = 25 */
(PID.TID 0000.0001)                 3.418831227550044E+04,      /* J = 26 */
(PID.TID 0000.0001)                 3.492522722017510E+04,      /* J = 27 */
(PID.TID 0000.0001)                 3.567726810399632E+04,      /* J = 28 */
(PID.TID 0000.0001)                 3.644451272859776E+04,      /* J = 29 */
(PID.TID 0000.0001)                 3.722704112152557E+04       /* J = 30 */
(PID.TID 0000.0001)     ;
(PID.TID 0000.0001) dyU =  /* dyU(:,1,:,1) ( units: m ) */
(PID.TID 0000.0001)                 3.674473316658630E+04,      /* I =  1 */
(PID.TID 0000.0001)                 3.681932833792822E+04,      /* I =  2 */
(PID.TID 0000.0001)                 3.688795269313092E+04,      /* I =  3 */
(PID.TID 0000.0001)                 3.695060647275718E+04,      /* I =  4 */
(PID.TID 0000.0001)                 3.700729014250917E+04,      /* I =  5 */
(PID.TID 0000.0001)                 3.705800432398131E+04,      /* I =  6 */
(PID.TID 0000.0001)                 3.710274973294064E+04,      /* I =  7 */
(PID.TID 0000.0001)                 3.714152712500728E+04,      /* I =  8 */
(PID.TID 0000.0001)                 3.717433724834998E+04,      /* I =  9 */
(PID.TID 0000.0001)                 3.720118080314009E+04,      /* I = 10 */
(PID.TID 0000.0001)                 3.722205840764935E+04,      /* I = 11 */
(PID.TID 0000.0001)                 3.723697057073888E+04,      /* I = 12 */
(PID.TID 0000.0001)                 3.724591767054543E+04,      /* I = 13 */
(PID.TID 0000.0001)                 3.724891083990022E+04,      /* I = 14 */
(PID.TID 0000.0001)                 3.724591767054542E+04,      /* I = 15 */
(PID.TID 0000.0001)                 3.723697057073889E+04,      /* I = 16 */
(PID.TID 0000.0001)                 3.722205840764935E+04,      /* I = 17 */
(PID.TID 0000.0001)                 3.720118080314008E+04,      /* I = 18 */
(PID.TID 0000.0001)                 3.717433724834998E+04,      /* I = 19 */
(PID.TID 0000.0001)                 3.714152712500728E+04,      /* I = 20 */
(PID.TID 0000.0001)                 3.710274973294063E+04,      /* I = 21 */
(PID.TID 0000.0001)                 3.705800432398131E+04,      /* I = 22 */
(PID.TID 0000.0001)                 3.700729014250917E+04,      /* I = 23 */
(PID.TID 0000.0001)                 3.695060647275716E+04,      /* I = 24 */
(PID.TID 0000.0001)                 3.688795269313094E+04,      /* I = 25 */
(PID.TID 0000.0001)                 3.681932833792821E+04,      /* I = 26 */
(PID.TID 0000.0001)                 3.674473316658630E+04,      /* I = 27 */
(PID.TID 0000.0001)                 3.666416724104654E+04,      /* I = 28 */
(PID.TID 0000.0001)                 3.657763101146962E+04,      /* I = 29 */
(PID.TID 0000.0001)                 3.648512541079492E+04       /* I = 30 */
(PID.TID 0000.0001)     ;
(PID.TID 0000.0001) dyU =  /* dyU(1,:,1,:) ( units: m ) */
(PID.TID 0000.0001)                 3.674473316658630E+04,      /* J =  1 */
(PID.TID 0000.0001)                 3.719361547538896E+04,      /* J =  2 */
(PID.TID 0000.0001)                 3.764089459751266E+04,      /* J =  3 */
(PID.TID 0000.0001)                 3.808646730382765E+04,      /* J =  4 */
(PID.TID 0000.0001)                 3.853023123895088E+04,      /* J =  5 */
(PID.TID 0000.0001)                 3.897208503739593E+04,      /* J =  6 */
(PID.TID 0000.0001)                 3.941192840112046E+04,      /* J =  7 */
(PID.TID 0000.0001)                 3.984966213263487E+04,      /* J =  8 */
(PID.TID 0000.0001)                 4.028518814419441E+04,      /* J =  9 */
(PID.TID 0000.0001)                 4.071840943468107E+04,      /* J = 10 */
(PID.TID 0000.0001)                 4.114923005120406E+04,      /* J = 11 */
(PID.TID 0000.0001)                 4.157755503103340E+04,      /* J = 12 */
(PID.TID 0000.0001)                 4.200329033666767E+04,      /* J = 13 */
(PID.TID 0000.0001)                 4.242634277960793E+04,      /* J = 14 */
(PID.TID 0000.0001)                 4.284661994092684E+04,      /* J = 15 */
(PID.TID 0000.0001)                 4.326403010205203E+04,      /* J = 16 */
(PID.TID 0000.0001)                 4.367848215462093E+04,      /* J = 17 */
(PID.TID 0000.0001)                 4.408988554208750E+04,      /* J = 18 */
(PID.TID 0000.0001)                 4.449815018464295E+04,      /* J = 19 */
(PID.TID 0000.0001)                 4.490318642518511E+04,      /* J = 20 */
(PID.TID 0000.0001)                 4.530490497491705E+04,      /* J = 21 */
(PID.TID 0000.0001)                 4.570321687598708E+04,      /* J = 22 */
(PID.TID 0000.0001)                 4.609803347024994E+04,      /* J = 23 */
(PID.TID 0000.0001)                 4.648926637992392E+04,      /* J = 24 */
(PID.TID 0000.0001)                 4.687682751321772E+04,      /* J = 25 */
(PID.TID 0000.0001)                 4.726062909013533E+04,      /* J = 26 */
(PID.TID 0000.0001)                 4.764058372401170E+04,      /* J = 27 */
(PID.TID 0000.0001)                 4.801660464021451E+04,      /* J = 28 */
(PID.TID 0000.0001)                 4.838860633247659E+04,      /* J = 29 */
(PID.TID 0000.0001)                 4.875650803021456E+04       /* J = 30 */
(PID.TID 0000.0001)     ;
(PID.TID 0000.0001) rA  =  /* rA (:,1,:,1) ( units: m^2 ) */
(PID.TID 0000.0001)                 7.665113621396177E+08,      /* I =  1 */
(PID.TID 0000.0001)                 7.677029697239892E+08,      /* I =  2 */
(PID.TID 0000.0001)                 7.687913877455838E+08,      /* I =  3 */
(PID.TID 0000.0001)                 7.697775979751738E+08,      /* I =  4 */
(PID.TID 0000.0001)                 7.706625466485583E+08,      /* I =  5 */
(PID.TID 0000.0001)                 7.714470546020026E+08,      /* I =  6 */
(PID.TID 0000.0001)                 7.721318586456149E+08,      /* I =  7 */
(PID.TID 0000.0001)                 7.727176271684608E+08,      /* I =  8 */
(PID.TID 0000.0001)                 7.732049082776864E+08,      /* I =  9 */
(PID.TID 0000.0001)                 7.735941717305043E+08,      /* I = 10 */
(PID.TID 0000.0001)                 7.738858051500469E+08,      /* I = 11 */
(PID.TID 0000.0001)                 7.740801100790358E+08,      /* I = 12 */
(PID.TID 0000.0001)                 7.741766386182301E+08,      /* I = 13 */
(PID.TID 0000.0001)                 7.741766369784317E+08,      /* I = 14 */
(PID.TID 0000.0001)                 7.740801094843833E+08,      /* I = 15 */
(PID.TID 0000.0001)                 7.738858062852919E+08,      /* I = 16 */
(PID.TID 0000.0001)                 7.735941726495122E+08,      /* I = 17 */
(PID.TID 0000.0001)                 7.732049061873938E+08,      /* I = 18 */
(PID.TID 0000.0001)                 7.727176277450933E+08,      /* I = 19 */
(PID.TID 0000.0001)                 7.721318658895597E+08,      /* I = 20 */
(PID.TID 0000.0001)                 7.714470531424019E+08,      /* I = 21 */
(PID.TID 0000.0001)                 7.706625470810328E+08,      /* I = 22 */
(PID.TID 0000.0001)                 7.697776024260553E+08,      /* I = 23 */
(PID.TID 0000.0001)                 7.687913844659867E+08,      /* I = 24 */
(PID.TID 0000.0001)                 7.677029712196296E+08,      /* I = 25 */
(PID.TID 0000.0001)                 7.665113646083255E+08,      /* I = 26 */
(PID.TID 0000.0001)                 7.652154604170089E+08,      /* I = 27 */
(PID.TID 0000.0001)                 7.638140926048064E+08,      /* I = 28 */
(PID.TID 0000.0001)                 7.623059927966076E+08,      /* I = 29 */
(PID.TID 0000.0001)                 7.606898330980235E+08       /* I = 30 */
(PID.TID 0000.0001)     ;
(PID.TID 0000.0001) rA  =  /* rA (1,:,1,:) ( units: m^2 ) */
(PID.TID 0000.0001)                 7.665113621396177E+08,      /* J =  1 */
(PID.TID 0000.0001)                 7.900134359449342E+08,      /* J =  2 */
(PID.TID 0000.0001)                 8.143679155417176E+08,      /* J =  3 */
(PID.TID 0000.0001)                 8.395900636155584E+08,      /* J =  4 */
(PID.TID 0000.0001)                 8.656947784023314E+08,      /* J =  5 */
(PID.TID 0000.0001)                 8.926966010402582E+08,      /* J =  6 */
(PID.TID 0000.0001)                 9.206097737377057E+08,      /* J =  7 */
(PID.TID 0000.0001)                 9.494482582794807E+08,      /* J =  8 */
(PID.TID 0000.0001)                 9.792257431806778E+08,      /* J =  9 */
(PID.TID 0000.0001)                 1.009955679131553E+09,      /* J = 10 */
(PID.TID 0000.0001)                 1.041651296044221E+09,      /* J = 11 */
(PID.TID 0000.0001)                 1.074325614369065E+09,      /* J = 12 */
(PID.TID 0000.0001)                 1.107991467925779E+09,      /* J = 13 */
(PID.TID 0000.0001)                 1.142661498173082E+09,      /* J = 14 */
(PID.TID 0000.0001)                 1.178348167164929E+09,      /* J = 15 */
(PID.TID 0000.0001)                 1.215063762235644E+09,      /* J = 16 */
(PID.TID 0000.0001)                 1.252820414073754E+09,      /* J = 17 */
(PID.TID 0000.0001)                 1.291630043617734E+09,      /* J = 18 */
(PID.TID 0000.0001)                 1.331504416619858E+09,      /* J = 19 */
(PID.TID 0000.0001)                 1.372455096362339E+09,      /* J = 20 */
(PID.TID 0000.0001)                 1.414493440828222E+09,      /* J = 21 */
(PID.TID 0000.0001)                 1.457630613639386E+09,      /* J = 22 */
(PID.TID 0000.0001)                 1.501877517761831E+09,      /* J = 23 */
(PID.TID 0000.0001)                 1.547244834049951E+09,      /* J = 24 */
(PID.TID 0000.0001)                 1.593742963439136E+09,      /* J = 25 */
(PID.TID 0000.0001)                 1.641382020566774E+09,      /* J = 26 */
(PID.TID 0000.0001)                 1.690171807481416E+09,      /* J = 27 */
(PID.TID 0000.0001)                 1.740121820832662E+09,      /* J = 28 */
(PID.TID 0000.0001)                 1.791241246411172E+09,      /* J = 29 */
(PID.TID 0000.0001)                 1.843539059771026E+09       /* J = 30 */
(PID.TID 0000.0001)     ;
(PID.TID 0000.0001) rAw =  /* rAw(:,1,:,1) ( units: m^2 ) */
(PID.TID 0000.0001)                 7.658765213139513E+08,      /* I =  1 */
(PID.TID 0000.0001)                 7.671201328724998E+08,      /* I =  2 */
(PID.TID 0000.0001)                 7.682600121490355E+08,      /* I =  3 */
(PID.TID 0000.0001)                 7.692972101823016E+08,      /* I =  4 */
(PID.TID 0000.0001)                 7.702326756407654E+08,      /* I =  5 */
(PID.TID 0000.0001)                 7.710673044850856E+08,      /* I =  6 */
(PID.TID 0000.0001)                 7.718018764844863E+08,      /* I =  7 */
(PID.TID 0000.0001)                 7.724370884091616E+08,      /* I =  8 */
(PID.TID 0000.0001)                 7.729735468223690E+08,      /* I =  9 */
(PID.TID 0000.0001)                 7.734117650170708E+08,      /* I = 10 */
(PID.TID 0000.0001)                 7.737521718456172E+08,      /* I = 11 */
(PID.TID 0000.0001)                 7.739951054308500E+08,      /* I = 12 */
(PID.TID 0000.0001)                 7.741408739107244E+08,      /* I = 13 */
(PID.TID 0000.0001)                 7.741880730050739E+08,      /* I = 14 */
(PID.TID 0000.0001)                 7.741408710636016E+08,      /* I = 15 */
(PID.TID 0000.0001)                 7.739951071427275E+08,      /* I = 16 */
(PID.TID 0000.0001)                 7.737521718095777E+08,      /* I = 17 */
(PID.TID 0000.0001)                 7.734117675938969E+08,      /* I = 18 */
(PID.TID 0000.0001)                 7.729735457051437E+08,      /* I = 19 */
(PID.TID 0000.0001)                 7.724370889497546E+08,      /* I = 20 */
(PID.TID 0000.0001)                 7.718018793856685E+08,      /* I = 21 */
(PID.TID 0000.0001)                 7.710673053320146E+08,      /* I = 22 */
(PID.TID 0000.0001)                 7.702326816053071E+08,      /* I = 23 */
(PID.TID 0000.0001)                 7.692972065242898E+08,      /* I = 24 */
(PID.TID 0000.0001)                 7.682600115363635E+08,      /* I = 25 */
(PID.TID 0000.0001)                 7.671201363863536E+08,      /* I = 26 */
(PID.TID 0000.0001)                 7.658765213499908E+08,      /* I = 27 */
(PID.TID 0000.0001)                 7.645280345158333E+08,      /* I = 28 */
(PID.TID 0000.0001)                 7.630734673343852E+08,      /* I = 29 */
(PID.TID 0000.0001)                 7.615115062009304E+08       /* I = 30 */
(PID.TID 0000.0001)     ;
(PID.TID 0000.0001) rAw =  /* rAw(1,:,1,:) ( units: m^2 ) */
(PID.TID 0000.0001)                 7.658765213139513E+08,      /* J =  1 */
(PID.TID 0000.0001)                 7.893768970448780E+08,      /* J =  2 */
(PID.TID 0000.0001)                 8.137283914516071E+08,      /* J =  3 */
(PID.TID 0000.0001)                 8.389460603348250E+08,      /* J =  4 */
(PID.TID 0000.0001)                 8.650445848102766E+08,      /* J =  5 */
(PID.TID 0000.0001)                 8.920382782103341E+08,      /* J =  6 */
(PID.TID 0000.0001)                 9.199411445401106E+08,      /* J =  7 */
(PID.TID 0000.0001)                 9.487668893433769E+08,      /* J =  8 */
(PID.TID 0000.0001)                 9.785289545527842E+08,      /* J =  9 */
(PID.TID 0000.0001)                 1.009240515336406E+09,      /* J = 10 */
(PID.TID 0000.0001)                 1.040914522930714E+09,      /* J = 11 */
(PID.TID 0000.0001)                 1.073563715488477E+09,      /* J = 12 */
(PID.TID 0000.0001)                 1.107200612276400E+09,      /* J = 13 */
(PID.TID 0000.0001)                 1.141837554111466E+09,      /* J = 14 */
(PID.TID 0000.0001)                 1.177486672294872E+09,      /* J = 15 */
(PID.TID 0000.0001)                 1.214159933192917E+09,      /* J = 16 */
(PID.TID 0000.0001)                 1.251869095602249E+09,      /* J = 17 */
(PID.TID 0000.0001)                 1.290625742284441E+09,      /* J = 18 */
(PID.TID 0000.0001)                 1.330441258846839E+09,      /* J = 19 */
(PID.TID 0000.0001)                 1.371326820624166E+09,      /* J = 20 */
(PID.TID 0000.0001)                 1.413293399742275E+09,      /* J = 21 */
(PID.TID 0000.0001)                 1.456351737475827E+09,      /* J = 22 */
(PID.TID 0000.0001)                 1.500512320083793E+09,      /* J = 23 */
(PID.TID 0000.0001)                 1.545785394792978E+09,      /* J = 24 */
(PID.TID 0000.0001)                 1.592180902277974E+09,      /* J = 25 */
(PID.TID 0000.0001)                 1.639708504465653E+09,      /* J = 26 */
(PID.TID 0000.0001)                 1.688377519501836E+09,      /* J = 27 */
(PID.TID 0000.0001)                 1.738196956421325E+09,      /* J = 28 */
(PID.TID 0000.0001)                 1.789175499722981E+09,      /* J = 29 */
(PID.TID 0000.0001)                 1.841321602441802E+09       /* J = 30 */
(PID.TID 0000.0001)     ;
(PID.TID 0000.0001) rAs =  /* rAs(:,1,:,1) ( units: m^2 ) */
(PID.TID 0000.0001)                 7.550751050606852E+08,      /* I =  1 */
(PID.TID 0000.0001)                 7.562658447772087E+08,      /* I =  2 */
(PID.TID 0000.0001)                 7.573533970032284E+08,      /* I =  3 */
(PID.TID 0000.0001)                 7.583387692957978E+08,      /* I =  4 */
(PID.TID 0000.0001)                 7.592229121974397E+08,      /* I =  5 */
(PID.TID 0000.0001)                 7.600066705467438E+08,      /* I =  6 */
(PID.TID 0000.0001)                 7.606907923080522E+08,      /* I =  7 */
(PID.TID 0000.0001)                 7.612759532224941E+08,      /* I =  8 */
(PID.TID 0000.0001)                 7.617627129118443E+08,      /* I =  9 */
(PID.TID 0000.0001)                 7.621515550445726E+08,      /* I = 10 */
(PID.TID 0000.0001)                 7.624428588466020E+08,      /* I = 11 */
(PID.TID 0000.0001)                 7.626369483673384E+08,      /* I = 12 */
(PID.TID 0000.0001)                 7.627333738515058E+08,      /* I = 13 */
(PID.TID 0000.0001)                 7.627333728604188E+08,      /* I = 14 */
(PID.TID 0000.0001)                 7.626369508901051E+08,      /* I = 15 */
(PID.TID 0000.0001)                 7.624428655319341E+08,      /* I = 16 */
(PID.TID 0000.0001)                 7.621515526659639E+08,      /* I = 17 */
(PID.TID 0000.0001)                 7.617627197953936E+08,      /* I = 18 */
(PID.TID 0000.0001)                 7.612759510961621E+08,      /* I = 19 */
(PID.TID 0000.0001)                 7.606907969030919E+08,      /* I = 20 */
(PID.TID 0000.0001)                 7.600066694295187E+08,      /* I = 21 */
(PID.TID 0000.0001)                 7.592229103594238E+08,      /* I = 22 */
(PID.TID 0000.0001)                 7.583387684488690E+08,      /* I = 23 */
(PID.TID 0000.0001)                 7.573533915792797E+08,      /* I = 24 */
(PID.TID 0000.0001)                 7.562658465071062E+08,      /* I = 25 */
(PID.TID 0000.0001)                 7.550751079979067E+08,      /* I = 26 */
(PID.TID 0000.0001)                 7.537800585200102E+08,      /* I = 27 */
(PID.TID 0000.0001)                 7.523795064624999E+08,      /* I = 28 */
(PID.TID 0000.0001)                 7.508721675027735E+08,      /* I = 29 */
(PID.TID 0000.0001)                 7.492566800675046E+08       /* I = 30 */
(PID.TID 0000.0001)     ;
(PID.TID 0000.0001) rAs =  /* rAs(1,:,1,:) ( units: m^2 ) */
(PID.TID 0000.0001)                 7.550751050606852E+08,      /* J =  1 */
(PID.TID 0000.0001)                 7.781568160584769E+08,      /* J =  2 */
(PID.TID 0000.0001)                 8.020831616625657E+08,      /* J =  3 */
(PID.TID 0000.0001)                 8.268695937660589E+08,      /* J =  4 */
(PID.TID 0000.0001)                 8.525311818286231E+08,      /* J =  5 */
(PID.TID 0000.0001)                 8.790826547724357E+08,      /* J =  6 */
(PID.TID 0000.0001)                 9.065383887828039E+08,      /* J =  7 */
(PID.TID 0000.0001)                 9.349124897125442E+08,      /* J =  8 */
(PID.TID 0000.0001)                 9.642187819277472E+08,      /* J =  9 */
(PID.TID 0000.0001)                 9.944708240750725E+08,      /* J = 10 */
(PID.TID 0000.0001)                 1.025681954725808E+09,      /* J = 11 */
(PID.TID 0000.0001)                 1.057865313008499E+09,      /* J = 12 */
(PID.TID 0000.0001)                 1.091033805921100E+09,      /* J = 13 */
(PID.TID 0000.0001)                 1.125200178247652E+09,      /* J = 14 */
(PID.TID 0000.0001)                 1.160376979600140E+09,      /* J = 15 */
(PID.TID 0000.0001)                 1.196576586510721E+09,      /* J = 16 */
(PID.TID 0000.0001)                 1.233811208089928E+09,      /* J = 17 */
(PID.TID 0000.0001)                 1.272092866313053E+09,      /* J = 18 */
(PID.TID 0000.0001)                 1.311433405822894E+09,      /* J = 19 */
(PID.TID 0000.0001)                 1.351844507714875E+09,      /* J = 20 */
(PID.TID 0000.0001)                 1.393337606051485E+09,      /* J = 21 */
(PID.TID 0000.0001)                 1.435923987908001E+09,      /* J = 22 */
(PID.TID 0000.0001)                 1.479614675036705E+09,      /* J = 23 */
(PID.TID 0000.0001)                 1.524420466465598E+09,      /* J = 24 */
(PID.TID 0000.0001)                 1.570351910729954E+09,      /* J = 25 */
(PID.TID 0000.0001)                 1.617419255741331E+09,      /* J = 26 */
(PID.TID 0000.0001)                 1.665632470339211E+09,      /* J = 27 */
(PID.TID 0000.0001)                 1.715001205152071E+09,      /* J = 28 */
(PID.TID 0000.0001)                 1.765534790867491E+09,      /* J = 29 */
(PID.TID 0000.0001)                 1.817242347954489E+09       /* J = 30 */
(PID.TID 0000.0001)     ;
(PID.TID 0000.0001) globalArea = /* Integrated horizontal Area (m^2) */
(PID.TID 0000.0001)                 3.580138611494435E+14
(PID.TID 0000.0001)     ;
(PID.TID 0000.0001) hasWetCSCorners = /* Domain contains CS corners (True/False) */
(PID.TID 0000.0001)                   F
(PID.TID 0000.0001)     ;
(PID.TID 0000.0001) // =======================================================
(PID.TID 0000.0001) // End of Model config. summary
(PID.TID 0000.0001) // =======================================================
(PID.TID 0000.0001) 
(PID.TID 0000.0001) == Packages configuration : Check & print summary ==
(PID.TID 0000.0001) 
(PID.TID 0000.0001) GGL90_CHECK: #define ALLOW_GGL90
(PID.TID 0000.0001) GGL90_CHECK: Some form of convection has been enabled
(PID.TID 0000.0001) GMREDI_CHECK: #define GMREDI
(PID.TID 0000.0001) GM_AdvForm =     /* if FALSE => use SkewFlux Form */
(PID.TID 0000.0001)                   T
(PID.TID 0000.0001)     ;
(PID.TID 0000.0001) GM_InMomAsStress = /* if TRUE => apply as Eddy Stress */
(PID.TID 0000.0001)                   F
(PID.TID 0000.0001)     ;
(PID.TID 0000.0001) GM_AdvSeparate = /* Calc Bolus & Euler Adv. separately */
(PID.TID 0000.0001)                   F
(PID.TID 0000.0001)     ;
(PID.TID 0000.0001) GM_ExtraDiag =   /* Tensor Extra Diag (line 1&2) non 0 */
(PID.TID 0000.0001)                   T
(PID.TID 0000.0001)     ;
(PID.TID 0000.0001) GM_isopycK =    /* Background Isopyc. Diffusivity [m^2/s] */
(PID.TID 0000.0001)                 1.000000000000000E+03
(PID.TID 0000.0001)     ;
(PID.TID 0000.0001) GM_skewflx*K =  /* Background GM_SkewFlx Diffusivity [m^2/s] */
(PID.TID 0000.0001)                 0.000000000000000E+00
(PID.TID 0000.0001)     ;
(PID.TID 0000.0001) GM_advec*K =    /* Backg. GM-Advec(=Bolus) Diffusivity [m^2/s]*/
(PID.TID 0000.0001)                 1.000000000000000E+03
(PID.TID 0000.0001)     ;
(PID.TID 0000.0001) GM_Kmin_horiz = /* Minimum Horizontal Diffusivity [m^2/s] */
(PID.TID 0000.0001)                 1.000000000000000E+02
(PID.TID 0000.0001)     ;
(PID.TID 0000.0001) GM_Visbeck_alpha = /* Visbeck alpha coeff. [-] */
(PID.TID 0000.0001)                 0.000000000000000E+00
(PID.TID 0000.0001)     ;
(PID.TID 0000.0001) GM_Small_Number =  /* epsilon used in slope calc */
(PID.TID 0000.0001)                 9.999999999999999E-21
(PID.TID 0000.0001)     ;
(PID.TID 0000.0001) GM_slopeSqCutoff = /* Slope^2 cut-off value */
(PID.TID 0000.0001)                 1.000000000000000E+08
(PID.TID 0000.0001)     ;
(PID.TID 0000.0001) GM_taper_scheme =  /* Type of Tapering/Clipping scheme */
(PID.TID 0000.0001)               'stableGmAdjTap                          '
(PID.TID 0000.0001)     ;
(PID.TID 0000.0001) GM_maxSlope =  /* Maximum Slope (Tapering/Clipping) */
(PID.TID 0000.0001)                 4.000000000000000E-03
(PID.TID 0000.0001)     ;
(PID.TID 0000.0001) GM_facTrL2dz = /* Minimum Trans.Layer Thick. (factor of dz) */
(PID.TID 0000.0001)                 1.000000000000000E+00
(PID.TID 0000.0001)     ;
(PID.TID 0000.0001) GM_facTrL2ML = /* Max.Trans.Layer Thick. (factor of MxL Depth)*/
(PID.TID 0000.0001)                 5.000000000000000E+00
(PID.TID 0000.0001)     ;
(PID.TID 0000.0001) GM_maxTransLay = /* Maximum Transition Layer Thickness [m] */
(PID.TID 0000.0001)                 5.000000000000000E+02
(PID.TID 0000.0001)     ;
(PID.TID 0000.0001) GM_UseBVP = /* if TRUE => use bvp a la Ferrari et al. (2010) */
(PID.TID 0000.0001)                   F
(PID.TID 0000.0001)     ;
(PID.TID 0000.0001) GM_BVP_ModeNumber = /* Vertical mode number for BVP wave speed */
(PID.TID 0000.0001)                       1
(PID.TID 0000.0001)     ;
(PID.TID 0000.0001) GM_BVP_cMin = /* Minimum wave speed for BVP [m/s] */
(PID.TID 0000.0001)                 1.000000000000000E-01
(PID.TID 0000.0001)     ;
(PID.TID 0000.0001) GM_useSubMeso = /* if TRUE => use Sub-Meso param. (B.Fox-Kemper) */
(PID.TID 0000.0001)                   F
(PID.TID 0000.0001)     ;
(PID.TID 0000.0001) subMeso_Ceff = /* efficiency coeff. of Mixed-Layer Eddies [-] */
(PID.TID 0000.0001)                 7.000000000000001E-02
(PID.TID 0000.0001)     ;
(PID.TID 0000.0001) subMeso_invTau = /* inverse of Sub-Meso mixing time-scale [/s] */
(PID.TID 0000.0001)                 2.000000000000000E-06
(PID.TID 0000.0001)     ;
(PID.TID 0000.0001) subMeso_LfMin = /* minimum length-scale "Lf" [m] */
(PID.TID 0000.0001)                 1.000000000000000E+03
(PID.TID 0000.0001)     ;
(PID.TID 0000.0001) subMeso_Lmax = /* maximum grid-scale length [m] */
(PID.TID 0000.0001)                 1.100000000000000E+05
(PID.TID 0000.0001)     ;
(PID.TID 0000.0001) SEAICE_CHECK: #define ALLOW_SEAICE
(PID.TID 0000.0001) CTRL_CHECK: #define ALLOW_CTRL
(PID.TID 0000.0001) GAD_CHECK: #define ALLOW_GENERIC_ADVDIFF
(PID.TID 0000.0001) // =======================================================
(PID.TID 0000.0001) // Check Model config. (CONFIG_CHECK):
(PID.TID 0000.0001) // CONFIG_CHECK : Normal End
(PID.TID 0000.0001) // =======================================================
(PID.TID 0000.0001) 
(PID.TID 0000.0001)  MDS_READ_META: opening file: pickup.0000000001.meta
(PID.TID 0000.0001)  nRecords = 403 ; filePrec =  64 ; fileIter =     26280
(PID.TID 0000.0001)     nDims =   2 , dims:
(PID.TID 0000.0001)    1:  90   1  90
(PID.TID 0000.0001)    2:1170   11170
(PID.TID 0000.0001)     nFlds =  11 , nFl3D =   8 , fields:
(PID.TID 0000.0001)  >Uvel    < >Vvel    < >Theta   < >Salt    < >GuNm1   < >GuNm2   < >GvNm1   < >GvNm2   < >EtaN    < >dEtaHdt < >EtaH    <
(PID.TID 0000.0001) missingVal=  1.00000000000000E+00 ; nTimRec =   1 , timeList:
(PID.TID 0000.0001)   9.460800000000E+07
(PID.TID 0000.0001) READ_MFLDS_3D_RL: read field: "Uvel    ", #   1 in fldList, rec=   1
(PID.TID 0000.0001)  MDS_READ_FIELD: opening global file: pickup.0000000001.data
(PID.TID 0000.0001) READ_MFLDS_3D_RL: read field: "Vvel    ", #   2 in fldList, rec=   2
(PID.TID 0000.0001)  MDS_READ_FIELD: opening global file: pickup.0000000001.data
(PID.TID 0000.0001) READ_MFLDS_3D_RL: read field: "Theta   ", #   3 in fldList, rec=   3
(PID.TID 0000.0001)  MDS_READ_FIELD: opening global file: pickup.0000000001.data
(PID.TID 0000.0001) READ_MFLDS_3D_RL: read field: "Salt    ", #   4 in fldList, rec=   4
(PID.TID 0000.0001)  MDS_READ_FIELD: opening global file: pickup.0000000001.data
(PID.TID 0000.0001) READ_MFLDS_3D_RL: read field: "GuNm1   ", #   5 in fldList, rec=   5
(PID.TID 0000.0001)  MDS_READ_FIELD: opening global file: pickup.0000000001.data
(PID.TID 0000.0001) READ_MFLDS_3D_RL: read field: "GvNm1   ", #   7 in fldList, rec=   7
(PID.TID 0000.0001)  MDS_READ_FIELD: opening global file: pickup.0000000001.data
(PID.TID 0000.0001) READ_MFLDS_3D_RL: read field: "EtaN    ", #   9 in fldList, rec= 401
(PID.TID 0000.0001)  MDS_READ_FIELD: opening global file: pickup.0000000001.data
(PID.TID 0000.0001) READ_MFLDS_3D_RL: read field: "dEtaHdt ", #  10 in fldList, rec= 402
(PID.TID 0000.0001)  MDS_READ_FIELD: opening global file: pickup.0000000001.data
(PID.TID 0000.0001) READ_MFLDS_3D_RL: read field: "EtaH    ", #  11 in fldList, rec= 403
(PID.TID 0000.0001)  MDS_READ_FIELD: opening global file: pickup.0000000001.data
(PID.TID 0000.0001) READ_MFLDS_CHECK: - normal end ; reset MFLDS file-name: pickup.0000000001
(PID.TID 0000.0001)  MDS_READ_FIELD: opening global file: geothermalFlux.bin
(PID.TID 0000.0001)  write diagnostics summary to file ioUnit:     36
Iter.Nb:         1 ; Time(s):  9.0000000000000E+02
------------------------------------------------------------------------
2D/3D diagnostics: Number of lists:     5
------------------------------------------------------------------------
listId=    1 ; file name: surfDiag
 nFlds, nActive,       freq     &     phase        , nLev               
   10  |   10  |      3600.000000         0.000000 |   1
 levels:   1
 diag# | name   |   ipt  |  iMate | kLev|   count |   mate.C|           
    86 |oceQnet |      1 |      0 |   1 |       0 |
    87 |oceQsw  |      2 |      0 |   1 |       0 |
    84 |oceFWflx|      3 |      0 |   1 |       0 |
    85 |oceSflux|      4 |      0 |   1 |       0 |
    80 |oceTAUX |      5 |      6 |   1 |       0 |       0 |
    81 |oceTAUY |      6 |      5 |   1 |       0 |       0 |
    26 |THETA   |      7 |      0 |  50 |       0 |
    27 |SALT    |     57 |      0 |  50 |       0 |
    30 |UVEL    |    107 |    157 |  50 |       0 |       0 |
    31 |VVEL    |    157 |    107 |  50 |       0 |       0 |
------------------------------------------------------------------------
listId=    2 ; file name: iceDiag
 nFlds, nActive,       freq     &     phase        , nLev               
    8  |    8  |      3600.000000         0.000000 |   1
 levels:   1
 diag# | name   |   ipt  |  iMate | kLev|   count |   mate.C|           
   214 |SIarea  |    207 |      0 |   1 |       0 |
   217 |SIheff  |    208 |      0 |   1 |       0 |
   219 |SIhsnow |    209 |      0 |   1 |       0 |
    83 |sIceLoad|    210 |      0 |   1 |       0 |
   223 |SIuice  |    211 |    212 |   1 |       0 |       0 |
   224 |SIvice  |    212 |    211 |   1 |       0 |       0 |
   225 |SItaux  |    213 |    214 |   1 |       0 |       0 |
   226 |SItauy  |    214 |    213 |   1 |       0 |       0 |
------------------------------------------------------------------------
listId=    3 ; file name: iceNcat
 nFlds, nActive,       freq     &     phase        , nLev               
   11  |   11  |      3600.000000         0.000000 |   5
 levels:   1   2   3   4   5
 diag# | name   |   ipt  |  iMate | kLev|   count |   mate.C|           
   285 |SIareaN |    215 |      0 |   5 |       0 |
   284 |SIheffN |    220 |      0 |   5 |       0 |
   286 |SIhsnowN|    225 |      0 |   5 |       0 |
   290 |SIqSnow |    230 |      0 |   5 |       0 |
   291 |SImeltPd|    235 |      0 |   5 |       0 |
   288 |SItIces |    240 |      0 |   5 |       0 |
   292 |SIiceAge|    245 |      0 |   5 |       0 |
   293 |SI_dArea|    250 |      0 |   5 |       0 |
   294 |SI_dHeff|    255 |      0 |   5 |       0 |
   295 |SI_dHsnw|    260 |      0 |   5 |       0 |
   298 |SI_dQSnw|    265 |      0 |   5 |       0 |
------------------------------------------------------------------------
listId=    4 ; file name: iceEnerg
 nFlds, nActive,       freq     &     phase        , nLev               
    2  |    2  |     -3600.000000         0.000000 |  20
 levels:   1   2   3   4   5   6   7   8   9  10  11  12  13  14  15  16  17  18  19  20
 diag# | name   |   ipt  |  iMate | kLev|   count |   mate.C|           
   289 |SIqIce  |    270 |      0 |  20 |       0 |
   297 |SI_dQIce|    290 |      0 |  20 |       0 |
------------------------------------------------------------------------
listId=    5 ; file name: snowEnerg
 nFlds, nActive,       freq     &     phase        , nLev               
    2  |    2  |     -3600.000000         0.000000 |   5
 levels:   1   2   3   4   5
 diag# | name   |   ipt  |  iMate | kLev|   count |   mate.C|           
   290 |SIqSnow |    310 |      0 |   5 |       0 |
   298 |SI_dQSnw|    315 |      0 |   5 |       0 |
------------------------------------------------------------------------
Global & Regional Statistics diagnostics: Number of lists:     1
------------------------------------------------------------------------
listId=   1 ; file name: iceStDiag
 nFlds, nActive,       freq     &     phase        |                    
   21  |   21  |      3600.000000         0.000000 |
 Regions:   0
 diag# | name   |   ipt  |  iMate |    Volume   |   mate-Vol. |         
   214 |SIarea  |      1 |      0 | 0.00000E+00 |
   217 |SIheff  |      2 |      0 | 0.00000E+00 |
   219 |SIhsnow |      3 |      0 | 0.00000E+00 |
    83 |sIceLoad|      4 |      0 | 0.00000E+00 |
   223 |SIuice  |      5 |      0 | 0.00000E+00 |
   224 |SIvice  |      6 |      0 | 0.00000E+00 |
   225 |SItaux  |      7 |      0 | 0.00000E+00 |
   226 |SItauy  |      8 |      0 | 0.00000E+00 |
   285 |SIareaN |      9 |      0 | 0.00000E+00 |
   284 |SIheffN |     14 |      0 | 0.00000E+00 |
   286 |SIhsnowN|     19 |      0 | 0.00000E+00 |
   290 |SIqSnow |     24 |      0 | 0.00000E+00 |
   289 |SIqIce  |     29 |      0 | 0.00000E+00 |
   291 |SImeltPd|     49 |      0 | 0.00000E+00 |
   288 |SItIces |     54 |      0 | 0.00000E+00 |
   292 |SIiceAge|     59 |      0 | 0.00000E+00 |
   293 |SI_dArea|     64 |      0 | 0.00000E+00 |
   294 |SI_dHeff|     69 |      0 | 0.00000E+00 |
   295 |SI_dHsnw|     74 |      0 | 0.00000E+00 |
   298 |SI_dQSnw|     79 |      0 | 0.00000E+00 |
   297 |SI_dQIce|     84 |      0 | 0.00000E+00 |
------------------------------------------------------------------------
(PID.TID 0000.0001)  MDS_READ_FIELD: opening global file: pickup_ggl90.0000000001.data
(PID.TID 0000.0001)  MDS_READ_META: opening file: pickup_seaice.0000000001.meta
(PID.TID 0000.0001)  nRecords =   6 ; filePrec =  64 ; fileIter =     17532
(PID.TID 0000.0001)     nDims =   2 , dims:
(PID.TID 0000.0001)    1:  90   1  90
(PID.TID 0000.0001)    2:1170   11170
(PID.TID 0000.0001)     nFlds =   6 , nFl3D =   0 , fields:
(PID.TID 0000.0001)  >siTICE  < >siAREA  < >siHEFF  < >siHSNOW < >siUICE  < >siVICE  <
(PID.TID 0000.0001) missingVal=  1.00000000000000E+00 ; nTimRec =   1 , timeList:
(PID.TID 0000.0001)   6.311520000000E+07
(PID.TID 0000.0001) READ_MFLDS_3D_RL: field: "siTICES " missing in file: pickup_seaice.0000000001
(PID.TID 0000.0001) READ_MFLDS_LEV_RL: read field: "siTICE  ", #   1 in fldList, rec=   1
(PID.TID 0000.0001)  MDS_READ_FIELD: opening global file: pickup_seaice.0000000001.data
(PID.TID 0000.0001) READ_MFLDS_3D_RL: field: "siAREAn " missing in file: pickup_seaice.0000000001
(PID.TID 0000.0001) READ_MFLDS_3D_RL: read field: "siAREA  ", #   2 in fldList, rec=   2
(PID.TID 0000.0001)  MDS_READ_FIELD: opening global file: pickup_seaice.0000000001.data
(PID.TID 0000.0001) READ_MFLDS_3D_RL: read field: "siHEFF  ", #   3 in fldList, rec=   3
(PID.TID 0000.0001)  MDS_READ_FIELD: opening global file: pickup_seaice.0000000001.data
(PID.TID 0000.0001) READ_MFLDS_3D_RL: read field: "siHSNOW ", #   4 in fldList, rec=   4
(PID.TID 0000.0001)  MDS_READ_FIELD: opening global file: pickup_seaice.0000000001.data
(PID.TID 0000.0001) READ_MFLDS_3D_RL: read field: "siUICE  ", #   5 in fldList, rec=   5
(PID.TID 0000.0001)  MDS_READ_FIELD: opening global file: pickup_seaice.0000000001.data
(PID.TID 0000.0001) READ_MFLDS_3D_RL: read field: "siVICE  ", #   6 in fldList, rec=   6
(PID.TID 0000.0001)  MDS_READ_FIELD: opening global file: pickup_seaice.0000000001.data
(PID.TID 0000.0001)  MDS_READ_FIELD: opening global file: wt_ones.data
(PID.TID 0000.0001)  MDS_READ_FIELD: opening global file: xx_kapgm.0000000012.data
(PID.TID 0000.0001)  MDS_READ_FIELD: opening global file: wt_ones.data
(PID.TID 0000.0001)  MDS_READ_FIELD: opening global file: xx_kapredi.0000000012.data
(PID.TID 0000.0001)  MDS_READ_FIELD: opening global file: wt_ones.data
(PID.TID 0000.0001)  MDS_READ_FIELD: opening global file: xx_diffkr.0000000012.data
(PID.TID 0000.0001) // =======================================================
(PID.TID 0000.0001) // Model current state
(PID.TID 0000.0001) // =======================================================
(PID.TID 0000.0001) 
(PID.TID 0000.0001) SOLVE_FOR_PRESSURE: putPmEinXvector =    F
 cg2d: Sum(rhs),rhsMax =   4.77878886618808E+01  6.88400651469146E+00
 cg2d: Sum(rhs),rhsMax =   4.75095475062387E+01  7.25783036631785E+00
 cg2d: Sum(rhs),rhsMax =   4.82811935574765E+01  7.12421430998692E+00
 Computing Diagnostic #     86  oceQnet      Counter:       3   Parms: SM      U1      
 Computing Diagnostic #     87  oceQsw       Counter:       3   Parms: SM      U1      
 Computing Diagnostic #     84  oceFWflx     Counter:       3   Parms: SM      U1      
 Computing Diagnostic #     85  oceSflux     Counter:       3   Parms: SM      U1      
 Computing Diagnostic #     80  oceTAUX      Counter:       3   Parms: UU      U1      
           Vector  Mate for  oceTAUX      Diagnostic #     81  oceTAUY  exists 
 Computing Diagnostic #     81  oceTAUY      Counter:       3   Parms: VV      U1      
           Vector  Mate for  oceTAUY      Diagnostic #     80  oceTAUX  exists 
 Computing Diagnostic #     26  THETA        Counter:       3   Parms: SMR     MR      
 Computing Diagnostic #     27  SALT         Counter:       3   Parms: SMR     MR      
 Computing Diagnostic #     30  UVEL         Counter:       3   Parms: UUR     MR      
           Vector  Mate for  UVEL         Diagnostic #     31  VVEL     exists 
 Computing Diagnostic #     31  VVEL         Counter:       3   Parms: VVR     MR      
           Vector  Mate for  VVEL         Diagnostic #     30  UVEL     exists 
 Computing Diagnostic #    214  SIarea       Counter:       3   Parms: SM      M1      
 Computing Diagnostic #    217  SIheff       Counter:       3   Parms: SM      M1      
 Computing Diagnostic #    219  SIhsnow      Counter:       3   Parms: SM      M1      
 Computing Diagnostic #     83  sIceLoad     Counter:       3   Parms: SM      U1      
 Computing Diagnostic #    223  SIuice       Counter:       3   Parms: UU      M1      
           Vector  Mate for  SIuice       Diagnostic #    224  SIvice   exists 
 Computing Diagnostic #    224  SIvice       Counter:       3   Parms: VV      M1      
           Vector  Mate for  SIvice       Diagnostic #    223  SIuice   exists 
 Computing Diagnostic #    225  SItaux       Counter:       3   Parms: UU      U1      
           Vector  Mate for  SItaux       Diagnostic #    226  SItauy   exists 
 Computing Diagnostic #    226  SItauy       Counter:       3   Parms: VV      U1      
           Vector  Mate for  SItauy       Diagnostic #    225  SItaux   exists 
 Computing Diagnostic #    285  SIareaN      Counter:       3   Parms: SM      MX      
 Computing Diagnostic #    284  SIheffN      Counter:       3   Parms: SM      MX      
 Computing Diagnostic #    286  SIhsnowN     Counter:       3   Parms: SM      MX      
 Computing Diagnostic #    290  SIqSnow      Counter:       3   Parms: SM      MX      
 Computing Diagnostic #    291  SImeltPd     Counter:       3   Parms: SM      MX      
 Computing Diagnostic #    288  SItIces      Counter:       3   Parms: SM      MX      
 Computing Diagnostic #    292  SIiceAge     Counter:       3   Parms: SM      MX      
 Computing Diagnostic #    293  SI_dArea     Counter:       3   Parms: SM      MX      
 Computing Diagnostic #    294  SI_dHeff     Counter:       3   Parms: SM      MX      
 Computing Diagnostic #    295  SI_dHsnw     Counter:       3   Parms: SM      MX      
 Computing Diagnostic #    298  SI_dQSnw     Counter:       3   Parms: SM      MX      
 Compute Stats, Diag. #    214  SIarea    vol(   0 ): 1.074E+15  Parms: SM      M1      
 Compute Stats, Diag. #    217  SIheff    vol(   0 ): 1.074E+15  Parms: SM      M1      
 Compute Stats, Diag. #    219  SIhsnow   vol(   0 ): 1.074E+15  Parms: SM      M1      
 Compute Stats, Diag. #     83  sIceLoad  vol(   0 ): 1.074E+15  Parms: SM      U1      
 Compute Stats, Diag. #    223  SIuice    vol(   0 ): 1.054E+15  Parms: UU      M1      
 Compute Stats, Diag. #    224  SIvice    vol(   0 ): 1.052E+15  Parms: VV      M1      
 Compute Stats, Diag. #    225  SItaux    vol(   0 ): 1.054E+15  Parms: UU      U1      
 Compute Stats, Diag. #    226  SItauy    vol(   0 ): 1.052E+15  Parms: VV      U1      
 Compute Stats, Diag. #    285  SIareaN   vol(   0 ): 5.370E+15  Parms: SM      MX      
 Compute Stats, Diag. #    284  SIheffN   vol(   0 ): 5.370E+15  Parms: SM      MX      
 Compute Stats, Diag. #    286  SIhsnowN  vol(   0 ): 5.370E+15  Parms: SM      MX      
 Compute Stats, Diag. #    290  SIqSnow   vol(   0 ): 5.370E+15  Parms: SM      MX      
 Compute Stats, Diag. #    289  SIqIce    vol(   0 ): 2.148E+16  Parms: SM      MX      
 Compute Stats, Diag. #    291  SImeltPd  vol(   0 ): 5.370E+15  Parms: SM      MX      
 Compute Stats, Diag. #    288  SItIces   vol(   0 ): 5.370E+15  Parms: SM      MX      
 Compute Stats, Diag. #    292  SIiceAge  vol(   0 ): 5.370E+15  Parms: SM      MX      
 Compute Stats, Diag. #    293  SI_dArea  vol(   0 ): 5.370E+15  Parms: SM      MX      
 Compute Stats, Diag. #    294  SI_dHeff  vol(   0 ): 5.370E+15  Parms: SM      MX      
 Compute Stats, Diag. #    295  SI_dHsnw  vol(   0 ): 5.370E+15  Parms: SM      MX      
 Compute Stats, Diag. #    298  SI_dQSnw  vol(   0 ): 5.370E+15  Parms: SM      MX      
 Compute Stats, Diag. #    297  SI_dQIce  vol(   0 ): 2.148E+16  Parms: SM      MX      
 cg2d: Sum(rhs),rhsMax =   4.92793798354814E+01  7.11220056784135E+00
 Computing Diagnostic #    289  SIqIce       Counter:       1   Parms: SM      MX      
 Computing Diagnostic #    297  SI_dQIce     Counter:       1   Parms: SM      MX      
 Computing Diagnostic #    290  SIqSnow      Counter:       1   Parms: SM      MX      
 Computing Diagnostic #    298  SI_dQSnw     Counter:       1   Parms: SM      MX      
 cg2d: Sum(rhs),rhsMax =   5.03375735423077E+01  7.10907530569645E+00
 cg2d: Sum(rhs),rhsMax =   5.14393960495991E+01  7.10034527862351E+00
 cg2d: Sum(rhs),rhsMax =   5.26019415210237E+01  7.09514614242152E+00
(PID.TID 0000.0001)      cg2d_init_res =   1.05165961766875E+01
(PID.TID 0000.0001)      cg2d_iters(min,last) =      -1      41
(PID.TID 0000.0001)      cg2d_last_res =   2.30446340628342E-05
(PID.TID 0000.0001) // =======================================================
(PID.TID 0000.0001) // Begin MONITOR dynamic field statistics
(PID.TID 0000.0001) // =======================================================
(PID.TID 0000.0001) %MON time_tsnumber                =                     8
(PID.TID 0000.0001) %MON time_secondsf                =   7.2000000000000E+03
(PID.TID 0000.0001) %MON dynstat_eta_max              =   1.1718492253910E+01
(PID.TID 0000.0001) %MON dynstat_eta_min              =  -5.6197417062175E+00
(PID.TID 0000.0001) %MON dynstat_eta_mean             =  -1.6639674097644E-03
(PID.TID 0000.0001) %MON dynstat_eta_sd               =   9.1943181566445E-01
(PID.TID 0000.0001) %MON dynstat_eta_del2             =   3.8922659743994E-03
(PID.TID 0000.0001) %MON dynstat_uvel_max             =   2.3753429932790E+00
(PID.TID 0000.0001) %MON dynstat_uvel_min             =  -2.0283428844855E+00
(PID.TID 0000.0001) %MON dynstat_uvel_mean            =   2.6274875250028E-03
(PID.TID 0000.0001) %MON dynstat_uvel_sd              =   2.4375734305199E-02
(PID.TID 0000.0001) %MON dynstat_uvel_del2            =   2.5006087363473E-05
(PID.TID 0000.0001) %MON dynstat_vvel_max             =   2.4332405240130E+00
(PID.TID 0000.0001) %MON dynstat_vvel_min             =  -2.0842703539683E+00
(PID.TID 0000.0001) %MON dynstat_vvel_mean            =   9.9441226004107E-04
(PID.TID 0000.0001) %MON dynstat_vvel_sd              =   2.6002891807918E-02
(PID.TID 0000.0001) %MON dynstat_vvel_del2            =   2.5823862945157E-05
(PID.TID 0000.0001) %MON dynstat_wvel_max             =   3.4807539140970E-03
(PID.TID 0000.0001) %MON dynstat_wvel_min             =  -2.0790037798627E-03
(PID.TID 0000.0001) %MON dynstat_wvel_mean            =   2.7763880379914E-06
(PID.TID 0000.0001) %MON dynstat_wvel_sd              =   4.2218101095059E-05
(PID.TID 0000.0001) %MON dynstat_wvel_del2            =   5.9347260854935E-08
(PID.TID 0000.0001) %MON dynstat_theta_max            =   3.2646031501862E+01
(PID.TID 0000.0001) %MON dynstat_theta_min            =  -2.0417528925907E+00
(PID.TID 0000.0001) %MON dynstat_theta_mean           =   3.5905771451280E+00
(PID.TID 0000.0001) %MON dynstat_theta_sd             =   4.4365708307350E+00
(PID.TID 0000.0001) %MON dynstat_theta_del2           =   1.0959760277021E-04
(PID.TID 0000.0001) %MON dynstat_salt_max             =   4.0711530223036E+01
(PID.TID 0000.0001) %MON dynstat_salt_min             =   1.8910540268907E+01
(PID.TID 0000.0001) %MON dynstat_salt_mean            =   3.4725775099200E+01
(PID.TID 0000.0001) %MON dynstat_salt_sd              =   3.7775923727826E-01
(PID.TID 0000.0001) %MON dynstat_salt_del2            =   2.6880675904771E-05
(PID.TID 0000.0001) %MON dynstat_sst_max              =   3.2646031501862E+01
(PID.TID 0000.0001) %MON dynstat_sst_min              =  -1.9718363874469E+00
(PID.TID 0000.0001) %MON dynstat_sst_mean             =   1.8503926301927E+01
(PID.TID 0000.0001) %MON dynstat_sst_sd               =   1.0093282158467E+01
(PID.TID 0000.0001) %MON dynstat_sst_del2             =   8.6868970124804E-04
(PID.TID 0000.0001) %MON dynstat_sss_max              =   3.9660245304890E+01
(PID.TID 0000.0001) %MON dynstat_sss_min              =   1.8910540268907E+01
(PID.TID 0000.0001) %MON dynstat_sss_mean             =   3.4713598364332E+01
(PID.TID 0000.0001) %MON dynstat_sss_sd               =   1.1588355573298E+00
(PID.TID 0000.0001) %MON dynstat_sss_del2             =   3.8776870056802E-04
(PID.TID 0000.0001) %MON forcing_qnet_max             =   9.1767121669554E+03
(PID.TID 0000.0001) %MON forcing_qnet_min             =  -1.6304765139208E+03
(PID.TID 0000.0001) %MON forcing_qnet_mean            =  -2.4145868007918E+01
(PID.TID 0000.0001) %MON forcing_qnet_sd              =   2.2424063465788E+02
(PID.TID 0000.0001) %MON forcing_qnet_del2            =   6.4373956232606E-01
(PID.TID 0000.0001) %MON forcing_qsw_max              =   0.0000000000000E+00
(PID.TID 0000.0001) %MON forcing_qsw_min              =  -1.1192438090884E+02
(PID.TID 0000.0001) %MON forcing_qsw_mean             =  -2.2457747683535E+01
(PID.TID 0000.0001) %MON forcing_qsw_sd               =   3.0399511991861E+01
(PID.TID 0000.0001) %MON forcing_qsw_del2             =   2.3073964231484E-02
(PID.TID 0000.0001) %MON forcing_empmr_max            =   3.7457954604179E-03
(PID.TID 0000.0001) %MON forcing_empmr_min            =  -9.1371171176434E-02
(PID.TID 0000.0001) %MON forcing_empmr_mean           =   4.2046113271719E-05
(PID.TID 0000.0001) %MON forcing_empmr_sd             =   5.6892582986804E-04
(PID.TID 0000.0001) %MON forcing_empmr_del2           =   3.9468480855582E-06
(PID.TID 0000.0001) %MON forcing_fu_max               =   2.1956752490457E+00
(PID.TID 0000.0001) %MON forcing_fu_min               =  -2.1969581305237E+00
(PID.TID 0000.0001) %MON forcing_fu_mean              =   1.1981518982757E-02
(PID.TID 0000.0001) %MON forcing_fu_sd                =   1.2580092948102E-01
(PID.TID 0000.0001) %MON forcing_fu_del2              =   3.3438532655948E-04
(PID.TID 0000.0001) %MON forcing_fv_max               =   1.9503968595498E+00
(PID.TID 0000.0001) %MON forcing_fv_min               =  -3.4857039929762E+00
(PID.TID 0000.0001) %MON forcing_fv_mean              =  -4.7906006003570E-03
(PID.TID 0000.0001) %MON forcing_fv_sd                =   1.1970318172914E-01
(PID.TID 0000.0001) %MON forcing_fv_del2              =   3.1295956730456E-04
(PID.TID 0000.0001) %MON trAdv_CFL_u_max              =   6.5195598618271E-02
(PID.TID 0000.0001) %MON trAdv_CFL_v_max              =   7.1025144680888E-02
(PID.TID 0000.0001) %MON trAdv_CFL_w_max              =   1.3709442535840E-01
(PID.TID 0000.0001) %MON advcfl_uvel_max              =   5.6978807813233E-02
(PID.TID 0000.0001) %MON advcfl_vvel_max              =   5.6226986750463E-02
(PID.TID 0000.0001) %MON advcfl_wvel_max              =   1.4099601127748E-01
(PID.TID 0000.0001) %MON advcfl_W_hf_max              =   1.3770273490413E-01
(PID.TID 0000.0001) %MON pe_b_mean                    =   1.4164758699330E-04
(PID.TID 0000.0001) %MON ke_max                       =   2.5395098180598E+00
(PID.TID 0000.0001) %MON ke_mean                      =   6.1634655945640E-04
(PID.TID 0000.0001) %MON ke_vol                       =   1.3349972943819E+18
(PID.TID 0000.0001) %MON vort_r_min                   =  -6.9690738156170E-05
(PID.TID 0000.0001) %MON vort_r_max                   =   1.0697765085811E-04
(PID.TID 0000.0001) %MON vort_a_mean                  =  -1.9727864647440E-05
(PID.TID 0000.0001) %MON vort_a_sd                    =   7.4543639415612E-05
(PID.TID 0000.0001) %MON vort_p_mean                  =  -2.1760677706296E-05
(PID.TID 0000.0001) %MON vort_p_sd                    =   9.7247833615026E-05
(PID.TID 0000.0001) %MON surfExpan_theta_mean         =   5.3841406003633E-05
(PID.TID 0000.0001) %MON surfExpan_salt_mean          =  -1.3964321052522E-06
(PID.TID 0000.0001) // =======================================================
(PID.TID 0000.0001) // End MONITOR dynamic field statistics
(PID.TID 0000.0001) // =======================================================
(PID.TID 0000.0001) // =======================================================
(PID.TID 0000.0001) // Begin MONITOR SEAICE statistics
(PID.TID 0000.0001) // =======================================================
(PID.TID 0000.0001) %MON seaice_tsnumber              =                     8
(PID.TID 0000.0001) %MON seaice_time_sec              =   7.2000000000000E+03
(PID.TID 0000.0001) %MON seaice_uice_max              =   2.3486648814417E+00
(PID.TID 0000.0001) %MON seaice_uice_min              =  -1.9601052033933E+00
(PID.TID 0000.0001) %MON seaice_uice_mean             =   1.4941550240038E-03
(PID.TID 0000.0001) %MON seaice_uice_sd               =   1.7644737738523E-01
(PID.TID 0000.0001) %MON seaice_uice_del2             =   5.1092521704263E-04
(PID.TID 0000.0001) %MON seaice_vice_max              =   2.5832383046064E+00
(PID.TID 0000.0001) %MON seaice_vice_min              =  -2.3005447603470E+00
(PID.TID 0000.0001) %MON seaice_vice_mean             =  -2.5141374092825E-03
(PID.TID 0000.0001) %MON seaice_vice_sd               =   1.6564174215834E-01
(PID.TID 0000.0001) %MON seaice_vice_del2             =   5.1276105593297E-04
(PID.TID 0000.0001) %MON seaice_area_max              =   1.0000000000000E+00
(PID.TID 0000.0001) %MON seaice_area_min              =   0.0000000000000E+00
(PID.TID 0000.0001) %MON seaice_area_mean             =   7.2907015985353E-02
(PID.TID 0000.0001) %MON seaice_area_sd               =   2.3762805011314E-01
(PID.TID 0000.0001) %MON seaice_area_del2             =   4.5935994770922E-04
(PID.TID 0000.0001) %MON seaice_heff_max              =   2.5557965539558E+01
(PID.TID 0000.0001) %MON seaice_heff_min              =   0.0000000000000E+00
(PID.TID 0000.0001) %MON seaice_heff_mean             =   2.1596001527999E-01
(PID.TID 0000.0001) %MON seaice_heff_sd               =   1.0606068605266E+00
(PID.TID 0000.0001) %MON seaice_heff_del2             =   3.7348912163042E-03
(PID.TID 0000.0001) %MON seaice_hsnow_max             =   8.4412578356069E+00
(PID.TID 0000.0001) %MON seaice_hsnow_min             =   0.0000000000000E+00
(PID.TID 0000.0001) %MON seaice_hsnow_mean            =   2.4652136404072E-02
(PID.TID 0000.0001) %MON seaice_hsnow_sd              =   1.5716929172785E-01
(PID.TID 0000.0001) %MON seaice_hsnow_del2            =   1.1939510482280E-03
(PID.TID 0000.0001) // =======================================================
(PID.TID 0000.0001) // End MONITOR SEAICE statistics
(PID.TID 0000.0001) // =======================================================
 Computing Diagnostic #     86  oceQnet      Counter:       4   Parms: SM      U1      
 Computing Diagnostic #     87  oceQsw       Counter:       4   Parms: SM      U1      
 Computing Diagnostic #     84  oceFWflx     Counter:       4   Parms: SM      U1      
 Computing Diagnostic #     85  oceSflux     Counter:       4   Parms: SM      U1      
 Computing Diagnostic #     80  oceTAUX      Counter:       4   Parms: UU      U1      
           Vector  Mate for  oceTAUX      Diagnostic #     81  oceTAUY  exists 
 Computing Diagnostic #     81  oceTAUY      Counter:       4   Parms: VV      U1      
           Vector  Mate for  oceTAUY      Diagnostic #     80  oceTAUX  exists 
 Computing Diagnostic #     26  THETA        Counter:       4   Parms: SMR     MR      
 Computing Diagnostic #     27  SALT         Counter:       4   Parms: SMR     MR      
 Computing Diagnostic #     30  UVEL         Counter:       4   Parms: UUR     MR      
           Vector  Mate for  UVEL         Diagnostic #     31  VVEL     exists 
 Computing Diagnostic #     31  VVEL         Counter:       4   Parms: VVR     MR      
           Vector  Mate for  VVEL         Diagnostic #     30  UVEL     exists 
 Computing Diagnostic #    214  SIarea       Counter:       4   Parms: SM      M1      
 Computing Diagnostic #    217  SIheff       Counter:       4   Parms: SM      M1      
 Computing Diagnostic #    219  SIhsnow      Counter:       4   Parms: SM      M1      
 Computing Diagnostic #     83  sIceLoad     Counter:       4   Parms: SM      U1      
 Computing Diagnostic #    223  SIuice       Counter:       4   Parms: UU      M1      
           Vector  Mate for  SIuice       Diagnostic #    224  SIvice   exists 
 Computing Diagnostic #    224  SIvice       Counter:       4   Parms: VV      M1      
           Vector  Mate for  SIvice       Diagnostic #    223  SIuice   exists 
 Computing Diagnostic #    225  SItaux       Counter:       4   Parms: UU      U1      
           Vector  Mate for  SItaux       Diagnostic #    226  SItauy   exists 
 Computing Diagnostic #    226  SItauy       Counter:       4   Parms: VV      U1      
           Vector  Mate for  SItauy       Diagnostic #    225  SItaux   exists 
 Computing Diagnostic #    285  SIareaN      Counter:       4   Parms: SM      MX      
 Computing Diagnostic #    284  SIheffN      Counter:       4   Parms: SM      MX      
 Computing Diagnostic #    286  SIhsnowN     Counter:       4   Parms: SM      MX      
 Computing Diagnostic #    290  SIqSnow      Counter:       4   Parms: SM      MX      
 Computing Diagnostic #    291  SImeltPd     Counter:       4   Parms: SM      MX      
 Computing Diagnostic #    288  SItIces      Counter:       4   Parms: SM      MX      
 Computing Diagnostic #    292  SIiceAge     Counter:       4   Parms: SM      MX      
 Computing Diagnostic #    293  SI_dArea     Counter:       4   Parms: SM      MX      
 Computing Diagnostic #    294  SI_dHeff     Counter:       4   Parms: SM      MX      
 Computing Diagnostic #    295  SI_dHsnw     Counter:       4   Parms: SM      MX      
 Computing Diagnostic #    298  SI_dQSnw     Counter:       4   Parms: SM      MX      
 Compute Stats, Diag. #    214  SIarea    vol(   0 ): 1.432E+15  Parms: SM      M1      
 Compute Stats, Diag. #    217  SIheff    vol(   0 ): 1.432E+15  Parms: SM      M1      
 Compute Stats, Diag. #    219  SIhsnow   vol(   0 ): 1.432E+15  Parms: SM      M1      
 Compute Stats, Diag. #     83  sIceLoad  vol(   0 ): 1.432E+15  Parms: SM      U1      
 Compute Stats, Diag. #    223  SIuice    vol(   0 ): 1.405E+15  Parms: UU      M1      
 Compute Stats, Diag. #    224  SIvice    vol(   0 ): 1.403E+15  Parms: VV      M1      
 Compute Stats, Diag. #    225  SItaux    vol(   0 ): 1.405E+15  Parms: UU      U1      
 Compute Stats, Diag. #    226  SItauy    vol(   0 ): 1.403E+15  Parms: VV      U1      
 Compute Stats, Diag. #    285  SIareaN   vol(   0 ): 7.160E+15  Parms: SM      MX      
 Compute Stats, Diag. #    284  SIheffN   vol(   0 ): 7.160E+15  Parms: SM      MX      
 Compute Stats, Diag. #    286  SIhsnowN  vol(   0 ): 7.160E+15  Parms: SM      MX      
 Compute Stats, Diag. #    290  SIqSnow   vol(   0 ): 7.160E+15  Parms: SM      MX      
 Compute Stats, Diag. #    289  SIqIce    vol(   0 ): 2.864E+16  Parms: SM      MX      
 Compute Stats, Diag. #    291  SImeltPd  vol(   0 ): 7.160E+15  Parms: SM      MX      
 Compute Stats, Diag. #    288  SItIces   vol(   0 ): 7.160E+15  Parms: SM      MX      
 Compute Stats, Diag. #    292  SIiceAge  vol(   0 ): 7.160E+15  Parms: SM      MX      
 Compute Stats, Diag. #    293  SI_dArea  vol(   0 ): 7.160E+15  Parms: SM      MX      
 Compute Stats, Diag. #    294  SI_dHeff  vol(   0 ): 7.160E+15  Parms: SM      MX      
 Compute Stats, Diag. #    295  SI_dHsnw  vol(   0 ): 7.160E+15  Parms: SM      MX      
 Compute Stats, Diag. #    298  SI_dQSnw  vol(   0 ): 7.160E+15  Parms: SM      MX      
 Compute Stats, Diag. #    297  SI_dQIce  vol(   0 ): 2.864E+16  Parms: SM      MX      
 SEAICE_LSR: Residual Initial ipass,Uice,Vice=    1  6.05050247E-02  6.16553192E-02
 SEAICE_LSR (ipass=   1) iters,dU,Resid=    96  8.53463223E-05  9.19012725E-03
 SEAICE_LSR (ipass=   1) iters,dV,Resid=    96  9.94175606E-05  9.02052923E-03
 SEAICE_LSR: Residual Initial ipass,Uice,Vice=    2  4.85362567E-02  4.96368328E-02
 SEAICE_LSR (ipass=   2) iters,dU,Resid=    64  7.88617960E-05  9.21917454E-03
 SEAICE_LSR (ipass=   2) iters,dV,Resid=    64  9.87416997E-05  9.81280890E-03
 cg2d: Sum(rhs),rhsMax =   5.37960294086609E+01  7.09561577842613E+00
 Computing Diagnostic #    289  SIqIce       Counter:       1   Parms: SM      MX      
 Computing Diagnostic #    297  SI_dQIce     Counter:       1   Parms: SM      MX      
 Computing Diagnostic #    290  SIqSnow      Counter:       1   Parms: SM      MX      
 Computing Diagnostic #    298  SI_dQSnw     Counter:       1   Parms: SM      MX      
 cg2d: Sum(rhs),rhsMax =   5.50050638525431E+01  7.10017816779583E+00
 cg2d: Sum(rhs),rhsMax =   5.62052625402801E+01  7.10691640898664E+00
 cg2d: Sum(rhs),rhsMax =   5.73952608261308E+01  7.11453915159739E+00
 Computing Diagnostic #     86  oceQnet      Counter:       4   Parms: SM      U1      
 Computing Diagnostic #     87  oceQsw       Counter:       4   Parms: SM      U1      
 Computing Diagnostic #     84  oceFWflx     Counter:       4   Parms: SM      U1      
 Computing Diagnostic #     85  oceSflux     Counter:       4   Parms: SM      U1      
 Computing Diagnostic #     80  oceTAUX      Counter:       4   Parms: UU      U1      
           Vector  Mate for  oceTAUX      Diagnostic #     81  oceTAUY  exists 
 Computing Diagnostic #     81  oceTAUY      Counter:       4   Parms: VV      U1      
           Vector  Mate for  oceTAUY      Diagnostic #     80  oceTAUX  exists 
 Computing Diagnostic #     26  THETA        Counter:       4   Parms: SMR     MR      
 Computing Diagnostic #     27  SALT         Counter:       4   Parms: SMR     MR      
 Computing Diagnostic #     30  UVEL         Counter:       4   Parms: UUR     MR      
           Vector  Mate for  UVEL         Diagnostic #     31  VVEL     exists 
 Computing Diagnostic #     31  VVEL         Counter:       4   Parms: VVR     MR      
           Vector  Mate for  VVEL         Diagnostic #     30  UVEL     exists 
 Computing Diagnostic #    214  SIarea       Counter:       4   Parms: SM      M1      
 Computing Diagnostic #    217  SIheff       Counter:       4   Parms: SM      M1      
 Computing Diagnostic #    219  SIhsnow      Counter:       4   Parms: SM      M1      
 Computing Diagnostic #     83  sIceLoad     Counter:       4   Parms: SM      U1      
 Computing Diagnostic #    223  SIuice       Counter:       4   Parms: UU      M1      
           Vector  Mate for  SIuice       Diagnostic #    224  SIvice   exists 
 Computing Diagnostic #    224  SIvice       Counter:       4   Parms: VV      M1      
           Vector  Mate for  SIvice       Diagnostic #    223  SIuice   exists 
 Computing Diagnostic #    225  SItaux       Counter:       4   Parms: UU      U1      
           Vector  Mate for  SItaux       Diagnostic #    226  SItauy   exists 
 Computing Diagnostic #    226  SItauy       Counter:       4   Parms: VV      U1      
           Vector  Mate for  SItauy       Diagnostic #    225  SItaux   exists 
 Computing Diagnostic #    285  SIareaN      Counter:       4   Parms: SM      MX      
 Computing Diagnostic #    284  SIheffN      Counter:       4   Parms: SM      MX      
 Computing Diagnostic #    286  SIhsnowN     Counter:       4   Parms: SM      MX      
 Computing Diagnostic #    290  SIqSnow      Counter:       4   Parms: SM      MX      
 Computing Diagnostic #    291  SImeltPd     Counter:       4   Parms: SM      MX      
 Computing Diagnostic #    288  SItIces      Counter:       4   Parms: SM      MX      
 Computing Diagnostic #    292  SIiceAge     Counter:       4   Parms: SM      MX      
 Computing Diagnostic #    293  SI_dArea     Counter:       4   Parms: SM      MX      
 Computing Diagnostic #    294  SI_dHeff     Counter:       4   Parms: SM      MX      
 Computing Diagnostic #    295  SI_dHsnw     Counter:       4   Parms: SM      MX      
 Computing Diagnostic #    298  SI_dQSnw     Counter:       4   Parms: SM      MX      
 Compute Stats, Diag. #    214  SIarea    vol(   0 ): 1.432E+15  Parms: SM      M1      
 Compute Stats, Diag. #    217  SIheff    vol(   0 ): 1.432E+15  Parms: SM      M1      
 Compute Stats, Diag. #    219  SIhsnow   vol(   0 ): 1.432E+15  Parms: SM      M1      
 Compute Stats, Diag. #     83  sIceLoad  vol(   0 ): 1.432E+15  Parms: SM      U1      
 Compute Stats, Diag. #    223  SIuice    vol(   0 ): 1.405E+15  Parms: UU      M1      
 Compute Stats, Diag. #    224  SIvice    vol(   0 ): 1.403E+15  Parms: VV      M1      
 Compute Stats, Diag. #    225  SItaux    vol(   0 ): 1.405E+15  Parms: UU      U1      
 Compute Stats, Diag. #    226  SItauy    vol(   0 ): 1.403E+15  Parms: VV      U1      
 Compute Stats, Diag. #    285  SIareaN   vol(   0 ): 7.160E+15  Parms: SM      MX      
 Compute Stats, Diag. #    284  SIheffN   vol(   0 ): 7.160E+15  Parms: SM      MX      
 Compute Stats, Diag. #    286  SIhsnowN  vol(   0 ): 7.160E+15  Parms: SM      MX      
 Compute Stats, Diag. #    290  SIqSnow   vol(   0 ): 7.160E+15  Parms: SM      MX      
 Compute Stats, Diag. #    289  SIqIce    vol(   0 ): 2.864E+16  Parms: SM      MX      
 Compute Stats, Diag. #    291  SImeltPd  vol(   0 ): 7.160E+15  Parms: SM      MX      
 Compute Stats, Diag. #    288  SItIces   vol(   0 ): 7.160E+15  Parms: SM      MX      
 Compute Stats, Diag. #    292  SIiceAge  vol(   0 ): 7.160E+15  Parms: SM      MX      
 Compute Stats, Diag. #    293  SI_dArea  vol(   0 ): 7.160E+15  Parms: SM      MX      
 Compute Stats, Diag. #    294  SI_dHeff  vol(   0 ): 7.160E+15  Parms: SM      MX      
 Compute Stats, Diag. #    295  SI_dHsnw  vol(   0 ): 7.160E+15  Parms: SM      MX      
 Compute Stats, Diag. #    298  SI_dQSnw  vol(   0 ): 7.160E+15  Parms: SM      MX      
 Compute Stats, Diag. #    297  SI_dQIce  vol(   0 ): 2.864E+16  Parms: SM      MX      
 cg2d: Sum(rhs),rhsMax =   5.85583385368578E+01  7.12286628579082E+00
 Computing Diagnostic #    289  SIqIce       Counter:       1   Parms: SM      MX      
 Computing Diagnostic #    297  SI_dQIce     Counter:       1   Parms: SM      MX      
 Computing Diagnostic #    290  SIqSnow      Counter:       1   Parms: SM      MX      
 Computing Diagnostic #    298  SI_dQSnw     Counter:       1   Parms: SM      MX      
 cg2d: Sum(rhs),rhsMax =   5.96866133776662E+01  7.13204355305418E+00
 cg2d: Sum(rhs),rhsMax =   6.07819455315468E+01  7.14169361222769E+00
 cg2d: Sum(rhs),rhsMax =   6.18406627806825E+01  7.15106480784630E+00
(PID.TID 0000.0001)      cg2d_init_res =   5.08536690066109E+00
(PID.TID 0000.0001)      cg2d_iters(min,last) =      -1      40
(PID.TID 0000.0001)      cg2d_last_res =   2.18981751998132E-05
(PID.TID 0000.0001) // =======================================================
(PID.TID 0000.0001) // Begin MONITOR dynamic field statistics
(PID.TID 0000.0001) // =======================================================
(PID.TID 0000.0001) %MON time_tsnumber                =                    16
(PID.TID 0000.0001) %MON time_secondsf                =   1.4400000000000E+04
(PID.TID 0000.0001) %MON dynstat_eta_max              =   1.2194385406502E+01
(PID.TID 0000.0001) %MON dynstat_eta_min              =  -4.9657856235453E+00
(PID.TID 0000.0001) %MON dynstat_eta_mean             =  -1.9562176697253E-03
(PID.TID 0000.0001) %MON dynstat_eta_sd               =   9.3945192513074E-01
(PID.TID 0000.0001) %MON dynstat_eta_del2             =   3.7695163439101E-03
(PID.TID 0000.0001) %MON dynstat_uvel_max             =   1.6483913004359E+00
(PID.TID 0000.0001) %MON dynstat_uvel_min             =  -1.6059029592623E+00
(PID.TID 0000.0001) %MON dynstat_uvel_mean            =   2.9355930662162E-03
(PID.TID 0000.0001) %MON dynstat_uvel_sd              =   2.3545386995082E-02
(PID.TID 0000.0001) %MON dynstat_uvel_del2            =   1.8003802651721E-05
(PID.TID 0000.0001) %MON dynstat_vvel_max             =   1.8789625034875E+00
(PID.TID 0000.0001) %MON dynstat_vvel_min             =  -1.5057049068695E+00
(PID.TID 0000.0001) %MON dynstat_vvel_mean            =   1.5230833072435E-03
(PID.TID 0000.0001) %MON dynstat_vvel_sd              =   2.5261935883389E-02
(PID.TID 0000.0001) %MON dynstat_vvel_del2            =   1.8822570787288E-05
(PID.TID 0000.0001) %MON dynstat_wvel_max             =   5.5291360670003E-03
(PID.TID 0000.0001) %MON dynstat_wvel_min             =  -3.4213534830798E-03
(PID.TID 0000.0001) %MON dynstat_wvel_mean            =   6.5520875555437E-07
(PID.TID 0000.0001) %MON dynstat_wvel_sd              =   3.7037590621993E-05
(PID.TID 0000.0001) %MON dynstat_wvel_del2            =   5.2614322556010E-08
(PID.TID 0000.0001) %MON dynstat_theta_max            =   3.2606682642809E+01
(PID.TID 0000.0001) %MON dynstat_theta_min            =  -2.0410509296666E+00
(PID.TID 0000.0001) %MON dynstat_theta_mean           =   3.5906010280417E+00
(PID.TID 0000.0001) %MON dynstat_theta_sd             =   4.4366214730151E+00
(PID.TID 0000.0001) %MON dynstat_theta_del2           =   1.0935710229335E-04
(PID.TID 0000.0001) %MON dynstat_salt_max             =   4.0711529315598E+01
(PID.TID 0000.0001) %MON dynstat_salt_min             =   1.8897138336495E+01
(PID.TID 0000.0001) %MON dynstat_salt_mean            =   3.4725725094918E+01
(PID.TID 0000.0001) %MON dynstat_salt_sd              =   3.7756962396999E-01
(PID.TID 0000.0001) %MON dynstat_salt_del2            =   2.6828820620347E-05
(PID.TID 0000.0001) %MON dynstat_sst_max              =   3.2606682642809E+01
(PID.TID 0000.0001) %MON dynstat_sst_min              =  -1.9434326367396E+00
(PID.TID 0000.0001) %MON dynstat_sst_mean             =   1.8503799823623E+01
(PID.TID 0000.0001) %MON dynstat_sst_sd               =   1.0096148220498E+01
(PID.TID 0000.0001) %MON dynstat_sst_del2             =   8.6542784578485E-04
(PID.TID 0000.0001) %MON dynstat_sss_max              =   3.9615492826339E+01
(PID.TID 0000.0001) %MON dynstat_sss_min              =   1.8897138336495E+01
(PID.TID 0000.0001) %MON dynstat_sss_mean             =   3.4698456160589E+01
(PID.TID 0000.0001) %MON dynstat_sss_sd               =   1.1417882335110E+00
(PID.TID 0000.0001) %MON dynstat_sss_del2             =   4.0085505436565E-04
(PID.TID 0000.0001) %MON forcing_qnet_max             =   4.0394704929143E+03
(PID.TID 0000.0001) %MON forcing_qnet_min             =  -1.2604499767216E+03
(PID.TID 0000.0001) %MON forcing_qnet_mean            =  -2.4590134307601E+01
(PID.TID 0000.0001) %MON forcing_qnet_sd              =   2.2387298786764E+02
(PID.TID 0000.0001) %MON forcing_qnet_del2            =   5.6449988037325E-01
(PID.TID 0000.0001) %MON forcing_qsw_max              =   0.0000000000000E+00
(PID.TID 0000.0001) %MON forcing_qsw_min              =  -1.1025997085511E+02
(PID.TID 0000.0001) %MON forcing_qsw_mean             =  -2.1544866267466E+01
(PID.TID 0000.0001) %MON forcing_qsw_sd               =   3.0200488604920E+01
(PID.TID 0000.0001) %MON forcing_qsw_del2             =   2.1719486863167E-02
(PID.TID 0000.0001) %MON forcing_empmr_max            =   3.5249837674201E-03
(PID.TID 0000.0001) %MON forcing_empmr_min            =  -7.1205414831638E-02
(PID.TID 0000.0001) %MON forcing_empmr_mean           =   3.8290928375657E-05
(PID.TID 0000.0001) %MON forcing_empmr_sd             =   4.5935358992768E-04
(PID.TID 0000.0001) %MON forcing_empmr_del2           =   3.1119341682317E-06
(PID.TID 0000.0001) %MON forcing_fu_max               =   1.2794927216238E+00
(PID.TID 0000.0001) %MON forcing_fu_min               =  -1.2421742828055E+00
(PID.TID 0000.0001) %MON forcing_fu_mean              =   1.2064704703784E-02
(PID.TID 0000.0001) %MON forcing_fu_sd                =   1.1995265246923E-01
(PID.TID 0000.0001) %MON forcing_fu_del2              =   1.9524721668552E-04
(PID.TID 0000.0001) %MON forcing_fv_max               =   1.1464816503394E+00
(PID.TID 0000.0001) %MON forcing_fv_min               =  -9.4931316444940E-01
(PID.TID 0000.0001) %MON forcing_fv_mean              =  -4.3067078579809E-03
(PID.TID 0000.0001) %MON forcing_fv_sd                =   1.1161386208756E-01
(PID.TID 0000.0001) %MON forcing_fv_del2              =   1.7195351570205E-04
(PID.TID 0000.0001) %MON trAdv_CFL_u_max              =   2.0560074705246E-02
(PID.TID 0000.0001) %MON trAdv_CFL_v_max              =   2.4394677300892E-02
(PID.TID 0000.0001) %MON trAdv_CFL_w_max              =   1.2517767238116E-01
(PID.TID 0000.0001) %MON advcfl_uvel_max              =   1.8720521756583E-02
(PID.TID 0000.0001) %MON advcfl_vvel_max              =   2.2157883711895E-02
(PID.TID 0000.0001) %MON advcfl_wvel_max              =   1.3146125863454E-01
(PID.TID 0000.0001) %MON advcfl_W_hf_max              =   1.3882112656732E-01
(PID.TID 0000.0001) %MON pe_b_mean                    =   4.6428314798197E-05
(PID.TID 0000.0001) %MON ke_max                       =   1.3702465555623E+00
(PID.TID 0000.0001) %MON ke_mean                      =   5.8031081094449E-04
(PID.TID 0000.0001) %MON ke_vol                       =   1.3349971885764E+18
(PID.TID 0000.0001) %MON vort_r_min                   =  -4.6354498712342E-05
(PID.TID 0000.0001) %MON vort_r_max                   =   4.1175839064337E-05
(PID.TID 0000.0001) %MON vort_a_mean                  =  -1.9727864647440E-05
(PID.TID 0000.0001) %MON vort_a_sd                    =   7.4543542465630E-05
(PID.TID 0000.0001) %MON vort_p_mean                  =  -2.1760720217884E-05
(PID.TID 0000.0001) %MON vort_p_sd                    =   9.7249778793080E-05
(PID.TID 0000.0001) %MON surfExpan_theta_mean         =   1.0478459655200E-05
(PID.TID 0000.0001) %MON surfExpan_salt_mean          =   2.0160098763976E-08
(PID.TID 0000.0001) // =======================================================
(PID.TID 0000.0001) // End MONITOR dynamic field statistics
(PID.TID 0000.0001) // =======================================================
(PID.TID 0000.0001) // =======================================================
(PID.TID 0000.0001) // Begin MONITOR SEAICE statistics
(PID.TID 0000.0001) // =======================================================
(PID.TID 0000.0001) %MON seaice_tsnumber              =                    16
(PID.TID 0000.0001) %MON seaice_time_sec              =   1.4400000000000E+04
(PID.TID 0000.0001) %MON seaice_uice_max              =   1.7037249982599E+00
(PID.TID 0000.0001) %MON seaice_uice_min              =  -1.6182022475845E+00
(PID.TID 0000.0001) %MON seaice_uice_mean             =   6.7555148635355E-04
(PID.TID 0000.0001) %MON seaice_uice_sd               =   1.6777885609928E-01
(PID.TID 0000.0001) %MON seaice_uice_del2             =   3.1670039143013E-04
(PID.TID 0000.0001) %MON seaice_vice_max              =   2.0621784038541E+00
(PID.TID 0000.0001) %MON seaice_vice_min              =  -1.5968655982560E+00
(PID.TID 0000.0001) %MON seaice_vice_mean             =  -3.0828390050769E-03
(PID.TID 0000.0001) %MON seaice_vice_sd               =   1.4619899247969E-01
(PID.TID 0000.0001) %MON seaice_vice_del2             =   2.9122718619255E-04
(PID.TID 0000.0001) %MON seaice_area_max              =   1.0000000000000E+00
(PID.TID 0000.0001) %MON seaice_area_min              =   0.0000000000000E+00
(PID.TID 0000.0001) %MON seaice_area_mean             =   7.2481389372876E-02
(PID.TID 0000.0001) %MON seaice_area_sd               =   2.3744134210030E-01
(PID.TID 0000.0001) %MON seaice_area_del2             =   4.4052904855278E-04
(PID.TID 0000.0001) %MON seaice_heff_max              =   2.5480134117429E+01
(PID.TID 0000.0001) %MON seaice_heff_min              =   0.0000000000000E+00
(PID.TID 0000.0001) %MON seaice_heff_mean             =   2.1630100636294E-01
(PID.TID 0000.0001) %MON seaice_heff_sd               =   1.0616853453590E+00
(PID.TID 0000.0001) %MON seaice_heff_del2             =   3.6016104228937E-03
(PID.TID 0000.0001) %MON seaice_hsnow_max             =   8.4155714293070E+00
(PID.TID 0000.0001) %MON seaice_hsnow_min             =   0.0000000000000E+00
(PID.TID 0000.0001) %MON seaice_hsnow_mean            =   2.4638793820516E-02
(PID.TID 0000.0001) %MON seaice_hsnow_sd              =   1.5620557785561E-01
(PID.TID 0000.0001) %MON seaice_hsnow_del2            =   1.1492480687007E-03
(PID.TID 0000.0001) // =======================================================
(PID.TID 0000.0001) // End MONITOR SEAICE statistics
(PID.TID 0000.0001) // =======================================================
 Computing Diagnostic #     86  oceQnet      Counter:       4   Parms: SM      U1      
 Computing Diagnostic #     87  oceQsw       Counter:       4   Parms: SM      U1      
 Computing Diagnostic #     84  oceFWflx     Counter:       4   Parms: SM      U1      
 Computing Diagnostic #     85  oceSflux     Counter:       4   Parms: SM      U1      
 Computing Diagnostic #     80  oceTAUX      Counter:       4   Parms: UU      U1      
           Vector  Mate for  oceTAUX      Diagnostic #     81  oceTAUY  exists 
 Computing Diagnostic #     81  oceTAUY      Counter:       4   Parms: VV      U1      
           Vector  Mate for  oceTAUY      Diagnostic #     80  oceTAUX  exists 
 Computing Diagnostic #     26  THETA        Counter:       4   Parms: SMR     MR      
 Computing Diagnostic #     27  SALT         Counter:       4   Parms: SMR     MR      
 Computing Diagnostic #     30  UVEL         Counter:       4   Parms: UUR     MR      
           Vector  Mate for  UVEL         Diagnostic #     31  VVEL     exists 
 Computing Diagnostic #     31  VVEL         Counter:       4   Parms: VVR     MR      
           Vector  Mate for  VVEL         Diagnostic #     30  UVEL     exists 
 Computing Diagnostic #    214  SIarea       Counter:       4   Parms: SM      M1      
 Computing Diagnostic #    217  SIheff       Counter:       4   Parms: SM      M1      
 Computing Diagnostic #    219  SIhsnow      Counter:       4   Parms: SM      M1      
 Computing Diagnostic #     83  sIceLoad     Counter:       4   Parms: SM      U1      
 Computing Diagnostic #    223  SIuice       Counter:       4   Parms: UU      M1      
           Vector  Mate for  SIuice       Diagnostic #    224  SIvice   exists 
 Computing Diagnostic #    224  SIvice       Counter:       4   Parms: VV      M1      
           Vector  Mate for  SIvice       Diagnostic #    223  SIuice   exists 
 Computing Diagnostic #    225  SItaux       Counter:       4   Parms: UU      U1      
           Vector  Mate for  SItaux       Diagnostic #    226  SItauy   exists 
 Computing Diagnostic #    226  SItauy       Counter:       4   Parms: VV      U1      
           Vector  Mate for  SItauy       Diagnostic #    225  SItaux   exists 
 Computing Diagnostic #    285  SIareaN      Counter:       4   Parms: SM      MX      
 Computing Diagnostic #    284  SIheffN      Counter:       4   Parms: SM      MX      
 Computing Diagnostic #    286  SIhsnowN     Counter:       4   Parms: SM      MX      
 Computing Diagnostic #    290  SIqSnow      Counter:       4   Parms: SM      MX      
 Computing Diagnostic #    291  SImeltPd     Counter:       4   Parms: SM      MX      
 Computing Diagnostic #    288  SItIces      Counter:       4   Parms: SM      MX      
 Computing Diagnostic #    292  SIiceAge     Counter:       4   Parms: SM      MX      
 Computing Diagnostic #    293  SI_dArea     Counter:       4   Parms: SM      MX      
 Computing Diagnostic #    294  SI_dHeff     Counter:       4   Parms: SM      MX      
 Computing Diagnostic #    295  SI_dHsnw     Counter:       4   Parms: SM      MX      
 Computing Diagnostic #    298  SI_dQSnw     Counter:       4   Parms: SM      MX      
 Compute Stats, Diag. #    214  SIarea    vol(   0 ): 1.432E+15  Parms: SM      M1      
 Compute Stats, Diag. #    217  SIheff    vol(   0 ): 1.432E+15  Parms: SM      M1      
 Compute Stats, Diag. #    219  SIhsnow   vol(   0 ): 1.432E+15  Parms: SM      M1      
 Compute Stats, Diag. #     83  sIceLoad  vol(   0 ): 1.432E+15  Parms: SM      U1      
 Compute Stats, Diag. #    223  SIuice    vol(   0 ): 1.405E+15  Parms: UU      M1      
 Compute Stats, Diag. #    224  SIvice    vol(   0 ): 1.403E+15  Parms: VV      M1      
 Compute Stats, Diag. #    225  SItaux    vol(   0 ): 1.405E+15  Parms: UU      U1      
 Compute Stats, Diag. #    226  SItauy    vol(   0 ): 1.403E+15  Parms: VV      U1      
 Compute Stats, Diag. #    285  SIareaN   vol(   0 ): 7.160E+15  Parms: SM      MX      
 Compute Stats, Diag. #    284  SIheffN   vol(   0 ): 7.160E+15  Parms: SM      MX      
 Compute Stats, Diag. #    286  SIhsnowN  vol(   0 ): 7.160E+15  Parms: SM      MX      
 Compute Stats, Diag. #    290  SIqSnow   vol(   0 ): 7.160E+15  Parms: SM      MX      
 Compute Stats, Diag. #    289  SIqIce    vol(   0 ): 2.864E+16  Parms: SM      MX      
 Compute Stats, Diag. #    291  SImeltPd  vol(   0 ): 7.160E+15  Parms: SM      MX      
 Compute Stats, Diag. #    288  SItIces   vol(   0 ): 7.160E+15  Parms: SM      MX      
 Compute Stats, Diag. #    292  SIiceAge  vol(   0 ): 7.160E+15  Parms: SM      MX      
 Compute Stats, Diag. #    293  SI_dArea  vol(   0 ): 7.160E+15  Parms: SM      MX      
 Compute Stats, Diag. #    294  SI_dHeff  vol(   0 ): 7.160E+15  Parms: SM      MX      
 Compute Stats, Diag. #    295  SI_dHsnw  vol(   0 ): 7.160E+15  Parms: SM      MX      
 Compute Stats, Diag. #    298  SI_dQSnw  vol(   0 ): 7.160E+15  Parms: SM      MX      
 Compute Stats, Diag. #    297  SI_dQIce  vol(   0 ): 2.864E+16  Parms: SM      MX      
 SEAICE_LSR: Residual Initial ipass,Uice,Vice=    1  3.52211288E-02  3.91548951E-02
 SEAICE_LSR (ipass=   1) iters,dU,Resid=    78  4.78215432E-05  6.73735561E-03
 SEAICE_LSR (ipass=   1) iters,dV,Resid=    78  9.99888437E-05  1.46164508E-02
 SEAICE_LSR: Residual Initial ipass,Uice,Vice=    2  3.15932673E-02  3.46308950E-02
 SEAICE_LSR (ipass=   2) iters,dU,Resid=    66  4.04690002E-05  6.82163281E-03
 SEAICE_LSR (ipass=   2) iters,dV,Resid=    66  9.46159329E-05  1.41938228E-02
 cg2d: Sum(rhs),rhsMax =   6.28571423429819E+01  7.15930207331636E+00
 Computing Diagnostic #    289  SIqIce       Counter:       1   Parms: SM      MX      
 Computing Diagnostic #    297  SI_dQIce     Counter:       1   Parms: SM      MX      
 Computing Diagnostic #    290  SIqSnow      Counter:       1   Parms: SM      MX      
 Computing Diagnostic #    298  SI_dQSnw     Counter:       1   Parms: SM      MX      
 cg2d: Sum(rhs),rhsMax =   6.38352091994589E+01  7.16535362979702E+00
 cg2d: Sum(rhs),rhsMax =   6.47717267541492E+01  7.16837193968103E+00
 cg2d: Sum(rhs),rhsMax =   6.56664782934661E+01  7.16841984989994E+00
 Computing Diagnostic #     86  oceQnet      Counter:       4   Parms: SM      U1      
 Computing Diagnostic #     87  oceQsw       Counter:       4   Parms: SM      U1      
 Computing Diagnostic #     84  oceFWflx     Counter:       4   Parms: SM      U1      
 Computing Diagnostic #     85  oceSflux     Counter:       4   Parms: SM      U1      
 Computing Diagnostic #     80  oceTAUX      Counter:       4   Parms: UU      U1      
           Vector  Mate for  oceTAUX      Diagnostic #     81  oceTAUY  exists 
 Computing Diagnostic #     81  oceTAUY      Counter:       4   Parms: VV      U1      
           Vector  Mate for  oceTAUY      Diagnostic #     80  oceTAUX  exists 
 Computing Diagnostic #     26  THETA        Counter:       4   Parms: SMR     MR      
 Computing Diagnostic #     27  SALT         Counter:       4   Parms: SMR     MR      
 Computing Diagnostic #     30  UVEL         Counter:       4   Parms: UUR     MR      
           Vector  Mate for  UVEL         Diagnostic #     31  VVEL     exists 
 Computing Diagnostic #     31  VVEL         Counter:       4   Parms: VVR     MR      
           Vector  Mate for  VVEL         Diagnostic #     30  UVEL     exists 
 Computing Diagnostic #    214  SIarea       Counter:       4   Parms: SM      M1      
 Computing Diagnostic #    217  SIheff       Counter:       4   Parms: SM      M1      
 Computing Diagnostic #    219  SIhsnow      Counter:       4   Parms: SM      M1      
 Computing Diagnostic #     83  sIceLoad     Counter:       4   Parms: SM      U1      
 Computing Diagnostic #    223  SIuice       Counter:       4   Parms: UU      M1      
           Vector  Mate for  SIuice       Diagnostic #    224  SIvice   exists 
 Computing Diagnostic #    224  SIvice       Counter:       4   Parms: VV      M1      
           Vector  Mate for  SIvice       Diagnostic #    223  SIuice   exists 
 Computing Diagnostic #    225  SItaux       Counter:       4   Parms: UU      U1      
           Vector  Mate for  SItaux       Diagnostic #    226  SItauy   exists 
 Computing Diagnostic #    226  SItauy       Counter:       4   Parms: VV      U1      
           Vector  Mate for  SItauy       Diagnostic #    225  SItaux   exists 
 Computing Diagnostic #    285  SIareaN      Counter:       4   Parms: SM      MX      
 Computing Diagnostic #    284  SIheffN      Counter:       4   Parms: SM      MX      
 Computing Diagnostic #    286  SIhsnowN     Counter:       4   Parms: SM      MX      
 Computing Diagnostic #    290  SIqSnow      Counter:       4   Parms: SM      MX      
 Computing Diagnostic #    291  SImeltPd     Counter:       4   Parms: SM      MX      
 Computing Diagnostic #    288  SItIces      Counter:       4   Parms: SM      MX      
 Computing Diagnostic #    292  SIiceAge     Counter:       4   Parms: SM      MX      
 Computing Diagnostic #    293  SI_dArea     Counter:       4   Parms: SM      MX      
 Computing Diagnostic #    294  SI_dHeff     Counter:       4   Parms: SM      MX      
 Computing Diagnostic #    295  SI_dHsnw     Counter:       4   Parms: SM      MX      
 Computing Diagnostic #    298  SI_dQSnw     Counter:       4   Parms: SM      MX      
 Compute Stats, Diag. #    214  SIarea    vol(   0 ): 1.432E+15  Parms: SM      M1      
 Compute Stats, Diag. #    217  SIheff    vol(   0 ): 1.432E+15  Parms: SM      M1      
 Compute Stats, Diag. #    219  SIhsnow   vol(   0 ): 1.432E+15  Parms: SM      M1      
 Compute Stats, Diag. #     83  sIceLoad  vol(   0 ): 1.432E+15  Parms: SM      U1      
 Compute Stats, Diag. #    223  SIuice    vol(   0 ): 1.405E+15  Parms: UU      M1      
 Compute Stats, Diag. #    224  SIvice    vol(   0 ): 1.403E+15  Parms: VV      M1      
 Compute Stats, Diag. #    225  SItaux    vol(   0 ): 1.405E+15  Parms: UU      U1      
 Compute Stats, Diag. #    226  SItauy    vol(   0 ): 1.403E+15  Parms: VV      U1      
 Compute Stats, Diag. #    285  SIareaN   vol(   0 ): 7.160E+15  Parms: SM      MX      
 Compute Stats, Diag. #    284  SIheffN   vol(   0 ): 7.160E+15  Parms: SM      MX      
 Compute Stats, Diag. #    286  SIhsnowN  vol(   0 ): 7.160E+15  Parms: SM      MX      
 Compute Stats, Diag. #    290  SIqSnow   vol(   0 ): 7.160E+15  Parms: SM      MX      
 Compute Stats, Diag. #    289  SIqIce    vol(   0 ): 2.864E+16  Parms: SM      MX      
 Compute Stats, Diag. #    291  SImeltPd  vol(   0 ): 7.160E+15  Parms: SM      MX      
 Compute Stats, Diag. #    288  SItIces   vol(   0 ): 7.160E+15  Parms: SM      MX      
 Compute Stats, Diag. #    292  SIiceAge  vol(   0 ): 7.160E+15  Parms: SM      MX      
 Compute Stats, Diag. #    293  SI_dArea  vol(   0 ): 7.160E+15  Parms: SM      MX      
 Compute Stats, Diag. #    294  SI_dHeff  vol(   0 ): 7.160E+15  Parms: SM      MX      
 Compute Stats, Diag. #    295  SI_dHsnw  vol(   0 ): 7.160E+15  Parms: SM      MX      
 Compute Stats, Diag. #    298  SI_dQSnw  vol(   0 ): 7.160E+15  Parms: SM      MX      
 Compute Stats, Diag. #    297  SI_dQIce  vol(   0 ): 2.864E+16  Parms: SM      MX      
 cg2d: Sum(rhs),rhsMax =   6.65284911740867E+01  7.16636629099569E+00
 Computing Diagnostic #    289  SIqIce       Counter:       1   Parms: SM      MX      
 Computing Diagnostic #    297  SI_dQIce     Counter:       1   Parms: SM      MX      
 Computing Diagnostic #    290  SIqSnow      Counter:       1   Parms: SM      MX      
 Computing Diagnostic #    298  SI_dQSnw     Counter:       1   Parms: SM      MX      
 cg2d: Sum(rhs),rhsMax =   6.73527567815136E+01  7.16319363345389E+00
 cg2d: Sum(rhs),rhsMax =   6.81343442708201E+01  7.15934197350323E+00
 cg2d: Sum(rhs),rhsMax =   6.88796115679266E+01  7.15484307371635E+00
(PID.TID 0000.0001)      cg2d_init_res =   3.65338558610206E+00
(PID.TID 0000.0001)      cg2d_iters(min,last) =      -1      38
(PID.TID 0000.0001)      cg2d_last_res =   2.83129627840362E-05
(PID.TID 0000.0001) // =======================================================
(PID.TID 0000.0001) // Begin MONITOR dynamic field statistics
(PID.TID 0000.0001) // =======================================================
(PID.TID 0000.0001) %MON time_tsnumber                =                    24
(PID.TID 0000.0001) %MON time_secondsf                =   2.1600000000000E+04
(PID.TID 0000.0001) %MON dynstat_eta_max              =   1.1103424577199E+01
(PID.TID 0000.0001) %MON dynstat_eta_min              =  -4.9198482211996E+00
(PID.TID 0000.0001) %MON dynstat_eta_mean             =  -2.1788821007764E-03
(PID.TID 0000.0001) %MON dynstat_eta_sd               =   9.1619021155770E-01
(PID.TID 0000.0001) %MON dynstat_eta_del2             =   3.6754777694107E-03
(PID.TID 0000.0001) %MON dynstat_uvel_max             =   1.1597475917213E+00
(PID.TID 0000.0001) %MON dynstat_uvel_min             =  -1.8079207779766E+00
(PID.TID 0000.0001) %MON dynstat_uvel_mean            =   2.2100547515586E-03
(PID.TID 0000.0001) %MON dynstat_uvel_sd              =   2.3088455741063E-02
(PID.TID 0000.0001) %MON dynstat_uvel_del2            =   1.5770142682168E-05
(PID.TID 0000.0001) %MON dynstat_vvel_max             =   8.9677446980325E-01
(PID.TID 0000.0001) %MON dynstat_vvel_min             =  -1.1160877132544E+00
(PID.TID 0000.0001) %MON dynstat_vvel_mean            =   1.8742605463309E-03
(PID.TID 0000.0001) %MON dynstat_vvel_sd              =   2.4909809964733E-02
(PID.TID 0000.0001) %MON dynstat_vvel_del2            =   1.6637506487817E-05
(PID.TID 0000.0001) %MON dynstat_wvel_max             =   6.0616603228845E-03
(PID.TID 0000.0001) %MON dynstat_wvel_min             =  -3.6483104037208E-03
(PID.TID 0000.0001) %MON dynstat_wvel_mean            =   1.1416240890729E-07
(PID.TID 0000.0001) %MON dynstat_wvel_sd              =   3.6701910302642E-05
(PID.TID 0000.0001) %MON dynstat_wvel_del2            =   5.2241882232370E-08
(PID.TID 0000.0001) %MON dynstat_theta_max            =   3.2583313800199E+01
(PID.TID 0000.0001) %MON dynstat_theta_min            =  -2.0406689561916E+00
(PID.TID 0000.0001) %MON dynstat_theta_mean           =   3.5906096795032E+00
(PID.TID 0000.0001) %MON dynstat_theta_sd             =   4.4366414396431E+00
(PID.TID 0000.0001) %MON dynstat_theta_del2           =   1.0853654612543E-04
(PID.TID 0000.0001) %MON dynstat_salt_max             =   4.0711528660063E+01
(PID.TID 0000.0001) %MON dynstat_salt_min             =   1.8884340263468E+01
(PID.TID 0000.0001) %MON dynstat_salt_mean            =   3.4725694353628E+01
(PID.TID 0000.0001) %MON dynstat_salt_sd              =   3.7743993897613E-01
(PID.TID 0000.0001) %MON dynstat_salt_del2            =   2.6677765522632E-05
(PID.TID 0000.0001) %MON dynstat_sst_max              =   3.2583313800199E+01
(PID.TID 0000.0001) %MON dynstat_sst_min              =  -1.9365445134716E+00
(PID.TID 0000.0001) %MON dynstat_sst_mean             =   1.8501927466394E+01
(PID.TID 0000.0001) %MON dynstat_sst_sd               =   1.0099944935866E+01
(PID.TID 0000.0001) %MON dynstat_sst_del2             =   8.6032426752086E-04
(PID.TID 0000.0001) %MON dynstat_sss_max              =   3.9580133997504E+01
(PID.TID 0000.0001) %MON dynstat_sss_min              =   1.8884340263468E+01
(PID.TID 0000.0001) %MON dynstat_sss_mean             =   3.4690824346893E+01
(PID.TID 0000.0001) %MON dynstat_sss_sd               =   1.1322869620376E+00
(PID.TID 0000.0001) %MON dynstat_sss_del2             =   4.1463963515313E-04
(PID.TID 0000.0001) %MON forcing_qnet_max             =   2.7964633543975E+03
(PID.TID 0000.0001) %MON forcing_qnet_min             =  -1.0355595114809E+03
(PID.TID 0000.0001) %MON forcing_qnet_mean            =   1.5209727347581E-01
(PID.TID 0000.0001) %MON forcing_qnet_sd              =   2.0546613716486E+02
(PID.TID 0000.0001) %MON forcing_qnet_del2            =   4.9310640358174E-01
(PID.TID 0000.0001) %MON forcing_qsw_max              =   0.0000000000000E+00
(PID.TID 0000.0001) %MON forcing_qsw_min              =  -1.1177462268520E+02
(PID.TID 0000.0001) %MON forcing_qsw_mean             =  -1.8797739654759E+01
(PID.TID 0000.0001) %MON forcing_qsw_sd               =   2.7466112073312E+01
(PID.TID 0000.0001) %MON forcing_qsw_del2             =   2.1943322347779E-02
(PID.TID 0000.0001) %MON forcing_empmr_max            =   3.1113007571548E-03
(PID.TID 0000.0001) %MON forcing_empmr_min            =  -7.3255881667137E-02
(PID.TID 0000.0001) %MON forcing_empmr_mean           =   2.6954294659481E-05
(PID.TID 0000.0001) %MON forcing_empmr_sd             =   4.0023835377132E-04
(PID.TID 0000.0001) %MON forcing_empmr_del2           =   3.2133537177268E-06
(PID.TID 0000.0001) %MON forcing_fu_max               =   1.1644285224325E+00
(PID.TID 0000.0001) %MON forcing_fu_min               =  -1.0779991419340E+00
(PID.TID 0000.0001) %MON forcing_fu_mean              =   1.2218427329282E-02
(PID.TID 0000.0001) %MON forcing_fu_sd                =   1.1539659996289E-01
(PID.TID 0000.0001) %MON forcing_fu_del2              =   1.7251075189301E-04
(PID.TID 0000.0001) %MON forcing_fv_max               =   7.7353160892465E-01
(PID.TID 0000.0001) %MON forcing_fv_min               =  -7.0504813187488E-01
(PID.TID 0000.0001) %MON forcing_fv_mean              =  -5.0469951860152E-03
(PID.TID 0000.0001) %MON forcing_fv_sd                =   1.0814591641379E-01
(PID.TID 0000.0001) %MON forcing_fv_del2              =   1.4514201311603E-04
(PID.TID 0000.0001) %MON trAdv_CFL_u_max              =   1.8780390566960E-02
(PID.TID 0000.0001) %MON trAdv_CFL_v_max              =   2.0293922700749E-02
(PID.TID 0000.0001) %MON trAdv_CFL_w_max              =   1.3615346180035E-01
(PID.TID 0000.0001) %MON advcfl_uvel_max              =   1.7951746668139E-02
(PID.TID 0000.0001) %MON advcfl_vvel_max              =   1.8825580538189E-02
(PID.TID 0000.0001) %MON advcfl_wvel_max              =   1.4383962324651E-01
(PID.TID 0000.0001) %MON advcfl_W_hf_max              =   1.5230541907977E-01
(PID.TID 0000.0001) %MON pe_b_mean                    =   1.6877742918556E-05
(PID.TID 0000.0001) %MON ke_max                       =   1.3077520229242E+00
(PID.TID 0000.0001) %MON ke_mean                      =   5.6029314731654E-04
(PID.TID 0000.0001) %MON ke_vol                       =   1.3349971053095E+18
(PID.TID 0000.0001) %MON vort_r_min                   =  -4.0552663748387E-05
(PID.TID 0000.0001) %MON vort_r_max                   =   4.0337336192893E-05
(PID.TID 0000.0001) %MON vort_a_mean                  =  -1.9727864647440E-05
(PID.TID 0000.0001) %MON vort_a_sd                    =   7.4543328120019E-05
(PID.TID 0000.0001) %MON vort_p_mean                  =  -2.1760720033733E-05
(PID.TID 0000.0001) %MON vort_p_sd                    =   9.7249560669976E-05
(PID.TID 0000.0001) %MON surfExpan_theta_mean         =  -1.2719386489365E-06
(PID.TID 0000.0001) %MON surfExpan_salt_mean          =  -3.0889711292355E-07
(PID.TID 0000.0001) // =======================================================
(PID.TID 0000.0001) // End MONITOR dynamic field statistics
(PID.TID 0000.0001) // =======================================================
(PID.TID 0000.0001) // =======================================================
(PID.TID 0000.0001) // Begin MONITOR SEAICE statistics
(PID.TID 0000.0001) // =======================================================
(PID.TID 0000.0001) %MON seaice_tsnumber              =                    24
(PID.TID 0000.0001) %MON seaice_time_sec              =   2.1600000000000E+04
(PID.TID 0000.0001) %MON seaice_uice_max              =   1.2081758623194E+00
(PID.TID 0000.0001) %MON seaice_uice_min              =  -1.8407801836336E+00
(PID.TID 0000.0001) %MON seaice_uice_mean             =  -2.0532049472012E-03
(PID.TID 0000.0001) %MON seaice_uice_sd               =   1.6240582484430E-01
(PID.TID 0000.0001) %MON seaice_uice_del2             =   2.7008206134746E-04
(PID.TID 0000.0001) %MON seaice_vice_max              =   9.4422099258982E-01
(PID.TID 0000.0001) %MON seaice_vice_min              =  -1.1545877629364E+00
(PID.TID 0000.0001) %MON seaice_vice_mean             =  -4.0018204702176E-03
(PID.TID 0000.0001) %MON seaice_vice_sd               =   1.4238126211834E-01
(PID.TID 0000.0001) %MON seaice_vice_del2             =   2.4957775732256E-04
(PID.TID 0000.0001) %MON seaice_area_max              =   1.0000000000000E+00
(PID.TID 0000.0001) %MON seaice_area_min              =   0.0000000000000E+00
(PID.TID 0000.0001) %MON seaice_area_mean             =   7.2145170648935E-02
(PID.TID 0000.0001) %MON seaice_area_sd               =   2.3728782540611E-01
(PID.TID 0000.0001) %MON seaice_area_del2             =   4.2346146269968E-04
(PID.TID 0000.0001) %MON seaice_heff_max              =   2.5464295053736E+01
(PID.TID 0000.0001) %MON seaice_heff_min              =   0.0000000000000E+00
(PID.TID 0000.0001) %MON seaice_heff_mean             =   2.1654504972340E-01
(PID.TID 0000.0001) %MON seaice_heff_sd               =   1.0622602369539E+00
(PID.TID 0000.0001) %MON seaice_heff_del2             =   3.4710471367513E-03
(PID.TID 0000.0001) %MON seaice_hsnow_max             =   8.4103533567240E+00
(PID.TID 0000.0001) %MON seaice_hsnow_min             =   0.0000000000000E+00
(PID.TID 0000.0001) %MON seaice_hsnow_mean            =   2.4623558070135E-02
(PID.TID 0000.0001) %MON seaice_hsnow_sd              =   1.5528430676817E-01
(PID.TID 0000.0001) %MON seaice_hsnow_del2            =   1.1051213457851E-03
(PID.TID 0000.0001) // =======================================================
(PID.TID 0000.0001) // End MONITOR SEAICE statistics
(PID.TID 0000.0001) // =======================================================
 Computing Diagnostic #     86  oceQnet      Counter:       4   Parms: SM      U1      
 Computing Diagnostic #     87  oceQsw       Counter:       4   Parms: SM      U1      
 Computing Diagnostic #     84  oceFWflx     Counter:       4   Parms: SM      U1      
 Computing Diagnostic #     85  oceSflux     Counter:       4   Parms: SM      U1      
 Computing Diagnostic #     80  oceTAUX      Counter:       4   Parms: UU      U1      
           Vector  Mate for  oceTAUX      Diagnostic #     81  oceTAUY  exists 
 Computing Diagnostic #     81  oceTAUY      Counter:       4   Parms: VV      U1      
           Vector  Mate for  oceTAUY      Diagnostic #     80  oceTAUX  exists 
 Computing Diagnostic #     26  THETA        Counter:       4   Parms: SMR     MR      
 Computing Diagnostic #     27  SALT         Counter:       4   Parms: SMR     MR      
 Computing Diagnostic #     30  UVEL         Counter:       4   Parms: UUR     MR      
           Vector  Mate for  UVEL         Diagnostic #     31  VVEL     exists 
 Computing Diagnostic #     31  VVEL         Counter:       4   Parms: VVR     MR      
           Vector  Mate for  VVEL         Diagnostic #     30  UVEL     exists 
 Computing Diagnostic #    214  SIarea       Counter:       4   Parms: SM      M1      
 Computing Diagnostic #    217  SIheff       Counter:       4   Parms: SM      M1      
 Computing Diagnostic #    219  SIhsnow      Counter:       4   Parms: SM      M1      
 Computing Diagnostic #     83  sIceLoad     Counter:       4   Parms: SM      U1      
 Computing Diagnostic #    223  SIuice       Counter:       4   Parms: UU      M1      
           Vector  Mate for  SIuice       Diagnostic #    224  SIvice   exists 
 Computing Diagnostic #    224  SIvice       Counter:       4   Parms: VV      M1      
           Vector  Mate for  SIvice       Diagnostic #    223  SIuice   exists 
 Computing Diagnostic #    225  SItaux       Counter:       4   Parms: UU      U1      
           Vector  Mate for  SItaux       Diagnostic #    226  SItauy   exists 
 Computing Diagnostic #    226  SItauy       Counter:       4   Parms: VV      U1      
           Vector  Mate for  SItauy       Diagnostic #    225  SItaux   exists 
 Computing Diagnostic #    285  SIareaN      Counter:       4   Parms: SM      MX      
 Computing Diagnostic #    284  SIheffN      Counter:       4   Parms: SM      MX      
 Computing Diagnostic #    286  SIhsnowN     Counter:       4   Parms: SM      MX      
 Computing Diagnostic #    290  SIqSnow      Counter:       4   Parms: SM      MX      
 Computing Diagnostic #    291  SImeltPd     Counter:       4   Parms: SM      MX      
 Computing Diagnostic #    288  SItIces      Counter:       4   Parms: SM      MX      
 Computing Diagnostic #    292  SIiceAge     Counter:       4   Parms: SM      MX      
 Computing Diagnostic #    293  SI_dArea     Counter:       4   Parms: SM      MX      
 Computing Diagnostic #    294  SI_dHeff     Counter:       4   Parms: SM      MX      
 Computing Diagnostic #    295  SI_dHsnw     Counter:       4   Parms: SM      MX      
 Computing Diagnostic #    298  SI_dQSnw     Counter:       4   Parms: SM      MX      
 Compute Stats, Diag. #    214  SIarea    vol(   0 ): 1.432E+15  Parms: SM      M1      
 Compute Stats, Diag. #    217  SIheff    vol(   0 ): 1.432E+15  Parms: SM      M1      
 Compute Stats, Diag. #    219  SIhsnow   vol(   0 ): 1.432E+15  Parms: SM      M1      
 Compute Stats, Diag. #     83  sIceLoad  vol(   0 ): 1.432E+15  Parms: SM      U1      
 Compute Stats, Diag. #    223  SIuice    vol(   0 ): 1.405E+15  Parms: UU      M1      
 Compute Stats, Diag. #    224  SIvice    vol(   0 ): 1.403E+15  Parms: VV      M1      
 Compute Stats, Diag. #    225  SItaux    vol(   0 ): 1.405E+15  Parms: UU      U1      
 Compute Stats, Diag. #    226  SItauy    vol(   0 ): 1.403E+15  Parms: VV      U1      
 Compute Stats, Diag. #    285  SIareaN   vol(   0 ): 7.160E+15  Parms: SM      MX      
 Compute Stats, Diag. #    284  SIheffN   vol(   0 ): 7.160E+15  Parms: SM      MX      
 Compute Stats, Diag. #    286  SIhsnowN  vol(   0 ): 7.160E+15  Parms: SM      MX      
 Compute Stats, Diag. #    290  SIqSnow   vol(   0 ): 7.160E+15  Parms: SM      MX      
 Compute Stats, Diag. #    289  SIqIce    vol(   0 ): 2.864E+16  Parms: SM      MX      
 Compute Stats, Diag. #    291  SImeltPd  vol(   0 ): 7.160E+15  Parms: SM      MX      
 Compute Stats, Diag. #    288  SItIces   vol(   0 ): 7.160E+15  Parms: SM      MX      
 Compute Stats, Diag. #    292  SIiceAge  vol(   0 ): 7.160E+15  Parms: SM      MX      
 Compute Stats, Diag. #    293  SI_dArea  vol(   0 ): 7.160E+15  Parms: SM      MX      
 Compute Stats, Diag. #    294  SI_dHeff  vol(   0 ): 7.160E+15  Parms: SM      MX      
 Compute Stats, Diag. #    295  SI_dHsnw  vol(   0 ): 7.160E+15  Parms: SM      MX      
 Compute Stats, Diag. #    298  SI_dQSnw  vol(   0 ): 7.160E+15  Parms: SM      MX      
 Compute Stats, Diag. #    297  SI_dQIce  vol(   0 ): 2.864E+16  Parms: SM      MX      
 SEAICE_LSR: Residual Initial ipass,Uice,Vice=    1  2.56476589E-02  3.13103676E-02
 SEAICE_LSR (ipass=   1) iters,dU,Resid=    40  7.92642795E-05  9.73903073E-03
 SEAICE_LSR (ipass=   1) iters,dV,Resid=    40  9.07821483E-05  1.98126250E-02
 SEAICE_LSR: Residual Initial ipass,Uice,Vice=    2  2.35908645E-02  3.06701094E-02
 SEAICE_LSR (ipass=   2) iters,dU,Resid=    30  6.29786014E-05  1.01177112E-02
 SEAICE_LSR (ipass=   2) iters,dV,Resid=    30  9.08918867E-05  1.98958217E-02
 cg2d: Sum(rhs),rhsMax =   6.95854868916185E+01  7.14995834662675E+00
 Computing Diagnostic #    289  SIqIce       Counter:       1   Parms: SM      MX      
 Computing Diagnostic #    297  SI_dQIce     Counter:       1   Parms: SM      MX      
 Computing Diagnostic #    290  SIqSnow      Counter:       1   Parms: SM      MX      
 Computing Diagnostic #    298  SI_dQSnw     Counter:       1   Parms: SM      MX      
 cg2d: Sum(rhs),rhsMax =   7.02621645860271E+01  7.14526788376366E+00
 cg2d: Sum(rhs),rhsMax =   7.09053669852619E+01  7.14130535668831E+00
 cg2d: Sum(rhs),rhsMax =   7.15116458048237E+01  7.13821081461097E+00
 Computing Diagnostic #     86  oceQnet      Counter:       4   Parms: SM      U1      
 Computing Diagnostic #     87  oceQsw       Counter:       4   Parms: SM      U1      
 Computing Diagnostic #     84  oceFWflx     Counter:       4   Parms: SM      U1      
 Computing Diagnostic #     85  oceSflux     Counter:       4   Parms: SM      U1      
 Computing Diagnostic #     80  oceTAUX      Counter:       4   Parms: UU      U1      
           Vector  Mate for  oceTAUX      Diagnostic #     81  oceTAUY  exists 
 Computing Diagnostic #     81  oceTAUY      Counter:       4   Parms: VV      U1      
           Vector  Mate for  oceTAUY      Diagnostic #     80  oceTAUX  exists 
 Computing Diagnostic #     26  THETA        Counter:       4   Parms: SMR     MR      
 Computing Diagnostic #     27  SALT         Counter:       4   Parms: SMR     MR      
 Computing Diagnostic #     30  UVEL         Counter:       4   Parms: UUR     MR      
           Vector  Mate for  UVEL         Diagnostic #     31  VVEL     exists 
 Computing Diagnostic #     31  VVEL         Counter:       4   Parms: VVR     MR      
           Vector  Mate for  VVEL         Diagnostic #     30  UVEL     exists 
 Computing Diagnostic #    214  SIarea       Counter:       4   Parms: SM      M1      
 Computing Diagnostic #    217  SIheff       Counter:       4   Parms: SM      M1      
 Computing Diagnostic #    219  SIhsnow      Counter:       4   Parms: SM      M1      
 Computing Diagnostic #     83  sIceLoad     Counter:       4   Parms: SM      U1      
 Computing Diagnostic #    223  SIuice       Counter:       4   Parms: UU      M1      
           Vector  Mate for  SIuice       Diagnostic #    224  SIvice   exists 
 Computing Diagnostic #    224  SIvice       Counter:       4   Parms: VV      M1      
           Vector  Mate for  SIvice       Diagnostic #    223  SIuice   exists 
 Computing Diagnostic #    225  SItaux       Counter:       4   Parms: UU      U1      
           Vector  Mate for  SItaux       Diagnostic #    226  SItauy   exists 
 Computing Diagnostic #    226  SItauy       Counter:       4   Parms: VV      U1      
           Vector  Mate for  SItauy       Diagnostic #    225  SItaux   exists 
 Computing Diagnostic #    285  SIareaN      Counter:       4   Parms: SM      MX      
 Computing Diagnostic #    284  SIheffN      Counter:       4   Parms: SM      MX      
 Computing Diagnostic #    286  SIhsnowN     Counter:       4   Parms: SM      MX      
 Computing Diagnostic #    290  SIqSnow      Counter:       4   Parms: SM      MX      
 Computing Diagnostic #    291  SImeltPd     Counter:       4   Parms: SM      MX      
 Computing Diagnostic #    288  SItIces      Counter:       4   Parms: SM      MX      
 Computing Diagnostic #    292  SIiceAge     Counter:       4   Parms: SM      MX      
 Computing Diagnostic #    293  SI_dArea     Counter:       4   Parms: SM      MX      
 Computing Diagnostic #    294  SI_dHeff     Counter:       4   Parms: SM      MX      
 Computing Diagnostic #    295  SI_dHsnw     Counter:       4   Parms: SM      MX      
 Computing Diagnostic #    298  SI_dQSnw     Counter:       4   Parms: SM      MX      
 Compute Stats, Diag. #    214  SIarea    vol(   0 ): 1.432E+15  Parms: SM      M1      
 Compute Stats, Diag. #    217  SIheff    vol(   0 ): 1.432E+15  Parms: SM      M1      
 Compute Stats, Diag. #    219  SIhsnow   vol(   0 ): 1.432E+15  Parms: SM      M1      
 Compute Stats, Diag. #     83  sIceLoad  vol(   0 ): 1.432E+15  Parms: SM      U1      
 Compute Stats, Diag. #    223  SIuice    vol(   0 ): 1.405E+15  Parms: UU      M1      
 Compute Stats, Diag. #    224  SIvice    vol(   0 ): 1.403E+15  Parms: VV      M1      
 Compute Stats, Diag. #    225  SItaux    vol(   0 ): 1.405E+15  Parms: UU      U1      
 Compute Stats, Diag. #    226  SItauy    vol(   0 ): 1.403E+15  Parms: VV      U1      
 Compute Stats, Diag. #    285  SIareaN   vol(   0 ): 7.160E+15  Parms: SM      MX      
 Compute Stats, Diag. #    284  SIheffN   vol(   0 ): 7.160E+15  Parms: SM      MX      
 Compute Stats, Diag. #    286  SIhsnowN  vol(   0 ): 7.160E+15  Parms: SM      MX      
 Compute Stats, Diag. #    290  SIqSnow   vol(   0 ): 7.160E+15  Parms: SM      MX      
 Compute Stats, Diag. #    289  SIqIce    vol(   0 ): 2.864E+16  Parms: SM      MX      
 Compute Stats, Diag. #    291  SImeltPd  vol(   0 ): 7.160E+15  Parms: SM      MX      
 Compute Stats, Diag. #    288  SItIces   vol(   0 ): 7.160E+15  Parms: SM      MX      
 Compute Stats, Diag. #    292  SIiceAge  vol(   0 ): 7.160E+15  Parms: SM      MX      
 Compute Stats, Diag. #    293  SI_dArea  vol(   0 ): 7.160E+15  Parms: SM      MX      
 Compute Stats, Diag. #    294  SI_dHeff  vol(   0 ): 7.160E+15  Parms: SM      MX      
 Compute Stats, Diag. #    295  SI_dHsnw  vol(   0 ): 7.160E+15  Parms: SM      MX      
 Compute Stats, Diag. #    298  SI_dQSnw  vol(   0 ): 7.160E+15  Parms: SM      MX      
 Compute Stats, Diag. #    297  SI_dQIce  vol(   0 ): 2.864E+16  Parms: SM      MX      
 cg2d: Sum(rhs),rhsMax =   7.20899630975846E+01  7.13581627931454E+00
 Computing Diagnostic #    289  SIqIce       Counter:       1   Parms: SM      MX      
 Computing Diagnostic #    297  SI_dQIce     Counter:       1   Parms: SM      MX      
 Computing Diagnostic #    290  SIqSnow      Counter:       1   Parms: SM      MX      
 Computing Diagnostic #    298  SI_dQSnw     Counter:       1   Parms: SM      MX      
 cg2d: Sum(rhs),rhsMax =   7.26309354007258E+01  7.13403424395780E+00
 cg2d: Sum(rhs),rhsMax =   7.31359636925082E+01  7.13283823283383E+00
 cg2d: Sum(rhs),rhsMax =   7.36071493254947E+01  7.13215534120514E+00
(PID.TID 0000.0001)      cg2d_init_res =   2.87100102105104E+00
(PID.TID 0000.0001)      cg2d_iters(min,last) =      -1      35
(PID.TID 0000.0001)      cg2d_last_res =   2.44911173519220E-05
(PID.TID 0000.0001) // =======================================================
(PID.TID 0000.0001) // Begin MONITOR dynamic field statistics
(PID.TID 0000.0001) // =======================================================
(PID.TID 0000.0001) %MON time_tsnumber                =                    32
(PID.TID 0000.0001) %MON time_secondsf                =   2.8800000000000E+04
(PID.TID 0000.0001) %MON dynstat_eta_max              =   1.0233158103221E+01
(PID.TID 0000.0001) %MON dynstat_eta_min              =  -5.0155148343917E+00
(PID.TID 0000.0001) %MON dynstat_eta_mean             =  -2.3284292188023E-03
(PID.TID 0000.0001) %MON dynstat_eta_sd               =   9.0765420574194E-01
(PID.TID 0000.0001) %MON dynstat_eta_del2             =   3.6576954226873E-03
(PID.TID 0000.0001) %MON dynstat_uvel_max             =   1.0897998814995E+00
(PID.TID 0000.0001) %MON dynstat_uvel_min             =  -1.8813399004054E+00
(PID.TID 0000.0001) %MON dynstat_uvel_mean            =   1.6590723011010E-03
(PID.TID 0000.0001) %MON dynstat_uvel_sd              =   2.2584807749432E-02
(PID.TID 0000.0001) %MON dynstat_uvel_del2            =   1.4554432167300E-05
(PID.TID 0000.0001) %MON dynstat_vvel_max             =   7.7332171293851E-01
(PID.TID 0000.0001) %MON dynstat_vvel_min             =  -9.3251764516628E-01
(PID.TID 0000.0001) %MON dynstat_vvel_mean            =   1.1933965694490E-03
(PID.TID 0000.0001) %MON dynstat_vvel_sd              =   2.4410407980940E-02
(PID.TID 0000.0001) %MON dynstat_vvel_del2            =   1.5311694920694E-05
(PID.TID 0000.0001) %MON dynstat_wvel_max             =   3.7083503419560E-03
(PID.TID 0000.0001) %MON dynstat_wvel_min             =  -3.2175664015938E-03
(PID.TID 0000.0001) %MON dynstat_wvel_mean            =  -3.6915615661804E-08
(PID.TID 0000.0001) %MON dynstat_wvel_sd              =   3.6464760849816E-05
(PID.TID 0000.0001) %MON dynstat_wvel_del2            =   5.2762899413858E-08
(PID.TID 0000.0001) %MON dynstat_theta_max            =   3.2599727950262E+01
(PID.TID 0000.0001) %MON dynstat_theta_min            =  -2.0405027815923E+00
(PID.TID 0000.0001) %MON dynstat_theta_mean           =   3.5906015494787E+00
(PID.TID 0000.0001) %MON dynstat_theta_sd             =   4.4366049438164E+00
(PID.TID 0000.0001) %MON dynstat_theta_del2           =   1.0781111234848E-04
(PID.TID 0000.0001) %MON dynstat_salt_max             =   4.0711527145087E+01
(PID.TID 0000.0001) %MON dynstat_salt_min             =   1.8888684691954E+01
(PID.TID 0000.0001) %MON dynstat_salt_mean            =   3.4725672217185E+01
(PID.TID 0000.0001) %MON dynstat_salt_sd              =   3.7734279849586E-01
(PID.TID 0000.0001) %MON dynstat_salt_del2            =   2.6597496701019E-05
(PID.TID 0000.0001) %MON dynstat_sst_max              =   3.2599727950262E+01
(PID.TID 0000.0001) %MON dynstat_sst_min              =  -1.9419335003960E+00
(PID.TID 0000.0001) %MON dynstat_sst_mean             =   1.8497218939522E+01
(PID.TID 0000.0001) %MON dynstat_sst_sd               =   1.0102679577146E+01
(PID.TID 0000.0001) %MON dynstat_sst_del2             =   8.5335148293040E-04
(PID.TID 0000.0001) %MON dynstat_sss_max              =   3.9549145578944E+01
(PID.TID 0000.0001) %MON dynstat_sss_min              =   1.8888684691954E+01
(PID.TID 0000.0001) %MON dynstat_sss_mean             =   3.4686572111486E+01
(PID.TID 0000.0001) %MON dynstat_sss_sd               =   1.1267609020642E+00
(PID.TID 0000.0001) %MON dynstat_sss_del2             =   4.3306927933989E-04
(PID.TID 0000.0001) %MON forcing_qnet_max             =   2.2584409179688E+03
(PID.TID 0000.0001) %MON forcing_qnet_min             =  -1.3363798828125E+03
(PID.TID 0000.0001) %MON forcing_qnet_mean            =   2.8602175366407E+01
(PID.TID 0000.0001) %MON forcing_qnet_sd              =   1.9184112788991E+02
(PID.TID 0000.0001) %MON forcing_qnet_del2            =   5.3021626965821E-01
(PID.TID 0000.0001) %MON forcing_qsw_max              =   0.0000000000000E+00
(PID.TID 0000.0001) %MON forcing_qsw_min              =  -1.0940606308267E+02
(PID.TID 0000.0001) %MON forcing_qsw_mean             =  -1.6391965466768E+01
(PID.TID 0000.0001) %MON forcing_qsw_sd               =   2.5495087433867E+01
(PID.TID 0000.0001) %MON forcing_qsw_del2             =   2.0740382509401E-02
(PID.TID 0000.0001) %MON forcing_empmr_max            =   3.0767880380154E-03
(PID.TID 0000.0001) %MON forcing_empmr_min            =  -8.0779634416103E-02
(PID.TID 0000.0001) %MON forcing_empmr_mean           =   1.7041505027856E-05
(PID.TID 0000.0001) %MON forcing_empmr_sd             =   4.1359157212497E-04
(PID.TID 0000.0001) %MON forcing_empmr_del2           =   4.4526788943120E-06
(PID.TID 0000.0001) %MON forcing_fu_max               =   1.0848532094471E+00
(PID.TID 0000.0001) %MON forcing_fu_min               =  -9.8483450916860E-01
(PID.TID 0000.0001) %MON forcing_fu_mean              =   1.2547394358297E-02
(PID.TID 0000.0001) %MON forcing_fu_sd                =   1.1255689928753E-01
(PID.TID 0000.0001) %MON forcing_fu_del2              =   1.6167028411252E-04
(PID.TID 0000.0001) %MON forcing_fv_max               =   7.2916149704849E-01
(PID.TID 0000.0001) %MON forcing_fv_min               =  -7.0526731277394E-01
(PID.TID 0000.0001) %MON forcing_fv_mean              =  -6.3053981512643E-03
(PID.TID 0000.0001) %MON forcing_fv_sd                =   1.0675242633435E-01
(PID.TID 0000.0001) %MON forcing_fv_del2              =   1.3823436361319E-04
(PID.TID 0000.0001) %MON trAdv_CFL_u_max              =   1.4262273465307E-02
(PID.TID 0000.0001) %MON trAdv_CFL_v_max              =   1.7694929546336E-02
(PID.TID 0000.0001) %MON trAdv_CFL_w_max              =   1.0941479195065E-01
(PID.TID 0000.0001) %MON advcfl_uvel_max              =   1.5234643472121E-02
(PID.TID 0000.0001) %MON advcfl_vvel_max              =   1.6839564945186E-02
(PID.TID 0000.0001) %MON advcfl_wvel_max              =   1.1376709781632E-01
(PID.TID 0000.0001) %MON advcfl_W_hf_max              =   1.1913112982308E-01
(PID.TID 0000.0001) %MON pe_b_mean                    =   2.7463133972645E-05
(PID.TID 0000.0001) %MON ke_max                       =   1.0385924951299E+00
(PID.TID 0000.0001) %MON ke_mean                      =   5.3528990203918E-04
(PID.TID 0000.0001) %MON ke_vol                       =   1.3349970486656E+18
(PID.TID 0000.0001) %MON vort_r_min                   =  -4.1079459228329E-05
(PID.TID 0000.0001) %MON vort_r_max                   =   4.3924587171399E-05
(PID.TID 0000.0001) %MON vort_a_mean                  =  -1.9727864647440E-05
(PID.TID 0000.0001) %MON vort_a_sd                    =   7.4543097319872E-05
(PID.TID 0000.0001) %MON vort_p_mean                  =  -2.1760715024330E-05
(PID.TID 0000.0001) %MON vort_p_sd                    =   9.7249987330031E-05
(PID.TID 0000.0001) %MON surfExpan_theta_mean         =   1.4125028349998E-06
(PID.TID 0000.0001) %MON surfExpan_salt_mean          =  -3.1804440567504E-07
(PID.TID 0000.0001) // =======================================================
(PID.TID 0000.0001) // End MONITOR dynamic field statistics
(PID.TID 0000.0001) // =======================================================
(PID.TID 0000.0001) // =======================================================
(PID.TID 0000.0001) // Begin MONITOR SEAICE statistics
(PID.TID 0000.0001) // =======================================================
(PID.TID 0000.0001) %MON seaice_tsnumber              =                    32
(PID.TID 0000.0001) %MON seaice_time_sec              =   2.8800000000000E+04
(PID.TID 0000.0001) %MON seaice_uice_max              =   1.0479255507635E+00
(PID.TID 0000.0001) %MON seaice_uice_min              =  -1.8945259712730E+00
(PID.TID 0000.0001) %MON seaice_uice_mean             =  -3.7657217896407E-03
(PID.TID 0000.0001) %MON seaice_uice_sd               =   1.5791433964616E-01
(PID.TID 0000.0001) %MON seaice_uice_del2             =   2.5146404571202E-04
(PID.TID 0000.0001) %MON seaice_vice_max              =   8.1826739474979E-01
(PID.TID 0000.0001) %MON seaice_vice_min              =  -9.4683926468004E-01
(PID.TID 0000.0001) %MON seaice_vice_mean             =  -6.8138747711338E-03
(PID.TID 0000.0001) %MON seaice_vice_sd               =   1.4131972759837E-01
(PID.TID 0000.0001) %MON seaice_vice_del2             =   2.2633370459900E-04
(PID.TID 0000.0001) %MON seaice_area_max              =   1.0000000000000E+00
(PID.TID 0000.0001) %MON seaice_area_min              =   0.0000000000000E+00
(PID.TID 0000.0001) %MON seaice_area_mean             =   7.1868423919672E-02
(PID.TID 0000.0001) %MON seaice_area_sd               =   2.3715162370981E-01
(PID.TID 0000.0001) %MON seaice_area_del2             =   4.1001554809937E-04
(PID.TID 0000.0001) %MON seaice_heff_max              =   2.5456193593593E+01
(PID.TID 0000.0001) %MON seaice_heff_min              =   0.0000000000000E+00
(PID.TID 0000.0001) %MON seaice_heff_mean             =   2.1670590804176E-01
(PID.TID 0000.0001) %MON seaice_heff_sd               =   1.0625957307213E+00
(PID.TID 0000.0001) %MON seaice_heff_del2             =   3.3652113206063E-03
(PID.TID 0000.0001) %MON seaice_hsnow_max             =   8.4076886539005E+00
(PID.TID 0000.0001) %MON seaice_hsnow_min             =   0.0000000000000E+00
(PID.TID 0000.0001) %MON seaice_hsnow_mean            =   2.4610165933400E-02
(PID.TID 0000.0001) %MON seaice_hsnow_sd              =   1.5456097863189E-01
(PID.TID 0000.0001) %MON seaice_hsnow_del2            =   1.0695960953079E-03
(PID.TID 0000.0001) // =======================================================
(PID.TID 0000.0001) // End MONITOR SEAICE statistics
(PID.TID 0000.0001) // =======================================================
 Computing Diagnostic #     86  oceQnet      Counter:       4   Parms: SM      U1      
 Computing Diagnostic #     87  oceQsw       Counter:       4   Parms: SM      U1      
 Computing Diagnostic #     84  oceFWflx     Counter:       4   Parms: SM      U1      
 Computing Diagnostic #     85  oceSflux     Counter:       4   Parms: SM      U1      
 Computing Diagnostic #     80  oceTAUX      Counter:       4   Parms: UU      U1      
           Vector  Mate for  oceTAUX      Diagnostic #     81  oceTAUY  exists 
 Computing Diagnostic #     81  oceTAUY      Counter:       4   Parms: VV      U1      
           Vector  Mate for  oceTAUY      Diagnostic #     80  oceTAUX  exists 
 Computing Diagnostic #     26  THETA        Counter:       4   Parms: SMR     MR      
 Computing Diagnostic #     27  SALT         Counter:       4   Parms: SMR     MR      
 Computing Diagnostic #     30  UVEL         Counter:       4   Parms: UUR     MR      
           Vector  Mate for  UVEL         Diagnostic #     31  VVEL     exists 
 Computing Diagnostic #     31  VVEL         Counter:       4   Parms: VVR     MR      
           Vector  Mate for  VVEL         Diagnostic #     30  UVEL     exists 
 Computing Diagnostic #    214  SIarea       Counter:       4   Parms: SM      M1      
 Computing Diagnostic #    217  SIheff       Counter:       4   Parms: SM      M1      
 Computing Diagnostic #    219  SIhsnow      Counter:       4   Parms: SM      M1      
 Computing Diagnostic #     83  sIceLoad     Counter:       4   Parms: SM      U1      
 Computing Diagnostic #    223  SIuice       Counter:       4   Parms: UU      M1      
           Vector  Mate for  SIuice       Diagnostic #    224  SIvice   exists 
 Computing Diagnostic #    224  SIvice       Counter:       4   Parms: VV      M1      
           Vector  Mate for  SIvice       Diagnostic #    223  SIuice   exists 
 Computing Diagnostic #    225  SItaux       Counter:       4   Parms: UU      U1      
           Vector  Mate for  SItaux       Diagnostic #    226  SItauy   exists 
 Computing Diagnostic #    226  SItauy       Counter:       4   Parms: VV      U1      
           Vector  Mate for  SItauy       Diagnostic #    225  SItaux   exists 
 Computing Diagnostic #    285  SIareaN      Counter:       4   Parms: SM      MX      
 Computing Diagnostic #    284  SIheffN      Counter:       4   Parms: SM      MX      
 Computing Diagnostic #    286  SIhsnowN     Counter:       4   Parms: SM      MX      
 Computing Diagnostic #    290  SIqSnow      Counter:       4   Parms: SM      MX      
 Computing Diagnostic #    291  SImeltPd     Counter:       4   Parms: SM      MX      
 Computing Diagnostic #    288  SItIces      Counter:       4   Parms: SM      MX      
 Computing Diagnostic #    292  SIiceAge     Counter:       4   Parms: SM      MX      
 Computing Diagnostic #    293  SI_dArea     Counter:       4   Parms: SM      MX      
 Computing Diagnostic #    294  SI_dHeff     Counter:       4   Parms: SM      MX      
 Computing Diagnostic #    295  SI_dHsnw     Counter:       4   Parms: SM      MX      
 Computing Diagnostic #    298  SI_dQSnw     Counter:       4   Parms: SM      MX      
 Compute Stats, Diag. #    214  SIarea    vol(   0 ): 1.432E+15  Parms: SM      M1      
 Compute Stats, Diag. #    217  SIheff    vol(   0 ): 1.432E+15  Parms: SM      M1      
 Compute Stats, Diag. #    219  SIhsnow   vol(   0 ): 1.432E+15  Parms: SM      M1      
 Compute Stats, Diag. #     83  sIceLoad  vol(   0 ): 1.432E+15  Parms: SM      U1      
 Compute Stats, Diag. #    223  SIuice    vol(   0 ): 1.405E+15  Parms: UU      M1      
 Compute Stats, Diag. #    224  SIvice    vol(   0 ): 1.403E+15  Parms: VV      M1      
 Compute Stats, Diag. #    225  SItaux    vol(   0 ): 1.405E+15  Parms: UU      U1      
 Compute Stats, Diag. #    226  SItauy    vol(   0 ): 1.403E+15  Parms: VV      U1      
 Compute Stats, Diag. #    285  SIareaN   vol(   0 ): 7.160E+15  Parms: SM      MX      
 Compute Stats, Diag. #    284  SIheffN   vol(   0 ): 7.160E+15  Parms: SM      MX      
 Compute Stats, Diag. #    286  SIhsnowN  vol(   0 ): 7.160E+15  Parms: SM      MX      
 Compute Stats, Diag. #    290  SIqSnow   vol(   0 ): 7.160E+15  Parms: SM      MX      
 Compute Stats, Diag. #    289  SIqIce    vol(   0 ): 2.864E+16  Parms: SM      MX      
 Compute Stats, Diag. #    291  SImeltPd  vol(   0 ): 7.160E+15  Parms: SM      MX      
 Compute Stats, Diag. #    288  SItIces   vol(   0 ): 7.160E+15  Parms: SM      MX      
 Compute Stats, Diag. #    292  SIiceAge  vol(   0 ): 7.160E+15  Parms: SM      MX      
 Compute Stats, Diag. #    293  SI_dArea  vol(   0 ): 7.160E+15  Parms: SM      MX      
 Compute Stats, Diag. #    294  SI_dHeff  vol(   0 ): 7.160E+15  Parms: SM      MX      
 Compute Stats, Diag. #    295  SI_dHsnw  vol(   0 ): 7.160E+15  Parms: SM      MX      
 Compute Stats, Diag. #    298  SI_dQSnw  vol(   0 ): 7.160E+15  Parms: SM      MX      
 Compute Stats, Diag. #    297  SI_dQIce  vol(   0 ): 2.864E+16  Parms: SM      MX      
 SEAICE_LSR: Residual Initial ipass,Uice,Vice=    1  2.11768245E-02  2.53692338E-02
 SEAICE_LSR (ipass=   1) iters,dU,Resid=    36  8.53212260E-05  9.26995567E-03
 SEAICE_LSR (ipass=   1) iters,dV,Resid=    36  9.76754586E-05  1.59228201E-02
 SEAICE_LSR: Residual Initial ipass,Uice,Vice=    2  1.92422723E-02  2.48025672E-02
 SEAICE_LSR (ipass=   2) iters,dU,Resid=    28  8.33107719E-05  9.48094430E-03
 SEAICE_LSR (ipass=   2) iters,dV,Resid=    28  8.97744568E-05  1.59924011E-02
 cg2d: Sum(rhs),rhsMax =   7.40400269806751E+01  7.13195977466610E+00
 Computing Diagnostic #    289  SIqIce       Counter:       1   Parms: SM      MX      
 Computing Diagnostic #    297  SI_dQIce     Counter:       1   Parms: SM      MX      
 Computing Diagnostic #    290  SIqSnow      Counter:       1   Parms: SM      MX      
 Computing Diagnostic #    298  SI_dQSnw     Counter:       1   Parms: SM      MX      
 cg2d: Sum(rhs),rhsMax =   7.44377465079871E+01  7.13223507164396E+00
 cg2d: Sum(rhs),rhsMax =   7.48051245253169E+01  7.13299310640209E+00
 cg2d: Sum(rhs),rhsMax =   7.51392783255462E+01  7.13425075284723E+00
 Computing Diagnostic #     86  oceQnet      Counter:       4   Parms: SM      U1      
 Computing Diagnostic #     87  oceQsw       Counter:       4   Parms: SM      U1      
 Computing Diagnostic #     84  oceFWflx     Counter:       4   Parms: SM      U1      
 Computing Diagnostic #     85  oceSflux     Counter:       4   Parms: SM      U1      
 Computing Diagnostic #     80  oceTAUX      Counter:       4   Parms: UU      U1      
           Vector  Mate for  oceTAUX      Diagnostic #     81  oceTAUY  exists 
 Computing Diagnostic #     81  oceTAUY      Counter:       4   Parms: VV      U1      
           Vector  Mate for  oceTAUY      Diagnostic #     80  oceTAUX  exists 
 Computing Diagnostic #     26  THETA        Counter:       4   Parms: SMR     MR      
 Computing Diagnostic #     27  SALT         Counter:       4   Parms: SMR     MR      
 Computing Diagnostic #     30  UVEL         Counter:       4   Parms: UUR     MR      
           Vector  Mate for  UVEL         Diagnostic #     31  VVEL     exists 
 Computing Diagnostic #     31  VVEL         Counter:       4   Parms: VVR     MR      
           Vector  Mate for  VVEL         Diagnostic #     30  UVEL     exists 
 Computing Diagnostic #    214  SIarea       Counter:       4   Parms: SM      M1      
 Computing Diagnostic #    217  SIheff       Counter:       4   Parms: SM      M1      
 Computing Diagnostic #    219  SIhsnow      Counter:       4   Parms: SM      M1      
 Computing Diagnostic #     83  sIceLoad     Counter:       4   Parms: SM      U1      
 Computing Diagnostic #    223  SIuice       Counter:       4   Parms: UU      M1      
           Vector  Mate for  SIuice       Diagnostic #    224  SIvice   exists 
 Computing Diagnostic #    224  SIvice       Counter:       4   Parms: VV      M1      
           Vector  Mate for  SIvice       Diagnostic #    223  SIuice   exists 
 Computing Diagnostic #    225  SItaux       Counter:       4   Parms: UU      U1      
           Vector  Mate for  SItaux       Diagnostic #    226  SItauy   exists 
 Computing Diagnostic #    226  SItauy       Counter:       4   Parms: VV      U1      
           Vector  Mate for  SItauy       Diagnostic #    225  SItaux   exists 
 Computing Diagnostic #    285  SIareaN      Counter:       4   Parms: SM      MX      
 Computing Diagnostic #    284  SIheffN      Counter:       4   Parms: SM      MX      
 Computing Diagnostic #    286  SIhsnowN     Counter:       4   Parms: SM      MX      
 Computing Diagnostic #    290  SIqSnow      Counter:       4   Parms: SM      MX      
 Computing Diagnostic #    291  SImeltPd     Counter:       4   Parms: SM      MX      
 Computing Diagnostic #    288  SItIces      Counter:       4   Parms: SM      MX      
 Computing Diagnostic #    292  SIiceAge     Counter:       4   Parms: SM      MX      
 Computing Diagnostic #    293  SI_dArea     Counter:       4   Parms: SM      MX      
 Computing Diagnostic #    294  SI_dHeff     Counter:       4   Parms: SM      MX      
 Computing Diagnostic #    295  SI_dHsnw     Counter:       4   Parms: SM      MX      
 Computing Diagnostic #    298  SI_dQSnw     Counter:       4   Parms: SM      MX      
 Compute Stats, Diag. #    214  SIarea    vol(   0 ): 1.432E+15  Parms: SM      M1      
 Compute Stats, Diag. #    217  SIheff    vol(   0 ): 1.432E+15  Parms: SM      M1      
 Compute Stats, Diag. #    219  SIhsnow   vol(   0 ): 1.432E+15  Parms: SM      M1      
 Compute Stats, Diag. #     83  sIceLoad  vol(   0 ): 1.432E+15  Parms: SM      U1      
 Compute Stats, Diag. #    223  SIuice    vol(   0 ): 1.405E+15  Parms: UU      M1      
 Compute Stats, Diag. #    224  SIvice    vol(   0 ): 1.403E+15  Parms: VV      M1      
 Compute Stats, Diag. #    225  SItaux    vol(   0 ): 1.405E+15  Parms: UU      U1      
 Compute Stats, Diag. #    226  SItauy    vol(   0 ): 1.403E+15  Parms: VV      U1      
 Compute Stats, Diag. #    285  SIareaN   vol(   0 ): 7.160E+15  Parms: SM      MX      
 Compute Stats, Diag. #    284  SIheffN   vol(   0 ): 7.160E+15  Parms: SM      MX      
 Compute Stats, Diag. #    286  SIhsnowN  vol(   0 ): 7.160E+15  Parms: SM      MX      
 Compute Stats, Diag. #    290  SIqSnow   vol(   0 ): 7.160E+15  Parms: SM      MX      
 Compute Stats, Diag. #    289  SIqIce    vol(   0 ): 2.864E+16  Parms: SM      MX      
 Compute Stats, Diag. #    291  SImeltPd  vol(   0 ): 7.160E+15  Parms: SM      MX      
 Compute Stats, Diag. #    288  SItIces   vol(   0 ): 7.160E+15  Parms: SM      MX      
 Compute Stats, Diag. #    292  SIiceAge  vol(   0 ): 7.160E+15  Parms: SM      MX      
 Compute Stats, Diag. #    293  SI_dArea  vol(   0 ): 7.160E+15  Parms: SM      MX      
 Compute Stats, Diag. #    294  SI_dHeff  vol(   0 ): 7.160E+15  Parms: SM      MX      
 Compute Stats, Diag. #    295  SI_dHsnw  vol(   0 ): 7.160E+15  Parms: SM      MX      
 Compute Stats, Diag. #    298  SI_dQSnw  vol(   0 ): 7.160E+15  Parms: SM      MX      
 Compute Stats, Diag. #    297  SI_dQIce  vol(   0 ): 2.864E+16  Parms: SM      MX      
 cg2d: Sum(rhs),rhsMax =   7.54463396721370E+01  7.13605399497474E+00
 Computing Diagnostic #    289  SIqIce       Counter:       1   Parms: SM      MX      
 Computing Diagnostic #    297  SI_dQIce     Counter:       1   Parms: SM      MX      
 Computing Diagnostic #    290  SIqSnow      Counter:       1   Parms: SM      MX      
 Computing Diagnostic #    298  SI_dQSnw     Counter:       1   Parms: SM      MX      
 cg2d: Sum(rhs),rhsMax =   7.57266583235454E+01  7.13840124461255E+00
 cg2d: Sum(rhs),rhsMax =   7.59924656357961E+01  7.14113532588850E+00
 cg2d: Sum(rhs),rhsMax =   7.62326004910031E+01  7.14404704788122E+00
(PID.TID 0000.0001)      cg2d_init_res =   2.25386495751093E+00
(PID.TID 0000.0001)      cg2d_iters(min,last) =      -1      37
(PID.TID 0000.0001)      cg2d_last_res =   2.77670729228439E-05
(PID.TID 0000.0001) // =======================================================
(PID.TID 0000.0001) // Begin MONITOR dynamic field statistics
(PID.TID 0000.0001) // =======================================================
(PID.TID 0000.0001) %MON time_tsnumber                =                    40
(PID.TID 0000.0001) %MON time_secondsf                =   3.6000000000000E+04
(PID.TID 0000.0001) %MON dynstat_eta_max              =   9.6174684753686E+00
(PID.TID 0000.0001) %MON dynstat_eta_min              =  -5.0559757245738E+00
(PID.TID 0000.0001) %MON dynstat_eta_mean             =  -2.4114806243018E-03
(PID.TID 0000.0001) %MON dynstat_eta_sd               =   9.1108228866660E-01
(PID.TID 0000.0001) %MON dynstat_eta_del2             =   3.6631043612957E-03
(PID.TID 0000.0001) %MON dynstat_uvel_max             =   1.1094999046167E+00
(PID.TID 0000.0001) %MON dynstat_uvel_min             =  -1.5636554208211E+00
(PID.TID 0000.0001) %MON dynstat_uvel_mean            =   1.4042611368885E-03
(PID.TID 0000.0001) %MON dynstat_uvel_sd              =   2.2215950717401E-02
(PID.TID 0000.0001) %MON dynstat_uvel_del2            =   1.3576325393226E-05
(PID.TID 0000.0001) %MON dynstat_vvel_max             =   8.1398511953142E-01
(PID.TID 0000.0001) %MON dynstat_vvel_min             =  -9.3198269531107E-01
(PID.TID 0000.0001) %MON dynstat_vvel_mean            =   3.0382790916155E-04
(PID.TID 0000.0001) %MON dynstat_vvel_sd              =   2.3817857443499E-02
(PID.TID 0000.0001) %MON dynstat_vvel_del2            =   1.4201823057789E-05
(PID.TID 0000.0001) %MON dynstat_wvel_max             =   3.2762037089979E-03
(PID.TID 0000.0001) %MON dynstat_wvel_min             =  -2.5935969816074E-03
(PID.TID 0000.0001) %MON dynstat_wvel_mean            =   8.5787108200908E-08
(PID.TID 0000.0001) %MON dynstat_wvel_sd              =   3.5106495055620E-05
(PID.TID 0000.0001) %MON dynstat_wvel_del2            =   5.1320907859177E-08
(PID.TID 0000.0001) %MON dynstat_theta_max            =   3.2603688545493E+01
(PID.TID 0000.0001) %MON dynstat_theta_min            =  -2.0403707484713E+00
(PID.TID 0000.0001) %MON dynstat_theta_mean           =   3.5905812390335E+00
(PID.TID 0000.0001) %MON dynstat_theta_sd             =   4.4365208137414E+00
(PID.TID 0000.0001) %MON dynstat_theta_del2           =   1.0721899512077E-04
(PID.TID 0000.0001) %MON dynstat_salt_max             =   4.0711520812453E+01
(PID.TID 0000.0001) %MON dynstat_salt_min             =   1.8898439327415E+01
(PID.TID 0000.0001) %MON dynstat_salt_mean            =   3.4725655905516E+01
(PID.TID 0000.0001) %MON dynstat_salt_sd              =   3.7727042754608E-01
(PID.TID 0000.0001) %MON dynstat_salt_del2            =   2.6779819397604E-05
(PID.TID 0000.0001) %MON dynstat_sst_max              =   3.2603688545493E+01
(PID.TID 0000.0001) %MON dynstat_sst_min              =  -1.9252586765841E+00
(PID.TID 0000.0001) %MON dynstat_sst_mean             =   1.8490492336809E+01
(PID.TID 0000.0001) %MON dynstat_sst_sd               =   1.0103980264724E+01
(PID.TID 0000.0001) %MON dynstat_sst_del2             =   8.4908957542239E-04
(PID.TID 0000.0001) %MON dynstat_sss_max              =   3.9516025509348E+01
(PID.TID 0000.0001) %MON dynstat_sss_min              =   1.8898439327415E+01
(PID.TID 0000.0001) %MON dynstat_sss_mean             =   3.4684514752173E+01
(PID.TID 0000.0001) %MON dynstat_sss_sd               =   1.1238926374577E+00
(PID.TID 0000.0001) %MON dynstat_sss_del2             =   4.6980756583368E-04
(PID.TID 0000.0001) %MON forcing_qnet_max             =   2.4807331542969E+03
(PID.TID 0000.0001) %MON forcing_qnet_min             =  -7.8434241091156E+02
(PID.TID 0000.0001) %MON forcing_qnet_mean            =   5.0919073571216E+01
(PID.TID 0000.0001) %MON forcing_qnet_sd              =   1.8365500525802E+02
(PID.TID 0000.0001) %MON forcing_qnet_del2            =   4.7198083044260E-01
(PID.TID 0000.0001) %MON forcing_qsw_max              =   0.0000000000000E+00
(PID.TID 0000.0001) %MON forcing_qsw_min              =  -1.0904916229026E+02
(PID.TID 0000.0001) %MON forcing_qsw_mean             =  -1.4206433989808E+01
(PID.TID 0000.0001) %MON forcing_qsw_sd               =   2.5762217568354E+01
(PID.TID 0000.0001) %MON forcing_qsw_del2             =   1.9101066958614E-02
(PID.TID 0000.0001) %MON forcing_empmr_max            =   3.0284307431430E-03
(PID.TID 0000.0001) %MON forcing_empmr_min            =  -1.2419001758099E-01
(PID.TID 0000.0001) %MON forcing_empmr_mean           =   8.6850257220679E-06
(PID.TID 0000.0001) %MON forcing_empmr_sd             =   5.0005664484152E-04
(PID.TID 0000.0001) %MON forcing_empmr_del2           =   7.0927362208666E-06
(PID.TID 0000.0001) %MON forcing_fu_max               =   1.0696432860992E+00
(PID.TID 0000.0001) %MON forcing_fu_min               =  -9.2114470958983E-01
(PID.TID 0000.0001) %MON forcing_fu_mean              =   1.2717933429636E-02
(PID.TID 0000.0001) %MON forcing_fu_sd                =   1.1058200403947E-01
(PID.TID 0000.0001) %MON forcing_fu_del2              =   1.5523518781735E-04
(PID.TID 0000.0001) %MON forcing_fv_max               =   7.8934575308562E-01
(PID.TID 0000.0001) %MON forcing_fv_min               =  -6.6635709448021E-01
(PID.TID 0000.0001) %MON forcing_fv_mean              =  -7.4717979912167E-03
(PID.TID 0000.0001) %MON forcing_fv_sd                =   1.0584434809132E-01
(PID.TID 0000.0001) %MON forcing_fv_del2              =   1.3050319091023E-04
(PID.TID 0000.0001) %MON trAdv_CFL_u_max              =   1.3924739270240E-02
(PID.TID 0000.0001) %MON trAdv_CFL_v_max              =   1.5758451697011E-02
(PID.TID 0000.0001) %MON trAdv_CFL_w_max              =   1.0357077854837E-01
(PID.TID 0000.0001) %MON advcfl_uvel_max              =   1.2662110044190E-02
(PID.TID 0000.0001) %MON advcfl_vvel_max              =   1.3065247173401E-02
(PID.TID 0000.0001) %MON advcfl_wvel_max              =   1.0771513970699E-01
(PID.TID 0000.0001) %MON advcfl_W_hf_max              =   1.1276765074922E-01
(PID.TID 0000.0001) %MON pe_b_mean                    =   3.6428832311381E-05
(PID.TID 0000.0001) %MON ke_max                       =   7.4073932568613E-01
(PID.TID 0000.0001) %MON ke_mean                      =   5.1252264766639E-04
(PID.TID 0000.0001) %MON ke_vol                       =   1.3349970163154E+18
(PID.TID 0000.0001) %MON vort_r_min                   =  -3.5072923082784E-05
(PID.TID 0000.0001) %MON vort_r_max                   =   3.5923288905214E-05
(PID.TID 0000.0001) %MON vort_a_mean                  =  -1.9727864647440E-05
(PID.TID 0000.0001) %MON vort_a_sd                    =   7.4542945204709E-05
(PID.TID 0000.0001) %MON vort_p_mean                  =  -2.1760715044108E-05
(PID.TID 0000.0001) %MON vort_p_sd                    =   9.7249545976565E-05
(PID.TID 0000.0001) %MON surfExpan_theta_mean         =   3.8500743746995E-06
(PID.TID 0000.0001) %MON surfExpan_salt_mean          =  -3.8912619445495E-08
(PID.TID 0000.0001) // =======================================================
(PID.TID 0000.0001) // End MONITOR dynamic field statistics
(PID.TID 0000.0001) // =======================================================
(PID.TID 0000.0001) // =======================================================
(PID.TID 0000.0001) // Begin MONITOR SEAICE statistics
(PID.TID 0000.0001) // =======================================================
(PID.TID 0000.0001) %MON seaice_tsnumber              =                    40
(PID.TID 0000.0001) %MON seaice_time_sec              =   3.6000000000000E+04
(PID.TID 0000.0001) %MON seaice_uice_max              =   1.1296799360572E+00
(PID.TID 0000.0001) %MON seaice_uice_min              =  -1.6136789779468E+00
(PID.TID 0000.0001) %MON seaice_uice_mean             =  -4.4715680996082E-03
(PID.TID 0000.0001) %MON seaice_uice_sd               =   1.5215897911063E-01
(PID.TID 0000.0001) %MON seaice_uice_del2             =   2.2774481040910E-04
(PID.TID 0000.0001) %MON seaice_vice_max              =   7.6180670297964E-01
(PID.TID 0000.0001) %MON seaice_vice_min              =  -9.1564980055096E-01
(PID.TID 0000.0001) %MON seaice_vice_mean             =  -1.1821992750798E-02
(PID.TID 0000.0001) %MON seaice_vice_sd               =   1.3843379064914E-01
(PID.TID 0000.0001) %MON seaice_vice_del2             =   2.0351031615126E-04
(PID.TID 0000.0001) %MON seaice_area_max              =   1.0000000000000E+00
(PID.TID 0000.0001) %MON seaice_area_min              =   0.0000000000000E+00
(PID.TID 0000.0001) %MON seaice_area_mean             =   7.1631891795717E-02
(PID.TID 0000.0001) %MON seaice_area_sd               =   2.3701659267612E-01
(PID.TID 0000.0001) %MON seaice_area_del2             =   3.9868801992921E-04
(PID.TID 0000.0001) %MON seaice_heff_max              =   2.5449754722765E+01
(PID.TID 0000.0001) %MON seaice_heff_min              =   0.0000000000000E+00
(PID.TID 0000.0001) %MON seaice_heff_mean             =   2.1680730023124E-01
(PID.TID 0000.0001) %MON seaice_heff_sd               =   1.0627917261927E+00
(PID.TID 0000.0001) %MON seaice_heff_del2             =   3.2826856167967E-03
(PID.TID 0000.0001) %MON seaice_hsnow_max             =   8.4055769478077E+00
(PID.TID 0000.0001) %MON seaice_hsnow_min             =   0.0000000000000E+00
(PID.TID 0000.0001) %MON seaice_hsnow_mean            =   2.4602040970464E-02
(PID.TID 0000.0001) %MON seaice_hsnow_sd              =   1.5399580239706E-01
(PID.TID 0000.0001) %MON seaice_hsnow_del2            =   1.0417563227412E-03
(PID.TID 0000.0001) // =======================================================
(PID.TID 0000.0001) // End MONITOR SEAICE statistics
(PID.TID 0000.0001) // =======================================================
 Computing Diagnostic #     86  oceQnet      Counter:       4   Parms: SM      U1      
 Computing Diagnostic #     87  oceQsw       Counter:       4   Parms: SM      U1      
 Computing Diagnostic #     84  oceFWflx     Counter:       4   Parms: SM      U1      
 Computing Diagnostic #     85  oceSflux     Counter:       4   Parms: SM      U1      
 Computing Diagnostic #     80  oceTAUX      Counter:       4   Parms: UU      U1      
           Vector  Mate for  oceTAUX      Diagnostic #     81  oceTAUY  exists 
 Computing Diagnostic #     81  oceTAUY      Counter:       4   Parms: VV      U1      
           Vector  Mate for  oceTAUY      Diagnostic #     80  oceTAUX  exists 
 Computing Diagnostic #     26  THETA        Counter:       4   Parms: SMR     MR      
 Computing Diagnostic #     27  SALT         Counter:       4   Parms: SMR     MR      
 Computing Diagnostic #     30  UVEL         Counter:       4   Parms: UUR     MR      
           Vector  Mate for  UVEL         Diagnostic #     31  VVEL     exists 
 Computing Diagnostic #     31  VVEL         Counter:       4   Parms: VVR     MR      
           Vector  Mate for  VVEL         Diagnostic #     30  UVEL     exists 
 Computing Diagnostic #    214  SIarea       Counter:       4   Parms: SM      M1      
 Computing Diagnostic #    217  SIheff       Counter:       4   Parms: SM      M1      
 Computing Diagnostic #    219  SIhsnow      Counter:       4   Parms: SM      M1      
 Computing Diagnostic #     83  sIceLoad     Counter:       4   Parms: SM      U1      
 Computing Diagnostic #    223  SIuice       Counter:       4   Parms: UU      M1      
           Vector  Mate for  SIuice       Diagnostic #    224  SIvice   exists 
 Computing Diagnostic #    224  SIvice       Counter:       4   Parms: VV      M1      
           Vector  Mate for  SIvice       Diagnostic #    223  SIuice   exists 
 Computing Diagnostic #    225  SItaux       Counter:       4   Parms: UU      U1      
           Vector  Mate for  SItaux       Diagnostic #    226  SItauy   exists 
 Computing Diagnostic #    226  SItauy       Counter:       4   Parms: VV      U1      
           Vector  Mate for  SItauy       Diagnostic #    225  SItaux   exists 
 Computing Diagnostic #    285  SIareaN      Counter:       4   Parms: SM      MX      
 Computing Diagnostic #    284  SIheffN      Counter:       4   Parms: SM      MX      
 Computing Diagnostic #    286  SIhsnowN     Counter:       4   Parms: SM      MX      
 Computing Diagnostic #    290  SIqSnow      Counter:       4   Parms: SM      MX      
 Computing Diagnostic #    291  SImeltPd     Counter:       4   Parms: SM      MX      
 Computing Diagnostic #    288  SItIces      Counter:       4   Parms: SM      MX      
 Computing Diagnostic #    292  SIiceAge     Counter:       4   Parms: SM      MX      
 Computing Diagnostic #    293  SI_dArea     Counter:       4   Parms: SM      MX      
 Computing Diagnostic #    294  SI_dHeff     Counter:       4   Parms: SM      MX      
 Computing Diagnostic #    295  SI_dHsnw     Counter:       4   Parms: SM      MX      
 Computing Diagnostic #    298  SI_dQSnw     Counter:       4   Parms: SM      MX      
 Compute Stats, Diag. #    214  SIarea    vol(   0 ): 1.432E+15  Parms: SM      M1      
 Compute Stats, Diag. #    217  SIheff    vol(   0 ): 1.432E+15  Parms: SM      M1      
 Compute Stats, Diag. #    219  SIhsnow   vol(   0 ): 1.432E+15  Parms: SM      M1      
 Compute Stats, Diag. #     83  sIceLoad  vol(   0 ): 1.432E+15  Parms: SM      U1      
 Compute Stats, Diag. #    223  SIuice    vol(   0 ): 1.405E+15  Parms: UU      M1      
 Compute Stats, Diag. #    224  SIvice    vol(   0 ): 1.403E+15  Parms: VV      M1      
 Compute Stats, Diag. #    225  SItaux    vol(   0 ): 1.405E+15  Parms: UU      U1      
 Compute Stats, Diag. #    226  SItauy    vol(   0 ): 1.403E+15  Parms: VV      U1      
 Compute Stats, Diag. #    285  SIareaN   vol(   0 ): 7.160E+15  Parms: SM      MX      
 Compute Stats, Diag. #    284  SIheffN   vol(   0 ): 7.160E+15  Parms: SM      MX      
 Compute Stats, Diag. #    286  SIhsnowN  vol(   0 ): 7.160E+15  Parms: SM      MX      
 Compute Stats, Diag. #    290  SIqSnow   vol(   0 ): 7.160E+15  Parms: SM      MX      
 Compute Stats, Diag. #    289  SIqIce    vol(   0 ): 2.864E+16  Parms: SM      MX      
 Compute Stats, Diag. #    291  SImeltPd  vol(   0 ): 7.160E+15  Parms: SM      MX      
 Compute Stats, Diag. #    288  SItIces   vol(   0 ): 7.160E+15  Parms: SM      MX      
 Compute Stats, Diag. #    292  SIiceAge  vol(   0 ): 7.160E+15  Parms: SM      MX      
 Compute Stats, Diag. #    293  SI_dArea  vol(   0 ): 7.160E+15  Parms: SM      MX      
 Compute Stats, Diag. #    294  SI_dHeff  vol(   0 ): 7.160E+15  Parms: SM      MX      
 Compute Stats, Diag. #    295  SI_dHsnw  vol(   0 ): 7.160E+15  Parms: SM      MX      
 Compute Stats, Diag. #    298  SI_dQSnw  vol(   0 ): 7.160E+15  Parms: SM      MX      
 Compute Stats, Diag. #    297  SI_dQIce  vol(   0 ): 2.864E+16  Parms: SM      MX      
 SEAICE_LSR: Residual Initial ipass,Uice,Vice=    1  1.85250267E-02  2.07818162E-02
 SEAICE_LSR (ipass=   1) iters,dU,Resid=    54  9.24828498E-05  6.57136731E-03
 SEAICE_LSR (ipass=   1) iters,dV,Resid=    54  6.54104891E-05  8.88721625E-03
 SEAICE_LSR: Residual Initial ipass,Uice,Vice=    2  1.72834648E-02  2.01868025E-02
 SEAICE_LSR (ipass=   2) iters,dU,Resid=    40  9.57843811E-05  6.98195468E-03
 SEAICE_LSR (ipass=   2) iters,dV,Resid=    40  5.80920684E-05  9.22761968E-03
 cg2d: Sum(rhs),rhsMax =   7.64488412065519E+01  7.14699519285774E+00
 Computing Diagnostic #    289  SIqIce       Counter:       1   Parms: SM      MX      
 Computing Diagnostic #    297  SI_dQIce     Counter:       1   Parms: SM      MX      
 Computing Diagnostic #    290  SIqSnow      Counter:       1   Parms: SM      MX      
 Computing Diagnostic #    298  SI_dQSnw     Counter:       1   Parms: SM      MX      
 cg2d: Sum(rhs),rhsMax =   7.66455944812948E+01  7.14977128097274E+00
 cg2d: Sum(rhs),rhsMax =   7.68219107339192E+01  7.15225353769474E+00
 cg2d: Sum(rhs),rhsMax =   7.69785231887534E+01  7.15437280616738E+00
 Computing Diagnostic #     86  oceQnet      Counter:       4   Parms: SM      U1      
 Computing Diagnostic #     87  oceQsw       Counter:       4   Parms: SM      U1      
 Computing Diagnostic #     84  oceFWflx     Counter:       4   Parms: SM      U1      
 Computing Diagnostic #     85  oceSflux     Counter:       4   Parms: SM      U1      
 Computing Diagnostic #     80  oceTAUX      Counter:       4   Parms: UU      U1      
           Vector  Mate for  oceTAUX      Diagnostic #     81  oceTAUY  exists 
 Computing Diagnostic #     81  oceTAUY      Counter:       4   Parms: VV      U1      
           Vector  Mate for  oceTAUY      Diagnostic #     80  oceTAUX  exists 
 Computing Diagnostic #     26  THETA        Counter:       4   Parms: SMR     MR      
 Computing Diagnostic #     27  SALT         Counter:       4   Parms: SMR     MR      
 Computing Diagnostic #     30  UVEL         Counter:       4   Parms: UUR     MR      
           Vector  Mate for  UVEL         Diagnostic #     31  VVEL     exists 
 Computing Diagnostic #     31  VVEL         Counter:       4   Parms: VVR     MR      
           Vector  Mate for  VVEL         Diagnostic #     30  UVEL     exists 
 Computing Diagnostic #    214  SIarea       Counter:       4   Parms: SM      M1      
 Computing Diagnostic #    217  SIheff       Counter:       4   Parms: SM      M1      
 Computing Diagnostic #    219  SIhsnow      Counter:       4   Parms: SM      M1      
 Computing Diagnostic #     83  sIceLoad     Counter:       4   Parms: SM      U1      
 Computing Diagnostic #    223  SIuice       Counter:       4   Parms: UU      M1      
           Vector  Mate for  SIuice       Diagnostic #    224  SIvice   exists 
 Computing Diagnostic #    224  SIvice       Counter:       4   Parms: VV      M1      
           Vector  Mate for  SIvice       Diagnostic #    223  SIuice   exists 
 Computing Diagnostic #    225  SItaux       Counter:       4   Parms: UU      U1      
           Vector  Mate for  SItaux       Diagnostic #    226  SItauy   exists 
 Computing Diagnostic #    226  SItauy       Counter:       4   Parms: VV      U1      
           Vector  Mate for  SItauy       Diagnostic #    225  SItaux   exists 
 Computing Diagnostic #    285  SIareaN      Counter:       4   Parms: SM      MX      
 Computing Diagnostic #    284  SIheffN      Counter:       4   Parms: SM      MX      
 Computing Diagnostic #    286  SIhsnowN     Counter:       4   Parms: SM      MX      
 Computing Diagnostic #    290  SIqSnow      Counter:       4   Parms: SM      MX      
 Computing Diagnostic #    291  SImeltPd     Counter:       4   Parms: SM      MX      
 Computing Diagnostic #    288  SItIces      Counter:       4   Parms: SM      MX      
 Computing Diagnostic #    292  SIiceAge     Counter:       4   Parms: SM      MX      
 Computing Diagnostic #    293  SI_dArea     Counter:       4   Parms: SM      MX      
 Computing Diagnostic #    294  SI_dHeff     Counter:       4   Parms: SM      MX      
 Computing Diagnostic #    295  SI_dHsnw     Counter:       4   Parms: SM      MX      
 Computing Diagnostic #    298  SI_dQSnw     Counter:       4   Parms: SM      MX      
 Compute Stats, Diag. #    214  SIarea    vol(   0 ): 1.432E+15  Parms: SM      M1      
 Compute Stats, Diag. #    217  SIheff    vol(   0 ): 1.432E+15  Parms: SM      M1      
 Compute Stats, Diag. #    219  SIhsnow   vol(   0 ): 1.432E+15  Parms: SM      M1      
 Compute Stats, Diag. #     83  sIceLoad  vol(   0 ): 1.432E+15  Parms: SM      U1      
 Compute Stats, Diag. #    223  SIuice    vol(   0 ): 1.405E+15  Parms: UU      M1      
 Compute Stats, Diag. #    224  SIvice    vol(   0 ): 1.403E+15  Parms: VV      M1      
 Compute Stats, Diag. #    225  SItaux    vol(   0 ): 1.405E+15  Parms: UU      U1      
 Compute Stats, Diag. #    226  SItauy    vol(   0 ): 1.403E+15  Parms: VV      U1      
 Compute Stats, Diag. #    285  SIareaN   vol(   0 ): 7.160E+15  Parms: SM      MX      
 Compute Stats, Diag. #    284  SIheffN   vol(   0 ): 7.160E+15  Parms: SM      MX      
 Compute Stats, Diag. #    286  SIhsnowN  vol(   0 ): 7.160E+15  Parms: SM      MX      
 Compute Stats, Diag. #    290  SIqSnow   vol(   0 ): 7.160E+15  Parms: SM      MX      
 Compute Stats, Diag. #    289  SIqIce    vol(   0 ): 2.864E+16  Parms: SM      MX      
 Compute Stats, Diag. #    291  SImeltPd  vol(   0 ): 7.160E+15  Parms: SM      MX      
 Compute Stats, Diag. #    288  SItIces   vol(   0 ): 7.160E+15  Parms: SM      MX      
 Compute Stats, Diag. #    292  SIiceAge  vol(   0 ): 7.160E+15  Parms: SM      MX      
 Compute Stats, Diag. #    293  SI_dArea  vol(   0 ): 7.160E+15  Parms: SM      MX      
 Compute Stats, Diag. #    294  SI_dHeff  vol(   0 ): 7.160E+15  Parms: SM      MX      
 Compute Stats, Diag. #    295  SI_dHsnw  vol(   0 ): 7.160E+15  Parms: SM      MX      
 Compute Stats, Diag. #    298  SI_dQSnw  vol(   0 ): 7.160E+15  Parms: SM      MX      
 Compute Stats, Diag. #    297  SI_dQIce  vol(   0 ): 2.864E+16  Parms: SM      MX      
 cg2d: Sum(rhs),rhsMax =   7.71200894036217E+01  7.15619476729928E+00
 Computing Diagnostic #    289  SIqIce       Counter:       1   Parms: SM      MX      
 Computing Diagnostic #    297  SI_dQIce     Counter:       1   Parms: SM      MX      
 Computing Diagnostic #    290  SIqSnow      Counter:       1   Parms: SM      MX      
 Computing Diagnostic #    298  SI_dQSnw     Counter:       1   Parms: SM      MX      
 cg2d: Sum(rhs),rhsMax =   7.72411135604091E+01  7.15783075365788E+00
 cg2d: Sum(rhs),rhsMax =   7.73466940273495E+01  7.15933979763247E+00
 cg2d: Sum(rhs),rhsMax =   7.74421007331547E+01  7.16068802592878E+00
(PID.TID 0000.0001)      cg2d_init_res =   1.84632595941623E+00
(PID.TID 0000.0001)      cg2d_iters(min,last) =      -1      36
(PID.TID 0000.0001)      cg2d_last_res =   2.10353413405270E-05
(PID.TID 0000.0001) // =======================================================
(PID.TID 0000.0001) // Begin MONITOR dynamic field statistics
(PID.TID 0000.0001) // =======================================================
(PID.TID 0000.0001) %MON time_tsnumber                =                    48
(PID.TID 0000.0001) %MON time_secondsf                =   4.3200000000000E+04
(PID.TID 0000.0001) %MON dynstat_eta_max              =   9.6964040896610E+00
(PID.TID 0000.0001) %MON dynstat_eta_min              =  -5.0106052303243E+00
(PID.TID 0000.0001) %MON dynstat_eta_mean             =  -2.4497409798485E-03
(PID.TID 0000.0001) %MON dynstat_eta_sd               =   9.1562093641270E-01
(PID.TID 0000.0001) %MON dynstat_eta_del2             =   3.6676314026567E-03
(PID.TID 0000.0001) %MON dynstat_uvel_max             =   9.2739501704866E-01
(PID.TID 0000.0001) %MON dynstat_uvel_min             =  -1.1801684993133E+00
(PID.TID 0000.0001) %MON dynstat_uvel_mean            =   1.5772997217342E-03
(PID.TID 0000.0001) %MON dynstat_uvel_sd              =   2.1963811530734E-02
(PID.TID 0000.0001) %MON dynstat_uvel_del2            =   1.3099846838884E-05
(PID.TID 0000.0001) %MON dynstat_vvel_max             =   7.4232927372962E-01
(PID.TID 0000.0001) %MON dynstat_vvel_min             =  -9.3308716116936E-01
(PID.TID 0000.0001) %MON dynstat_vvel_mean            =   9.8336395225588E-05
(PID.TID 0000.0001) %MON dynstat_vvel_sd              =   2.3560188722032E-02
(PID.TID 0000.0001) %MON dynstat_vvel_del2            =   1.3624633880120E-05
(PID.TID 0000.0001) %MON dynstat_wvel_max             =   3.6966612743579E-03
(PID.TID 0000.0001) %MON dynstat_wvel_min             =  -2.0760389419358E-03
(PID.TID 0000.0001) %MON dynstat_wvel_mean            =   2.3510398370880E-07
(PID.TID 0000.0001) %MON dynstat_wvel_sd              =   3.3628986379162E-05
(PID.TID 0000.0001) %MON dynstat_wvel_del2            =   4.9669940075682E-08
(PID.TID 0000.0001) %MON dynstat_theta_max            =   3.2593627020280E+01
(PID.TID 0000.0001) %MON dynstat_theta_min            =  -2.0403209160908E+00
(PID.TID 0000.0001) %MON dynstat_theta_mean           =   3.5905554478109E+00
(PID.TID 0000.0001) %MON dynstat_theta_sd             =   4.4364148495046E+00
(PID.TID 0000.0001) %MON dynstat_theta_del2           =   1.0664399623313E-04
(PID.TID 0000.0001) %MON dynstat_salt_max             =   4.0711478642558E+01
(PID.TID 0000.0001) %MON dynstat_salt_min             =   1.8904702600112E+01
(PID.TID 0000.0001) %MON dynstat_salt_mean            =   3.4725643917065E+01
(PID.TID 0000.0001) %MON dynstat_salt_sd              =   3.7721690942889E-01
(PID.TID 0000.0001) %MON dynstat_salt_del2            =   2.7333761181823E-05
(PID.TID 0000.0001) %MON dynstat_sst_max              =   3.2593627020280E+01
(PID.TID 0000.0001) %MON dynstat_sst_min              =  -1.9122396094416E+00
(PID.TID 0000.0001) %MON dynstat_sst_mean             =   1.8483765029409E+01
(PID.TID 0000.0001) %MON dynstat_sst_sd               =   1.0104384122674E+01
(PID.TID 0000.0001) %MON dynstat_sst_del2             =   8.4504966018641E-04
(PID.TID 0000.0001) %MON dynstat_sss_max              =   3.9492377928560E+01
(PID.TID 0000.0001) %MON dynstat_sss_min              =   1.8904702600112E+01
(PID.TID 0000.0001) %MON dynstat_sss_mean             =   3.4683959292680E+01
(PID.TID 0000.0001) %MON dynstat_sss_sd               =   1.1229903620680E+00
(PID.TID 0000.0001) %MON dynstat_sss_del2             =   5.3154673856854E-04
(PID.TID 0000.0001) %MON forcing_qnet_max             =   1.5718436279297E+03
(PID.TID 0000.0001) %MON forcing_qnet_min             =  -1.0987401120423E+03
(PID.TID 0000.0001) %MON forcing_qnet_mean            =   5.5797264699337E+01
(PID.TID 0000.0001) %MON forcing_qnet_sd              =   1.7549712046668E+02
(PID.TID 0000.0001) %MON forcing_qnet_del2            =   4.4765129707690E-01
(PID.TID 0000.0001) %MON forcing_qsw_max              =   0.0000000000000E+00
(PID.TID 0000.0001) %MON forcing_qsw_min              =  -1.1133862932350E+02
(PID.TID 0000.0001) %MON forcing_qsw_mean             =  -1.3428384438117E+01
(PID.TID 0000.0001) %MON forcing_qsw_sd               =   2.4650404562371E+01
(PID.TID 0000.0001) %MON forcing_qsw_del2             =   1.9159394207657E-02
(PID.TID 0000.0001) %MON forcing_empmr_max            =   3.5257062409073E-03
(PID.TID 0000.0001) %MON forcing_empmr_min            =  -1.3672405481339E-01
(PID.TID 0000.0001) %MON forcing_empmr_mean           =   3.4506015098818E-06
(PID.TID 0000.0001) %MON forcing_empmr_sd             =   5.2084671260731E-04
(PID.TID 0000.0001) %MON forcing_empmr_del2           =   7.9866494621299E-06
(PID.TID 0000.0001) %MON forcing_fu_max               =   1.0823613743161E+00
(PID.TID 0000.0001) %MON forcing_fu_min               =  -8.4290451782895E-01
(PID.TID 0000.0001) %MON forcing_fu_mean              =   1.2306045619548E-02
(PID.TID 0000.0001) %MON forcing_fu_sd                =   1.0917129125739E-01
(PID.TID 0000.0001) %MON forcing_fu_del2              =   1.5158681778529E-04
(PID.TID 0000.0001) %MON forcing_fv_max               =   1.0681070284864E+00
(PID.TID 0000.0001) %MON forcing_fv_min               =  -6.7464102675788E-01
(PID.TID 0000.0001) %MON forcing_fv_mean              =  -8.1274481646672E-03
(PID.TID 0000.0001) %MON forcing_fv_sd                =   1.0493454742491E-01
(PID.TID 0000.0001) %MON forcing_fv_del2              =   1.2803563986472E-04
(PID.TID 0000.0001) %MON trAdv_CFL_u_max              =   1.3806838962069E-02
(PID.TID 0000.0001) %MON trAdv_CFL_v_max              =   1.9768540124577E-02
(PID.TID 0000.0001) %MON trAdv_CFL_w_max              =   1.0172291796387E-01
(PID.TID 0000.0001) %MON advcfl_uvel_max              =   1.3238357311998E-02
(PID.TID 0000.0001) %MON advcfl_vvel_max              =   1.7148390823142E-02
(PID.TID 0000.0001) %MON advcfl_wvel_max              =   1.0716506790329E-01
(PID.TID 0000.0001) %MON advcfl_W_hf_max              =   1.1237222347691E-01
(PID.TID 0000.0001) %MON pe_b_mean                    =   2.6749785688031E-05
(PID.TID 0000.0001) %MON ke_max                       =   4.8129294874862E-01
(PID.TID 0000.0001) %MON ke_mean                      =   5.0147371985010E-04
(PID.TID 0000.0001) %MON ke_vol                       =   1.3349970009786E+18
(PID.TID 0000.0001) %MON vort_r_min                   =  -2.6645805753067E-05
(PID.TID 0000.0001) %MON vort_r_max                   =   2.8025812751396E-05
(PID.TID 0000.0001) %MON vort_a_mean                  =  -1.9727864647440E-05
(PID.TID 0000.0001) %MON vort_a_sd                    =   7.4542919952861E-05
(PID.TID 0000.0001) %MON vort_p_mean                  =  -2.1760718480817E-05
(PID.TID 0000.0001) %MON vort_p_sd                    =   9.7249464862081E-05
(PID.TID 0000.0001) %MON surfExpan_theta_mean         =   3.1473384552631E-06
(PID.TID 0000.0001) %MON surfExpan_salt_mean          =   5.6387673495850E-08
(PID.TID 0000.0001) // =======================================================
(PID.TID 0000.0001) // End MONITOR dynamic field statistics
(PID.TID 0000.0001) // =======================================================
(PID.TID 0000.0001) // =======================================================
(PID.TID 0000.0001) // Begin MONITOR SEAICE statistics
(PID.TID 0000.0001) // =======================================================
(PID.TID 0000.0001) %MON seaice_tsnumber              =                    48
(PID.TID 0000.0001) %MON seaice_time_sec              =   4.3200000000000E+04
(PID.TID 0000.0001) %MON seaice_uice_max              =   9.4893008912870E-01
(PID.TID 0000.0001) %MON seaice_uice_min              =  -1.2232149979956E+00
(PID.TID 0000.0001) %MON seaice_uice_mean             =  -3.8133435896552E-03
(PID.TID 0000.0001) %MON seaice_uice_sd               =   1.4756520964234E-01
(PID.TID 0000.0001) %MON seaice_uice_del2             =   2.1937804843877E-04
(PID.TID 0000.0001) %MON seaice_vice_max              =   6.9054138761313E-01
(PID.TID 0000.0001) %MON seaice_vice_min              =  -9.1705232909502E-01
(PID.TID 0000.0001) %MON seaice_vice_mean             =  -1.5604832947277E-02
(PID.TID 0000.0001) %MON seaice_vice_sd               =   1.3727184913900E-01
(PID.TID 0000.0001) %MON seaice_vice_del2             =   1.9675077747354E-04
(PID.TID 0000.0001) %MON seaice_area_max              =   1.0000000000000E+00
(PID.TID 0000.0001) %MON seaice_area_min              =   0.0000000000000E+00
(PID.TID 0000.0001) %MON seaice_area_mean             =   7.1428365388686E-02
(PID.TID 0000.0001) %MON seaice_area_sd               =   2.3688741626628E-01
(PID.TID 0000.0001) %MON seaice_area_del2             =   3.8884169145129E-04
(PID.TID 0000.0001) %MON seaice_heff_max              =   2.5444244889636E+01
(PID.TID 0000.0001) %MON seaice_heff_min              =   0.0000000000000E+00
(PID.TID 0000.0001) %MON seaice_heff_mean             =   2.1686630912067E-01
(PID.TID 0000.0001) %MON seaice_heff_sd               =   1.0628888871532E+00
(PID.TID 0000.0001) %MON seaice_heff_del2             =   3.2160768107887E-03
(PID.TID 0000.0001) %MON seaice_hsnow_max             =   8.4037791453453E+00
(PID.TID 0000.0001) %MON seaice_hsnow_min             =   0.0000000000000E+00
(PID.TID 0000.0001) %MON seaice_hsnow_mean            =   2.4596132338628E-02
(PID.TID 0000.0001) %MON seaice_hsnow_sd              =   1.5354221598274E-01
(PID.TID 0000.0001) %MON seaice_hsnow_del2            =   1.0193160752122E-03
(PID.TID 0000.0001) // =======================================================
(PID.TID 0000.0001) // End MONITOR SEAICE statistics
(PID.TID 0000.0001) // =======================================================
 Computing Diagnostic #     86  oceQnet      Counter:       4   Parms: SM      U1      
 Computing Diagnostic #     87  oceQsw       Counter:       4   Parms: SM      U1      
 Computing Diagnostic #     84  oceFWflx     Counter:       4   Parms: SM      U1      
 Computing Diagnostic #     85  oceSflux     Counter:       4   Parms: SM      U1      
 Computing Diagnostic #     80  oceTAUX      Counter:       4   Parms: UU      U1      
           Vector  Mate for  oceTAUX      Diagnostic #     81  oceTAUY  exists 
 Computing Diagnostic #     81  oceTAUY      Counter:       4   Parms: VV      U1      
           Vector  Mate for  oceTAUY      Diagnostic #     80  oceTAUX  exists 
 Computing Diagnostic #     26  THETA        Counter:       4   Parms: SMR     MR      
 Computing Diagnostic #     27  SALT         Counter:       4   Parms: SMR     MR      
 Computing Diagnostic #     30  UVEL         Counter:       4   Parms: UUR     MR      
           Vector  Mate for  UVEL         Diagnostic #     31  VVEL     exists 
 Computing Diagnostic #     31  VVEL         Counter:       4   Parms: VVR     MR      
           Vector  Mate for  VVEL         Diagnostic #     30  UVEL     exists 
 Computing Diagnostic #    214  SIarea       Counter:       4   Parms: SM      M1      
 Computing Diagnostic #    217  SIheff       Counter:       4   Parms: SM      M1      
 Computing Diagnostic #    219  SIhsnow      Counter:       4   Parms: SM      M1      
 Computing Diagnostic #     83  sIceLoad     Counter:       4   Parms: SM      U1      
 Computing Diagnostic #    223  SIuice       Counter:       4   Parms: UU      M1      
           Vector  Mate for  SIuice       Diagnostic #    224  SIvice   exists 
 Computing Diagnostic #    224  SIvice       Counter:       4   Parms: VV      M1      
           Vector  Mate for  SIvice       Diagnostic #    223  SIuice   exists 
 Computing Diagnostic #    225  SItaux       Counter:       4   Parms: UU      U1      
           Vector  Mate for  SItaux       Diagnostic #    226  SItauy   exists 
 Computing Diagnostic #    226  SItauy       Counter:       4   Parms: VV      U1      
           Vector  Mate for  SItauy       Diagnostic #    225  SItaux   exists 
 Computing Diagnostic #    285  SIareaN      Counter:       4   Parms: SM      MX      
 Computing Diagnostic #    284  SIheffN      Counter:       4   Parms: SM      MX      
 Computing Diagnostic #    286  SIhsnowN     Counter:       4   Parms: SM      MX      
 Computing Diagnostic #    290  SIqSnow      Counter:       4   Parms: SM      MX      
 Computing Diagnostic #    291  SImeltPd     Counter:       4   Parms: SM      MX      
 Computing Diagnostic #    288  SItIces      Counter:       4   Parms: SM      MX      
 Computing Diagnostic #    292  SIiceAge     Counter:       4   Parms: SM      MX      
 Computing Diagnostic #    293  SI_dArea     Counter:       4   Parms: SM      MX      
 Computing Diagnostic #    294  SI_dHeff     Counter:       4   Parms: SM      MX      
 Computing Diagnostic #    295  SI_dHsnw     Counter:       4   Parms: SM      MX      
 Computing Diagnostic #    298  SI_dQSnw     Counter:       4   Parms: SM      MX      
 Compute Stats, Diag. #    214  SIarea    vol(   0 ): 1.432E+15  Parms: SM      M1      
 Compute Stats, Diag. #    217  SIheff    vol(   0 ): 1.432E+15  Parms: SM      M1      
 Compute Stats, Diag. #    219  SIhsnow   vol(   0 ): 1.432E+15  Parms: SM      M1      
 Compute Stats, Diag. #     83  sIceLoad  vol(   0 ): 1.432E+15  Parms: SM      U1      
 Compute Stats, Diag. #    223  SIuice    vol(   0 ): 1.405E+15  Parms: UU      M1      
 Compute Stats, Diag. #    224  SIvice    vol(   0 ): 1.403E+15  Parms: VV      M1      
 Compute Stats, Diag. #    225  SItaux    vol(   0 ): 1.405E+15  Parms: UU      U1      
 Compute Stats, Diag. #    226  SItauy    vol(   0 ): 1.403E+15  Parms: VV      U1      
 Compute Stats, Diag. #    285  SIareaN   vol(   0 ): 7.160E+15  Parms: SM      MX      
 Compute Stats, Diag. #    284  SIheffN   vol(   0 ): 7.160E+15  Parms: SM      MX      
 Compute Stats, Diag. #    286  SIhsnowN  vol(   0 ): 7.160E+15  Parms: SM      MX      
 Compute Stats, Diag. #    290  SIqSnow   vol(   0 ): 7.160E+15  Parms: SM      MX      
 Compute Stats, Diag. #    289  SIqIce    vol(   0 ): 2.864E+16  Parms: SM      MX      
 Compute Stats, Diag. #    291  SImeltPd  vol(   0 ): 7.160E+15  Parms: SM      MX      
 Compute Stats, Diag. #    288  SItIces   vol(   0 ): 7.160E+15  Parms: SM      MX      
 Compute Stats, Diag. #    292  SIiceAge  vol(   0 ): 7.160E+15  Parms: SM      MX      
 Compute Stats, Diag. #    293  SI_dArea  vol(   0 ): 7.160E+15  Parms: SM      MX      
 Compute Stats, Diag. #    294  SI_dHeff  vol(   0 ): 7.160E+15  Parms: SM      MX      
 Compute Stats, Diag. #    295  SI_dHsnw  vol(   0 ): 7.160E+15  Parms: SM      MX      
 Compute Stats, Diag. #    298  SI_dQSnw  vol(   0 ): 7.160E+15  Parms: SM      MX      
 Compute Stats, Diag. #    297  SI_dQIce  vol(   0 ): 2.864E+16  Parms: SM      MX      
 SEAICE_LSR: Residual Initial ipass,Uice,Vice=    1  1.54308927E-02  1.56190680E-02
 SEAICE_LSR (ipass=   1) iters,dU,Resid=    44  9.41287341E-05  5.89184916E-03
 SEAICE_LSR (ipass=   1) iters,dV,Resid=    44  5.83684043E-05  5.56971666E-03
 SEAICE_LSR: Residual Initial ipass,Uice,Vice=    2  1.43696745E-02  1.53813731E-02
 SEAICE_LSR (ipass=   2) iters,dU,Resid=    30  9.83487045E-05  6.19352237E-03
 SEAICE_LSR (ipass=   2) iters,dV,Resid=    30  5.55317005E-05  6.03906255E-03
 cg2d: Sum(rhs),rhsMax =   7.75193482900182E+01  7.16179634379584E+00
 Computing Diagnostic #    289  SIqIce       Counter:       1   Parms: SM      MX      
 Computing Diagnostic #    297  SI_dQIce     Counter:       1   Parms: SM      MX      
 Computing Diagnostic #    290  SIqSnow      Counter:       1   Parms: SM      MX      
 Computing Diagnostic #    298  SI_dQSnw     Counter:       1   Parms: SM      MX      
 cg2d: Sum(rhs),rhsMax =   7.75865797265053E+01  7.16258596072004E+00
 cg2d: Sum(rhs),rhsMax =   7.76486239512219E+01  7.16306951973168E+00
 cg2d: Sum(rhs),rhsMax =   7.77006844109462E+01  7.16333186400809E+00
 Computing Diagnostic #     86  oceQnet      Counter:       4   Parms: SM      U1      
 Computing Diagnostic #     87  oceQsw       Counter:       4   Parms: SM      U1      
 Computing Diagnostic #     84  oceFWflx     Counter:       4   Parms: SM      U1      
 Computing Diagnostic #     85  oceSflux     Counter:       4   Parms: SM      U1      
 Computing Diagnostic #     80  oceTAUX      Counter:       4   Parms: UU      U1      
           Vector  Mate for  oceTAUX      Diagnostic #     81  oceTAUY  exists 
 Computing Diagnostic #     81  oceTAUY      Counter:       4   Parms: VV      U1      
           Vector  Mate for  oceTAUY      Diagnostic #     80  oceTAUX  exists 
 Computing Diagnostic #     26  THETA        Counter:       4   Parms: SMR     MR      
 Computing Diagnostic #     27  SALT         Counter:       4   Parms: SMR     MR      
 Computing Diagnostic #     30  UVEL         Counter:       4   Parms: UUR     MR      
           Vector  Mate for  UVEL         Diagnostic #     31  VVEL     exists 
 Computing Diagnostic #     31  VVEL         Counter:       4   Parms: VVR     MR      
           Vector  Mate for  VVEL         Diagnostic #     30  UVEL     exists 
 Computing Diagnostic #    214  SIarea       Counter:       4   Parms: SM      M1      
 Computing Diagnostic #    217  SIheff       Counter:       4   Parms: SM      M1      
 Computing Diagnostic #    219  SIhsnow      Counter:       4   Parms: SM      M1      
 Computing Diagnostic #     83  sIceLoad     Counter:       4   Parms: SM      U1      
 Computing Diagnostic #    223  SIuice       Counter:       4   Parms: UU      M1      
           Vector  Mate for  SIuice       Diagnostic #    224  SIvice   exists 
 Computing Diagnostic #    224  SIvice       Counter:       4   Parms: VV      M1      
           Vector  Mate for  SIvice       Diagnostic #    223  SIuice   exists 
 Computing Diagnostic #    225  SItaux       Counter:       4   Parms: UU      U1      
           Vector  Mate for  SItaux       Diagnostic #    226  SItauy   exists 
 Computing Diagnostic #    226  SItauy       Counter:       4   Parms: VV      U1      
           Vector  Mate for  SItauy       Diagnostic #    225  SItaux   exists 
 Computing Diagnostic #    285  SIareaN      Counter:       4   Parms: SM      MX      
 Computing Diagnostic #    284  SIheffN      Counter:       4   Parms: SM      MX      
 Computing Diagnostic #    286  SIhsnowN     Counter:       4   Parms: SM      MX      
 Computing Diagnostic #    290  SIqSnow      Counter:       4   Parms: SM      MX      
 Computing Diagnostic #    291  SImeltPd     Counter:       4   Parms: SM      MX      
 Computing Diagnostic #    288  SItIces      Counter:       4   Parms: SM      MX      
 Computing Diagnostic #    292  SIiceAge     Counter:       4   Parms: SM      MX      
 Computing Diagnostic #    293  SI_dArea     Counter:       4   Parms: SM      MX      
 Computing Diagnostic #    294  SI_dHeff     Counter:       4   Parms: SM      MX      
 Computing Diagnostic #    295  SI_dHsnw     Counter:       4   Parms: SM      MX      
 Computing Diagnostic #    298  SI_dQSnw     Counter:       4   Parms: SM      MX      
 Compute Stats, Diag. #    214  SIarea    vol(   0 ): 1.432E+15  Parms: SM      M1      
 Compute Stats, Diag. #    217  SIheff    vol(   0 ): 1.432E+15  Parms: SM      M1      
 Compute Stats, Diag. #    219  SIhsnow   vol(   0 ): 1.432E+15  Parms: SM      M1      
 Compute Stats, Diag. #     83  sIceLoad  vol(   0 ): 1.432E+15  Parms: SM      U1      
 Compute Stats, Diag. #    223  SIuice    vol(   0 ): 1.405E+15  Parms: UU      M1      
 Compute Stats, Diag. #    224  SIvice    vol(   0 ): 1.403E+15  Parms: VV      M1      
 Compute Stats, Diag. #    225  SItaux    vol(   0 ): 1.405E+15  Parms: UU      U1      
 Compute Stats, Diag. #    226  SItauy    vol(   0 ): 1.403E+15  Parms: VV      U1      
 Compute Stats, Diag. #    285  SIareaN   vol(   0 ): 7.160E+15  Parms: SM      MX      
 Compute Stats, Diag. #    284  SIheffN   vol(   0 ): 7.160E+15  Parms: SM      MX      
 Compute Stats, Diag. #    286  SIhsnowN  vol(   0 ): 7.160E+15  Parms: SM      MX      
 Compute Stats, Diag. #    290  SIqSnow   vol(   0 ): 7.160E+15  Parms: SM      MX      
 Compute Stats, Diag. #    289  SIqIce    vol(   0 ): 2.864E+16  Parms: SM      MX      
 Compute Stats, Diag. #    291  SImeltPd  vol(   0 ): 7.160E+15  Parms: SM      MX      
 Compute Stats, Diag. #    288  SItIces   vol(   0 ): 7.160E+15  Parms: SM      MX      
 Compute Stats, Diag. #    292  SIiceAge  vol(   0 ): 7.160E+15  Parms: SM      MX      
 Compute Stats, Diag. #    293  SI_dArea  vol(   0 ): 7.160E+15  Parms: SM      MX      
 Compute Stats, Diag. #    294  SI_dHeff  vol(   0 ): 7.160E+15  Parms: SM      MX      
 Compute Stats, Diag. #    295  SI_dHsnw  vol(   0 ): 7.160E+15  Parms: SM      MX      
 Compute Stats, Diag. #    298  SI_dQSnw  vol(   0 ): 7.160E+15  Parms: SM      MX      
 Compute Stats, Diag. #    297  SI_dQIce  vol(   0 ): 2.864E+16  Parms: SM      MX      
 cg2d: Sum(rhs),rhsMax =   7.77478524294799E+01  7.16351214428288E+00
 Computing Diagnostic #    289  SIqIce       Counter:       1   Parms: SM      MX      
 Computing Diagnostic #    297  SI_dQIce     Counter:       1   Parms: SM      MX      
 Computing Diagnostic #    290  SIqSnow      Counter:       1   Parms: SM      MX      
 Computing Diagnostic #    298  SI_dQSnw     Counter:       1   Parms: SM      MX      
 cg2d: Sum(rhs),rhsMax =   7.77860434407814E+01  7.16372847725986E+00
 cg2d: Sum(rhs),rhsMax =   7.78141090138596E+01  7.16409101034485E+00
 cg2d: Sum(rhs),rhsMax =   7.78331717793657E+01  7.16461085674113E+00
(PID.TID 0000.0001)      cg2d_init_res =   1.63242098430595E+00
(PID.TID 0000.0001)      cg2d_iters(min,last) =      -1      35
(PID.TID 0000.0001)      cg2d_last_res =   2.58965879763958E-05
(PID.TID 0000.0001) // =======================================================
(PID.TID 0000.0001) // Begin MONITOR dynamic field statistics
(PID.TID 0000.0001) // =======================================================
(PID.TID 0000.0001) %MON time_tsnumber                =                    56
(PID.TID 0000.0001) %MON time_secondsf                =   5.0400000000000E+04
(PID.TID 0000.0001) %MON dynstat_eta_max              =   1.0069123151528E+01
(PID.TID 0000.0001) %MON dynstat_eta_min              =  -4.9495198724351E+00
(PID.TID 0000.0001) %MON dynstat_eta_mean             =  -2.4621118060384E-03
(PID.TID 0000.0001) %MON dynstat_eta_sd               =   9.1855078832838E-01
(PID.TID 0000.0001) %MON dynstat_eta_del2             =   3.6711157561835E-03
(PID.TID 0000.0001) %MON dynstat_uvel_max             =   7.3236289196948E-01
(PID.TID 0000.0001) %MON dynstat_uvel_min             =  -8.8472191649068E-01
(PID.TID 0000.0001) %MON dynstat_uvel_mean            =   1.9300493890528E-03
(PID.TID 0000.0001) %MON dynstat_uvel_sd              =   2.1834036124087E-02
(PID.TID 0000.0001) %MON dynstat_uvel_del2            =   1.2556936623773E-05
(PID.TID 0000.0001) %MON dynstat_vvel_max             =   7.3029637384185E-01
(PID.TID 0000.0001) %MON dynstat_vvel_min             =  -9.3174617854317E-01
(PID.TID 0000.0001) %MON dynstat_vvel_mean            =   4.0427894127039E-04
(PID.TID 0000.0001) %MON dynstat_vvel_sd              =   2.3465027418562E-02
(PID.TID 0000.0001) %MON dynstat_vvel_del2            =   1.2996968511828E-05
(PID.TID 0000.0001) %MON dynstat_wvel_max             =   2.8547022837962E-03
(PID.TID 0000.0001) %MON dynstat_wvel_min             =  -1.7688589050015E-03
(PID.TID 0000.0001) %MON dynstat_wvel_mean            =   1.4536355725414E-07
(PID.TID 0000.0001) %MON dynstat_wvel_sd              =   3.2497728026245E-05
(PID.TID 0000.0001) %MON dynstat_wvel_del2            =   4.6918020281241E-08
(PID.TID 0000.0001) %MON dynstat_theta_max            =   3.2564410107783E+01
(PID.TID 0000.0001) %MON dynstat_theta_min            =  -2.0402687796490E+00
(PID.TID 0000.0001) %MON dynstat_theta_mean           =   3.5905329542529E+00
(PID.TID 0000.0001) %MON dynstat_theta_sd             =   4.4363200384893E+00
(PID.TID 0000.0001) %MON dynstat_theta_del2           =   1.0606043720401E-04
(PID.TID 0000.0001) %MON dynstat_salt_max             =   4.0711424226123E+01
(PID.TID 0000.0001) %MON dynstat_salt_min             =   1.8910257794799E+01
(PID.TID 0000.0001) %MON dynstat_salt_mean            =   3.4725635157673E+01
(PID.TID 0000.0001) %MON dynstat_salt_sd              =   3.7717795344212E-01
(PID.TID 0000.0001) %MON dynstat_salt_del2            =   2.7966449914549E-05
(PID.TID 0000.0001) %MON dynstat_sst_max              =   3.2564410107783E+01
(PID.TID 0000.0001) %MON dynstat_sst_min              =  -1.9065681205842E+00
(PID.TID 0000.0001) %MON dynstat_sst_mean             =   1.8479632138582E+01
(PID.TID 0000.0001) %MON dynstat_sst_sd               =   1.0104816937989E+01
(PID.TID 0000.0001) %MON dynstat_sst_del2             =   8.4046761261830E-04
(PID.TID 0000.0001) %MON dynstat_sss_max              =   3.9469654909197E+01
(PID.TID 0000.0001) %MON dynstat_sss_min              =   1.8910257794799E+01
(PID.TID 0000.0001) %MON dynstat_sss_mean             =   3.4684402476584E+01
(PID.TID 0000.0001) %MON dynstat_sss_sd               =   1.1234908971804E+00
(PID.TID 0000.0001) %MON dynstat_sss_del2             =   5.9110954910799E-04
(PID.TID 0000.0001) %MON forcing_qnet_max             =   1.4016972077738E+03
(PID.TID 0000.0001) %MON forcing_qnet_min             =  -7.0247816450092E+02
(PID.TID 0000.0001) %MON forcing_qnet_mean            =   4.2564103053412E+01
(PID.TID 0000.0001) %MON forcing_qnet_sd              =   1.7652822680505E+02
(PID.TID 0000.0001) %MON forcing_qnet_del2            =   3.9262298776325E-01
(PID.TID 0000.0001) %MON forcing_qsw_max              =   0.0000000000000E+00
(PID.TID 0000.0001) %MON forcing_qsw_min              =  -9.8476061793445E+01
(PID.TID 0000.0001) %MON forcing_qsw_mean             =  -1.4418651452459E+01
(PID.TID 0000.0001) %MON forcing_qsw_sd               =   2.4154543344832E+01
(PID.TID 0000.0001) %MON forcing_qsw_del2             =   2.0811103921482E-02
(PID.TID 0000.0001) %MON forcing_empmr_max            =   2.0970324985683E-03
(PID.TID 0000.0001) %MON forcing_empmr_min            =  -1.1470326036215E-01
(PID.TID 0000.0001) %MON forcing_empmr_mean           =   6.8944847101470E-07
(PID.TID 0000.0001) %MON forcing_empmr_sd             =   4.2583618078477E-04
(PID.TID 0000.0001) %MON forcing_empmr_del2           =   6.2760143007167E-06
(PID.TID 0000.0001) %MON forcing_fu_max               =   1.0748192754616E+00
(PID.TID 0000.0001) %MON forcing_fu_min               =  -1.2527679014621E+00
(PID.TID 0000.0001) %MON forcing_fu_mean              =   1.1504538830662E-02
(PID.TID 0000.0001) %MON forcing_fu_sd                =   1.0811631131218E-01
(PID.TID 0000.0001) %MON forcing_fu_del2              =   1.5043503803412E-04
(PID.TID 0000.0001) %MON forcing_fv_max               =   1.4016924733307E+00
(PID.TID 0000.0001) %MON forcing_fv_min               =  -6.8544867502437E-01
(PID.TID 0000.0001) %MON forcing_fv_mean              =  -8.0315842905225E-03
(PID.TID 0000.0001) %MON forcing_fv_sd                =   1.0410889660360E-01
(PID.TID 0000.0001) %MON forcing_fv_del2              =   1.2706447739163E-04
(PID.TID 0000.0001) %MON trAdv_CFL_u_max              =   1.3871092042869E-02
(PID.TID 0000.0001) %MON trAdv_CFL_v_max              =   1.5747213206249E-02
(PID.TID 0000.0001) %MON trAdv_CFL_w_max              =   9.1813856586635E-02
(PID.TID 0000.0001) %MON advcfl_uvel_max              =   1.1748390920810E-02
(PID.TID 0000.0001) %MON advcfl_vvel_max              =   1.4293206177135E-02
(PID.TID 0000.0001) %MON advcfl_wvel_max              =   9.6987029759025E-02
(PID.TID 0000.0001) %MON advcfl_W_hf_max              =   1.0160872466733E-01
(PID.TID 0000.0001) %MON pe_b_mean                    =   1.1465741776498E-05
(PID.TID 0000.0001) %MON ke_max                       =   4.3633301569669E-01
(PID.TID 0000.0001) %MON ke_mean                      =   4.9724589220960E-04
(PID.TID 0000.0001) %MON ke_vol                       =   1.3349969956850E+18
(PID.TID 0000.0001) %MON vort_r_min                   =  -2.6105959358921E-05
(PID.TID 0000.0001) %MON vort_r_max                   =   2.2639167726811E-05
(PID.TID 0000.0001) %MON vort_a_mean                  =  -1.9727864647440E-05
(PID.TID 0000.0001) %MON vort_a_sd                    =   7.4542987951063E-05
(PID.TID 0000.0001) %MON vort_p_mean                  =  -2.1760722325513E-05
(PID.TID 0000.0001) %MON vort_p_sd                    =   9.7249888256457E-05
(PID.TID 0000.0001) %MON surfExpan_theta_mean         =   1.8587687116028E-06
(PID.TID 0000.0001) %MON surfExpan_salt_mean          =   9.9308585664899E-09
(PID.TID 0000.0001) // =======================================================
(PID.TID 0000.0001) // End MONITOR dynamic field statistics
(PID.TID 0000.0001) // =======================================================
(PID.TID 0000.0001) // =======================================================
(PID.TID 0000.0001) // Begin MONITOR SEAICE statistics
(PID.TID 0000.0001) // =======================================================
(PID.TID 0000.0001) %MON seaice_tsnumber              =                    56
(PID.TID 0000.0001) %MON seaice_time_sec              =   5.0400000000000E+04
(PID.TID 0000.0001) %MON seaice_uice_max              =   7.5798617679737E-01
(PID.TID 0000.0001) %MON seaice_uice_min              =  -9.1786139179707E-01
(PID.TID 0000.0001) %MON seaice_uice_mean             =  -2.2452215039874E-03
(PID.TID 0000.0001) %MON seaice_uice_sd               =   1.4566218760195E-01
(PID.TID 0000.0001) %MON seaice_uice_del2             =   2.1240402187980E-04
(PID.TID 0000.0001) %MON seaice_vice_max              =   5.7155139996874E-01
(PID.TID 0000.0001) %MON seaice_vice_min              =  -9.1784925261029E-01
(PID.TID 0000.0001) %MON seaice_vice_mean             =  -1.7602600332105E-02
(PID.TID 0000.0001) %MON seaice_vice_sd               =   1.3609978421082E-01
(PID.TID 0000.0001) %MON seaice_vice_del2             =   1.8536434094540E-04
(PID.TID 0000.0001) %MON seaice_area_max              =   1.0000000000000E+00
(PID.TID 0000.0001) %MON seaice_area_min              =   0.0000000000000E+00
(PID.TID 0000.0001) %MON seaice_area_mean             =   7.1248226101448E-02
(PID.TID 0000.0001) %MON seaice_area_sd               =   2.3676530977982E-01
(PID.TID 0000.0001) %MON seaice_area_del2             =   3.8011811496944E-04
(PID.TID 0000.0001) %MON seaice_heff_max              =   2.5439397572454E+01
(PID.TID 0000.0001) %MON seaice_heff_min              =   0.0000000000000E+00
(PID.TID 0000.0001) %MON seaice_heff_mean             =   2.1689449431476E-01
(PID.TID 0000.0001) %MON seaice_heff_sd               =   1.0628857455624E+00
(PID.TID 0000.0001) %MON seaice_heff_del2             =   3.1618059288004E-03
(PID.TID 0000.0001) %MON seaice_hsnow_max             =   8.4022085857612E+00
(PID.TID 0000.0001) %MON seaice_hsnow_min             =   0.0000000000000E+00
(PID.TID 0000.0001) %MON seaice_hsnow_mean            =   2.4589838969517E-02
(PID.TID 0000.0001) %MON seaice_hsnow_sd              =   1.5315174471762E-01
(PID.TID 0000.0001) %MON seaice_hsnow_del2            =   1.0011346135983E-03
(PID.TID 0000.0001) // =======================================================
(PID.TID 0000.0001) // End MONITOR SEAICE statistics
(PID.TID 0000.0001) // =======================================================
 Computing Diagnostic #     86  oceQnet      Counter:       4   Parms: SM      U1      
 Computing Diagnostic #     87  oceQsw       Counter:       4   Parms: SM      U1      
 Computing Diagnostic #     84  oceFWflx     Counter:       4   Parms: SM      U1      
 Computing Diagnostic #     85  oceSflux     Counter:       4   Parms: SM      U1      
 Computing Diagnostic #     80  oceTAUX      Counter:       4   Parms: UU      U1      
           Vector  Mate for  oceTAUX      Diagnostic #     81  oceTAUY  exists 
 Computing Diagnostic #     81  oceTAUY      Counter:       4   Parms: VV      U1      
           Vector  Mate for  oceTAUY      Diagnostic #     80  oceTAUX  exists 
 Computing Diagnostic #     26  THETA        Counter:       4   Parms: SMR     MR      
 Computing Diagnostic #     27  SALT         Counter:       4   Parms: SMR     MR      
 Computing Diagnostic #     30  UVEL         Counter:       4   Parms: UUR     MR      
           Vector  Mate for  UVEL         Diagnostic #     31  VVEL     exists 
 Computing Diagnostic #     31  VVEL         Counter:       4   Parms: VVR     MR      
           Vector  Mate for  VVEL         Diagnostic #     30  UVEL     exists 
 Computing Diagnostic #    214  SIarea       Counter:       4   Parms: SM      M1      
 Computing Diagnostic #    217  SIheff       Counter:       4   Parms: SM      M1      
 Computing Diagnostic #    219  SIhsnow      Counter:       4   Parms: SM      M1      
 Computing Diagnostic #     83  sIceLoad     Counter:       4   Parms: SM      U1      
 Computing Diagnostic #    223  SIuice       Counter:       4   Parms: UU      M1      
           Vector  Mate for  SIuice       Diagnostic #    224  SIvice   exists 
 Computing Diagnostic #    224  SIvice       Counter:       4   Parms: VV      M1      
           Vector  Mate for  SIvice       Diagnostic #    223  SIuice   exists 
 Computing Diagnostic #    225  SItaux       Counter:       4   Parms: UU      U1      
           Vector  Mate for  SItaux       Diagnostic #    226  SItauy   exists 
 Computing Diagnostic #    226  SItauy       Counter:       4   Parms: VV      U1      
           Vector  Mate for  SItauy       Diagnostic #    225  SItaux   exists 
 Computing Diagnostic #    285  SIareaN      Counter:       4   Parms: SM      MX      
 Computing Diagnostic #    284  SIheffN      Counter:       4   Parms: SM      MX      
 Computing Diagnostic #    286  SIhsnowN     Counter:       4   Parms: SM      MX      
 Computing Diagnostic #    290  SIqSnow      Counter:       4   Parms: SM      MX      
 Computing Diagnostic #    291  SImeltPd     Counter:       4   Parms: SM      MX      
 Computing Diagnostic #    288  SItIces      Counter:       4   Parms: SM      MX      
 Computing Diagnostic #    292  SIiceAge     Counter:       4   Parms: SM      MX      
 Computing Diagnostic #    293  SI_dArea     Counter:       4   Parms: SM      MX      
 Computing Diagnostic #    294  SI_dHeff     Counter:       4   Parms: SM      MX      
 Computing Diagnostic #    295  SI_dHsnw     Counter:       4   Parms: SM      MX      
 Computing Diagnostic #    298  SI_dQSnw     Counter:       4   Parms: SM      MX      
 Compute Stats, Diag. #    214  SIarea    vol(   0 ): 1.432E+15  Parms: SM      M1      
 Compute Stats, Diag. #    217  SIheff    vol(   0 ): 1.432E+15  Parms: SM      M1      
 Compute Stats, Diag. #    219  SIhsnow   vol(   0 ): 1.432E+15  Parms: SM      M1      
 Compute Stats, Diag. #     83  sIceLoad  vol(   0 ): 1.432E+15  Parms: SM      U1      
 Compute Stats, Diag. #    223  SIuice    vol(   0 ): 1.405E+15  Parms: UU      M1      
 Compute Stats, Diag. #    224  SIvice    vol(   0 ): 1.403E+15  Parms: VV      M1      
 Compute Stats, Diag. #    225  SItaux    vol(   0 ): 1.405E+15  Parms: UU      U1      
 Compute Stats, Diag. #    226  SItauy    vol(   0 ): 1.403E+15  Parms: VV      U1      
 Compute Stats, Diag. #    285  SIareaN   vol(   0 ): 7.160E+15  Parms: SM      MX      
 Compute Stats, Diag. #    284  SIheffN   vol(   0 ): 7.160E+15  Parms: SM      MX      
 Compute Stats, Diag. #    286  SIhsnowN  vol(   0 ): 7.160E+15  Parms: SM      MX      
 Compute Stats, Diag. #    290  SIqSnow   vol(   0 ): 7.160E+15  Parms: SM      MX      
 Compute Stats, Diag. #    289  SIqIce    vol(   0 ): 2.864E+16  Parms: SM      MX      
 Compute Stats, Diag. #    291  SImeltPd  vol(   0 ): 7.160E+15  Parms: SM      MX      
 Compute Stats, Diag. #    288  SItIces   vol(   0 ): 7.160E+15  Parms: SM      MX      
 Compute Stats, Diag. #    292  SIiceAge  vol(   0 ): 7.160E+15  Parms: SM      MX      
 Compute Stats, Diag. #    293  SI_dArea  vol(   0 ): 7.160E+15  Parms: SM      MX      
 Compute Stats, Diag. #    294  SI_dHeff  vol(   0 ): 7.160E+15  Parms: SM      MX      
 Compute Stats, Diag. #    295  SI_dHsnw  vol(   0 ): 7.160E+15  Parms: SM      MX      
 Compute Stats, Diag. #    298  SI_dQSnw  vol(   0 ): 7.160E+15  Parms: SM      MX      
 Compute Stats, Diag. #    297  SI_dQIce  vol(   0 ): 2.864E+16  Parms: SM      MX      
 SEAICE_LSR: Residual Initial ipass,Uice,Vice=    1  1.33852774E-02  1.21877244E-02
 SEAICE_LSR (ipass=   1) iters,dU,Resid=    44  9.72058177E-05  5.34267556E-03
 SEAICE_LSR (ipass=   1) iters,dV,Resid=    44  7.36309799E-05  3.61642415E-03
 SEAICE_LSR: Residual Initial ipass,Uice,Vice=    2  1.25616684E-02  1.08642956E-02
 SEAICE_LSR (ipass=   2) iters,dU,Resid=    32  8.91252853E-05  5.42186410E-03
 SEAICE_LSR (ipass=   2) iters,dV,Resid=    32  6.60050586E-05  3.87446294E-03
 cg2d: Sum(rhs),rhsMax =   7.78471618039142E+01  7.16517825338612E+00
 Computing Diagnostic #    289  SIqIce       Counter:       1   Parms: SM      MX      
 Computing Diagnostic #    297  SI_dQIce     Counter:       1   Parms: SM      MX      
 Computing Diagnostic #    290  SIqSnow      Counter:       1   Parms: SM      MX      
 Computing Diagnostic #    298  SI_dQSnw     Counter:       1   Parms: SM      MX      
 cg2d: Sum(rhs),rhsMax =   7.78521543091626E+01  7.16571143980209E+00
 cg2d: Sum(rhs),rhsMax =   7.78463156699707E+01  7.16617423884622E+00
 cg2d: Sum(rhs),rhsMax =   7.78334093077252E+01  7.16646972809828E+00
 Computing Diagnostic #     86  oceQnet      Counter:       4   Parms: SM      U1      
 Computing Diagnostic #     87  oceQsw       Counter:       4   Parms: SM      U1      
 Computing Diagnostic #     84  oceFWflx     Counter:       4   Parms: SM      U1      
 Computing Diagnostic #     85  oceSflux     Counter:       4   Parms: SM      U1      
 Computing Diagnostic #     80  oceTAUX      Counter:       4   Parms: UU      U1      
           Vector  Mate for  oceTAUX      Diagnostic #     81  oceTAUY  exists 
 Computing Diagnostic #     81  oceTAUY      Counter:       4   Parms: VV      U1      
           Vector  Mate for  oceTAUY      Diagnostic #     80  oceTAUX  exists 
 Computing Diagnostic #     26  THETA        Counter:       4   Parms: SMR     MR      
 Computing Diagnostic #     27  SALT         Counter:       4   Parms: SMR     MR      
 Computing Diagnostic #     30  UVEL         Counter:       4   Parms: UUR     MR      
           Vector  Mate for  UVEL         Diagnostic #     31  VVEL     exists 
 Computing Diagnostic #     31  VVEL         Counter:       4   Parms: VVR     MR      
           Vector  Mate for  VVEL         Diagnostic #     30  UVEL     exists 
 Computing Diagnostic #    214  SIarea       Counter:       4   Parms: SM      M1      
 Computing Diagnostic #    217  SIheff       Counter:       4   Parms: SM      M1      
 Computing Diagnostic #    219  SIhsnow      Counter:       4   Parms: SM      M1      
 Computing Diagnostic #     83  sIceLoad     Counter:       4   Parms: SM      U1      
 Computing Diagnostic #    223  SIuice       Counter:       4   Parms: UU      M1      
           Vector  Mate for  SIuice       Diagnostic #    224  SIvice   exists 
 Computing Diagnostic #    224  SIvice       Counter:       4   Parms: VV      M1      
           Vector  Mate for  SIvice       Diagnostic #    223  SIuice   exists 
 Computing Diagnostic #    225  SItaux       Counter:       4   Parms: UU      U1      
           Vector  Mate for  SItaux       Diagnostic #    226  SItauy   exists 
 Computing Diagnostic #    226  SItauy       Counter:       4   Parms: VV      U1      
           Vector  Mate for  SItauy       Diagnostic #    225  SItaux   exists 
 Computing Diagnostic #    285  SIareaN      Counter:       4   Parms: SM      MX      
 Computing Diagnostic #    284  SIheffN      Counter:       4   Parms: SM      MX      
 Computing Diagnostic #    286  SIhsnowN     Counter:       4   Parms: SM      MX      
 Computing Diagnostic #    290  SIqSnow      Counter:       4   Parms: SM      MX      
 Computing Diagnostic #    291  SImeltPd     Counter:       4   Parms: SM      MX      
 Computing Diagnostic #    288  SItIces      Counter:       4   Parms: SM      MX      
 Computing Diagnostic #    292  SIiceAge     Counter:       4   Parms: SM      MX      
 Computing Diagnostic #    293  SI_dArea     Counter:       4   Parms: SM      MX      
 Computing Diagnostic #    294  SI_dHeff     Counter:       4   Parms: SM      MX      
 Computing Diagnostic #    295  SI_dHsnw     Counter:       4   Parms: SM      MX      
 Computing Diagnostic #    298  SI_dQSnw     Counter:       4   Parms: SM      MX      
 Compute Stats, Diag. #    214  SIarea    vol(   0 ): 1.432E+15  Parms: SM      M1      
 Compute Stats, Diag. #    217  SIheff    vol(   0 ): 1.432E+15  Parms: SM      M1      
 Compute Stats, Diag. #    219  SIhsnow   vol(   0 ): 1.432E+15  Parms: SM      M1      
 Compute Stats, Diag. #     83  sIceLoad  vol(   0 ): 1.432E+15  Parms: SM      U1      
 Compute Stats, Diag. #    223  SIuice    vol(   0 ): 1.405E+15  Parms: UU      M1      
 Compute Stats, Diag. #    224  SIvice    vol(   0 ): 1.403E+15  Parms: VV      M1      
 Compute Stats, Diag. #    225  SItaux    vol(   0 ): 1.405E+15  Parms: UU      U1      
 Compute Stats, Diag. #    226  SItauy    vol(   0 ): 1.403E+15  Parms: VV      U1      
 Compute Stats, Diag. #    285  SIareaN   vol(   0 ): 7.160E+15  Parms: SM      MX      
 Compute Stats, Diag. #    284  SIheffN   vol(   0 ): 7.160E+15  Parms: SM      MX      
 Compute Stats, Diag. #    286  SIhsnowN  vol(   0 ): 7.160E+15  Parms: SM      MX      
 Compute Stats, Diag. #    290  SIqSnow   vol(   0 ): 7.160E+15  Parms: SM      MX      
 Compute Stats, Diag. #    289  SIqIce    vol(   0 ): 2.864E+16  Parms: SM      MX      
 Compute Stats, Diag. #    291  SImeltPd  vol(   0 ): 7.160E+15  Parms: SM      MX      
 Compute Stats, Diag. #    288  SItIces   vol(   0 ): 7.160E+15  Parms: SM      MX      
 Compute Stats, Diag. #    292  SIiceAge  vol(   0 ): 7.160E+15  Parms: SM      MX      
 Compute Stats, Diag. #    293  SI_dArea  vol(   0 ): 7.160E+15  Parms: SM      MX      
 Compute Stats, Diag. #    294  SI_dHeff  vol(   0 ): 7.160E+15  Parms: SM      MX      
 Compute Stats, Diag. #    295  SI_dHsnw  vol(   0 ): 7.160E+15  Parms: SM      MX      
 Compute Stats, Diag. #    298  SI_dQSnw  vol(   0 ): 7.160E+15  Parms: SM      MX      
 Compute Stats, Diag. #    297  SI_dQIce  vol(   0 ): 2.864E+16  Parms: SM      MX      
 cg2d: Sum(rhs),rhsMax =   7.78193193167569E+01  7.16651687800856E+00
 Computing Diagnostic #    289  SIqIce       Counter:       1   Parms: SM      MX      
 Computing Diagnostic #    297  SI_dQIce     Counter:       1   Parms: SM      MX      
 Computing Diagnostic #    290  SIqSnow      Counter:       1   Parms: SM      MX      
 Computing Diagnostic #    298  SI_dQSnw     Counter:       1   Parms: SM      MX      
 cg2d: Sum(rhs),rhsMax =   7.78009602898819E+01  7.16627180597416E+00
 cg2d: Sum(rhs),rhsMax =   7.77767500208935E+01  7.16574409237927E+00
 cg2d: Sum(rhs),rhsMax =   7.77474885391674E+01  7.16488420349970E+00
(PID.TID 0000.0001)      cg2d_init_res =   1.47701524441243E+00
(PID.TID 0000.0001)      cg2d_iters(min,last) =      -1      35
(PID.TID 0000.0001)      cg2d_last_res =   2.69694993811738E-05
(PID.TID 0000.0001) // =======================================================
(PID.TID 0000.0001) // Begin MONITOR dynamic field statistics
(PID.TID 0000.0001) // =======================================================
(PID.TID 0000.0001) %MON time_tsnumber                =                    64
(PID.TID 0000.0001) %MON time_secondsf                =   5.7600000000000E+04
(PID.TID 0000.0001) %MON dynstat_eta_max              =   9.9337664396839E+00
(PID.TID 0000.0001) %MON dynstat_eta_min              =  -4.8490543305086E+00
(PID.TID 0000.0001) %MON dynstat_eta_mean             =  -2.4594013714967E-03
(PID.TID 0000.0001) %MON dynstat_eta_sd               =   9.1764839384278E-01
(PID.TID 0000.0001) %MON dynstat_eta_del2             =   3.6742728654234E-03
(PID.TID 0000.0001) %MON dynstat_uvel_max             =   6.0772067934967E-01
(PID.TID 0000.0001) %MON dynstat_uvel_min             =  -6.8414081434953E-01
(PID.TID 0000.0001) %MON dynstat_uvel_mean            =   2.0812868460306E-03
(PID.TID 0000.0001) %MON dynstat_uvel_sd              =   2.1697864853778E-02
(PID.TID 0000.0001) %MON dynstat_uvel_del2            =   1.2089189471484E-05
(PID.TID 0000.0001) %MON dynstat_vvel_max             =   7.1464234029756E-01
(PID.TID 0000.0001) %MON dynstat_vvel_min             =  -9.2566843530823E-01
(PID.TID 0000.0001) %MON dynstat_vvel_mean            =   6.7793777471526E-04
(PID.TID 0000.0001) %MON dynstat_vvel_sd              =   2.3329145893780E-02
(PID.TID 0000.0001) %MON dynstat_vvel_del2            =   1.2477991245959E-05
(PID.TID 0000.0001) %MON dynstat_wvel_max             =   2.2746953774972E-03
(PID.TID 0000.0001) %MON dynstat_wvel_min             =  -2.0320951280061E-03
(PID.TID 0000.0001) %MON dynstat_wvel_mean            =   5.0584572618621E-08
(PID.TID 0000.0001) %MON dynstat_wvel_sd              =   3.1514807521179E-05
(PID.TID 0000.0001) %MON dynstat_wvel_del2            =   4.4174859367911E-08
(PID.TID 0000.0001) %MON dynstat_theta_max            =   3.2551484393921E+01
(PID.TID 0000.0001) %MON dynstat_theta_min            =  -2.0402038441124E+00
(PID.TID 0000.0001) %MON dynstat_theta_mean           =   3.5905170607962E+00
(PID.TID 0000.0001) %MON dynstat_theta_sd             =   4.4362503869795E+00
(PID.TID 0000.0001) %MON dynstat_theta_del2           =   1.0546875541257E-04
(PID.TID 0000.0001) %MON dynstat_salt_max             =   4.0711395518504E+01
(PID.TID 0000.0001) %MON dynstat_salt_min             =   1.8915363776471E+01
(PID.TID 0000.0001) %MON dynstat_salt_mean            =   3.4725628442538E+01
(PID.TID 0000.0001) %MON dynstat_salt_sd              =   3.7714856234851E-01
(PID.TID 0000.0001) %MON dynstat_salt_del2            =   2.8343978527404E-05
(PID.TID 0000.0001) %MON dynstat_sst_max              =   3.2541538271166E+01
(PID.TID 0000.0001) %MON dynstat_sst_min              =  -1.9010997714889E+00
(PID.TID 0000.0001) %MON dynstat_sst_mean             =   1.8478266251284E+01
(PID.TID 0000.0001) %MON dynstat_sst_sd               =   1.0105464250691E+01
(PID.TID 0000.0001) %MON dynstat_sst_del2             =   8.3649477486734E-04
(PID.TID 0000.0001) %MON dynstat_sss_max              =   3.9445018937633E+01
(PID.TID 0000.0001) %MON dynstat_sss_min              =   1.8915363776471E+01
(PID.TID 0000.0001) %MON dynstat_sss_mean             =   3.4685191221777E+01
(PID.TID 0000.0001) %MON dynstat_sss_sd               =   1.1244764589428E+00
(PID.TID 0000.0001) %MON dynstat_sss_del2             =   6.2725938697191E-04
(PID.TID 0000.0001) %MON forcing_qnet_max             =   1.4538083496094E+03
(PID.TID 0000.0001) %MON forcing_qnet_min             =  -7.8855717322149E+02
(PID.TID 0000.0001) %MON forcing_qnet_mean            =   2.7769890342458E+01
(PID.TID 0000.0001) %MON forcing_qnet_sd              =   1.9446940213180E+02
(PID.TID 0000.0001) %MON forcing_qnet_del2            =   3.8422013698005E-01
(PID.TID 0000.0001) %MON forcing_qsw_max              =   0.0000000000000E+00
(PID.TID 0000.0001) %MON forcing_qsw_min              =  -1.0357179349720E+02
(PID.TID 0000.0001) %MON forcing_qsw_mean             =  -1.5613902732598E+01
(PID.TID 0000.0001) %MON forcing_qsw_sd               =   2.7114944071170E+01
(PID.TID 0000.0001) %MON forcing_qsw_del2             =   2.1664379757387E-02
(PID.TID 0000.0001) %MON forcing_empmr_max            =   1.9280328415334E-03
(PID.TID 0000.0001) %MON forcing_empmr_min            =  -8.4659837186337E-02
(PID.TID 0000.0001) %MON forcing_empmr_mean           =  -1.0583083461464E-06
(PID.TID 0000.0001) %MON forcing_empmr_sd             =   3.6625085834680E-04
(PID.TID 0000.0001) %MON forcing_empmr_del2           =   4.5809830953556E-06
(PID.TID 0000.0001) %MON forcing_fu_max               =   1.0501018366602E+00
(PID.TID 0000.0001) %MON forcing_fu_min               =  -1.0786103817257E+00
(PID.TID 0000.0001) %MON forcing_fu_mean              =   1.0556506117690E-02
(PID.TID 0000.0001) %MON forcing_fu_sd                =   1.0649490892911E-01
(PID.TID 0000.0001) %MON forcing_fu_del2              =   1.4685974278440E-04
(PID.TID 0000.0001) %MON forcing_fv_max               =   1.0903304343083E+00
(PID.TID 0000.0001) %MON forcing_fv_min               =  -7.0019121885389E-01
(PID.TID 0000.0001) %MON forcing_fv_mean              =  -7.6667093264833E-03
(PID.TID 0000.0001) %MON forcing_fv_sd                =   1.0346961972673E-01
(PID.TID 0000.0001) %MON forcing_fv_del2              =   1.2434921139293E-04
(PID.TID 0000.0001) %MON trAdv_CFL_u_max              =   1.3659422343548E-02
(PID.TID 0000.0001) %MON trAdv_CFL_v_max              =   1.4308165307226E-02
(PID.TID 0000.0001) %MON trAdv_CFL_w_max              =   7.1920665944255E-02
(PID.TID 0000.0001) %MON advcfl_uvel_max              =   1.0732724176786E-02
(PID.TID 0000.0001) %MON advcfl_vvel_max              =   1.2777708273836E-02
(PID.TID 0000.0001) %MON advcfl_wvel_max              =   7.6326889923122E-02
(PID.TID 0000.0001) %MON advcfl_W_hf_max              =   7.9946899562123E-02
(PID.TID 0000.0001) %MON pe_b_mean                    =   1.8950597476682E-06
(PID.TID 0000.0001) %MON ke_max                       =   4.3225302956548E-01
(PID.TID 0000.0001) %MON ke_mean                      =   4.9175681543466E-04
(PID.TID 0000.0001) %MON ke_vol                       =   1.3349969961081E+18
(PID.TID 0000.0001) %MON vort_r_min                   =  -2.1713606725465E-05
(PID.TID 0000.0001) %MON vort_r_max                   =   2.1332221647193E-05
(PID.TID 0000.0001) %MON vort_a_mean                  =  -1.9727864647440E-05
(PID.TID 0000.0001) %MON vort_a_sd                    =   7.4543062529538E-05
(PID.TID 0000.0001) %MON vort_p_mean                  =  -2.1760724901607E-05
(PID.TID 0000.0001) %MON vort_p_sd                    =   9.7250177034903E-05
(PID.TID 0000.0001) %MON surfExpan_theta_mean         =   2.2405948720200E-06
(PID.TID 0000.0001) %MON surfExpan_salt_mean          =  -6.9100758960743E-08
(PID.TID 0000.0001) // =======================================================
(PID.TID 0000.0001) // End MONITOR dynamic field statistics
(PID.TID 0000.0001) // =======================================================
(PID.TID 0000.0001) // =======================================================
(PID.TID 0000.0001) // Begin MONITOR SEAICE statistics
(PID.TID 0000.0001) // =======================================================
(PID.TID 0000.0001) %MON seaice_tsnumber              =                    64
(PID.TID 0000.0001) %MON seaice_time_sec              =   5.7600000000000E+04
(PID.TID 0000.0001) %MON seaice_uice_max              =   6.4216325822813E-01
(PID.TID 0000.0001) %MON seaice_uice_min              =  -6.8903481775724E-01
(PID.TID 0000.0001) %MON seaice_uice_mean             =  -9.3442384658378E-04
(PID.TID 0000.0001) %MON seaice_uice_sd               =   1.4507586292248E-01
(PID.TID 0000.0001) %MON seaice_uice_del2             =   2.0824224041012E-04
(PID.TID 0000.0001) %MON seaice_vice_max              =   5.5044751165230E-01
(PID.TID 0000.0001) %MON seaice_vice_min              =  -9.1651858482410E-01
(PID.TID 0000.0001) %MON seaice_vice_mean             =  -1.8837522694782E-02
(PID.TID 0000.0001) %MON seaice_vice_sd               =   1.3426428966874E-01
(PID.TID 0000.0001) %MON seaice_vice_del2             =   1.7826287307540E-04
(PID.TID 0000.0001) %MON seaice_area_max              =   1.0000000000000E+00
(PID.TID 0000.0001) %MON seaice_area_min              =   0.0000000000000E+00
(PID.TID 0000.0001) %MON seaice_area_mean             =   7.1089255998436E-02
(PID.TID 0000.0001) %MON seaice_area_sd               =   2.3664583608614E-01
(PID.TID 0000.0001) %MON seaice_area_del2             =   3.7238949015583E-04
(PID.TID 0000.0001) %MON seaice_heff_max              =   2.5435008965511E+01
(PID.TID 0000.0001) %MON seaice_heff_min              =   0.0000000000000E+00
(PID.TID 0000.0001) %MON seaice_heff_mean             =   2.1690147532459E-01
(PID.TID 0000.0001) %MON seaice_heff_sd               =   1.0627752247673E+00
(PID.TID 0000.0001) %MON seaice_heff_del2             =   3.1137914634572E-03
(PID.TID 0000.0001) %MON seaice_hsnow_max             =   8.4007947428719E+00
(PID.TID 0000.0001) %MON seaice_hsnow_min             =   0.0000000000000E+00
(PID.TID 0000.0001) %MON seaice_hsnow_mean            =   2.4583193882875E-02
(PID.TID 0000.0001) %MON seaice_hsnow_sd              =   1.5278662257342E-01
(PID.TID 0000.0001) %MON seaice_hsnow_del2            =   9.8509823962442E-04
(PID.TID 0000.0001) // =======================================================
(PID.TID 0000.0001) // End MONITOR SEAICE statistics
(PID.TID 0000.0001) // =======================================================
 Computing Diagnostic #     86  oceQnet      Counter:       4   Parms: SM      U1      
 Computing Diagnostic #     87  oceQsw       Counter:       4   Parms: SM      U1      
 Computing Diagnostic #     84  oceFWflx     Counter:       4   Parms: SM      U1      
 Computing Diagnostic #     85  oceSflux     Counter:       4   Parms: SM      U1      
 Computing Diagnostic #     80  oceTAUX      Counter:       4   Parms: UU      U1      
           Vector  Mate for  oceTAUX      Diagnostic #     81  oceTAUY  exists 
 Computing Diagnostic #     81  oceTAUY      Counter:       4   Parms: VV      U1      
           Vector  Mate for  oceTAUY      Diagnostic #     80  oceTAUX  exists 
 Computing Diagnostic #     26  THETA        Counter:       4   Parms: SMR     MR      
 Computing Diagnostic #     27  SALT         Counter:       4   Parms: SMR     MR      
 Computing Diagnostic #     30  UVEL         Counter:       4   Parms: UUR     MR      
           Vector  Mate for  UVEL         Diagnostic #     31  VVEL     exists 
 Computing Diagnostic #     31  VVEL         Counter:       4   Parms: VVR     MR      
           Vector  Mate for  VVEL         Diagnostic #     30  UVEL     exists 
 Computing Diagnostic #    214  SIarea       Counter:       4   Parms: SM      M1      
 Computing Diagnostic #    217  SIheff       Counter:       4   Parms: SM      M1      
 Computing Diagnostic #    219  SIhsnow      Counter:       4   Parms: SM      M1      
 Computing Diagnostic #     83  sIceLoad     Counter:       4   Parms: SM      U1      
 Computing Diagnostic #    223  SIuice       Counter:       4   Parms: UU      M1      
           Vector  Mate for  SIuice       Diagnostic #    224  SIvice   exists 
 Computing Diagnostic #    224  SIvice       Counter:       4   Parms: VV      M1      
           Vector  Mate for  SIvice       Diagnostic #    223  SIuice   exists 
 Computing Diagnostic #    225  SItaux       Counter:       4   Parms: UU      U1      
           Vector  Mate for  SItaux       Diagnostic #    226  SItauy   exists 
 Computing Diagnostic #    226  SItauy       Counter:       4   Parms: VV      U1      
           Vector  Mate for  SItauy       Diagnostic #    225  SItaux   exists 
 Computing Diagnostic #    285  SIareaN      Counter:       4   Parms: SM      MX      
 Computing Diagnostic #    284  SIheffN      Counter:       4   Parms: SM      MX      
 Computing Diagnostic #    286  SIhsnowN     Counter:       4   Parms: SM      MX      
 Computing Diagnostic #    290  SIqSnow      Counter:       4   Parms: SM      MX      
 Computing Diagnostic #    291  SImeltPd     Counter:       4   Parms: SM      MX      
 Computing Diagnostic #    288  SItIces      Counter:       4   Parms: SM      MX      
 Computing Diagnostic #    292  SIiceAge     Counter:       4   Parms: SM      MX      
 Computing Diagnostic #    293  SI_dArea     Counter:       4   Parms: SM      MX      
 Computing Diagnostic #    294  SI_dHeff     Counter:       4   Parms: SM      MX      
 Computing Diagnostic #    295  SI_dHsnw     Counter:       4   Parms: SM      MX      
 Computing Diagnostic #    298  SI_dQSnw     Counter:       4   Parms: SM      MX      
 Compute Stats, Diag. #    214  SIarea    vol(   0 ): 1.432E+15  Parms: SM      M1      
 Compute Stats, Diag. #    217  SIheff    vol(   0 ): 1.432E+15  Parms: SM      M1      
 Compute Stats, Diag. #    219  SIhsnow   vol(   0 ): 1.432E+15  Parms: SM      M1      
 Compute Stats, Diag. #     83  sIceLoad  vol(   0 ): 1.432E+15  Parms: SM      U1      
 Compute Stats, Diag. #    223  SIuice    vol(   0 ): 1.405E+15  Parms: UU      M1      
 Compute Stats, Diag. #    224  SIvice    vol(   0 ): 1.403E+15  Parms: VV      M1      
 Compute Stats, Diag. #    225  SItaux    vol(   0 ): 1.405E+15  Parms: UU      U1      
 Compute Stats, Diag. #    226  SItauy    vol(   0 ): 1.403E+15  Parms: VV      U1      
 Compute Stats, Diag. #    285  SIareaN   vol(   0 ): 7.160E+15  Parms: SM      MX      
 Compute Stats, Diag. #    284  SIheffN   vol(   0 ): 7.160E+15  Parms: SM      MX      
 Compute Stats, Diag. #    286  SIhsnowN  vol(   0 ): 7.160E+15  Parms: SM      MX      
 Compute Stats, Diag. #    290  SIqSnow   vol(   0 ): 7.160E+15  Parms: SM      MX      
 Compute Stats, Diag. #    289  SIqIce    vol(   0 ): 2.864E+16  Parms: SM      MX      
 Compute Stats, Diag. #    291  SImeltPd  vol(   0 ): 7.160E+15  Parms: SM      MX      
 Compute Stats, Diag. #    288  SItIces   vol(   0 ): 7.160E+15  Parms: SM      MX      
 Compute Stats, Diag. #    292  SIiceAge  vol(   0 ): 7.160E+15  Parms: SM      MX      
 Compute Stats, Diag. #    293  SI_dArea  vol(   0 ): 7.160E+15  Parms: SM      MX      
 Compute Stats, Diag. #    294  SI_dHeff  vol(   0 ): 7.160E+15  Parms: SM      MX      
 Compute Stats, Diag. #    295  SI_dHsnw  vol(   0 ): 7.160E+15  Parms: SM      MX      
 Compute Stats, Diag. #    298  SI_dQSnw  vol(   0 ): 7.160E+15  Parms: SM      MX      
 Compute Stats, Diag. #    297  SI_dQIce  vol(   0 ): 2.864E+16  Parms: SM      MX      
 SEAICE_LSR: Residual Initial ipass,Uice,Vice=    1  1.04047225E-02  9.60260691E-03
 SEAICE_LSR (ipass=   1) iters,dU,Resid=    48  8.23098590E-05  4.75540785E-03
 SEAICE_LSR (ipass=   1) iters,dV,Resid=    48  9.64271878E-05  2.25480987E-03
 SEAICE_LSR: Residual Initial ipass,Uice,Vice=    2  9.83527821E-03  7.99821275E-03
 SEAICE_LSR (ipass=   2) iters,dU,Resid=    34  7.84066847E-05  4.81409331E-03
 SEAICE_LSR (ipass=   2) iters,dV,Resid=    34  9.85411854E-05  2.44530295E-03
 cg2d: Sum(rhs),rhsMax =   7.77138421064095E+01  7.16375795415820E+00
 Computing Diagnostic #    289  SIqIce       Counter:       1   Parms: SM      MX      
 Computing Diagnostic #    297  SI_dQIce     Counter:       1   Parms: SM      MX      
 Computing Diagnostic #    290  SIqSnow      Counter:       1   Parms: SM      MX      
 Computing Diagnostic #    298  SI_dQSnw     Counter:       1   Parms: SM      MX      
 cg2d: Sum(rhs),rhsMax =   7.76732817851718E+01  7.16240020813109E+00
 cg2d: Sum(rhs),rhsMax =   7.76254320892405E+01  7.16079402652348E+00
 cg2d: Sum(rhs),rhsMax =   7.75740084042079E+01  7.15898078651137E+00
 Computing Diagnostic #     86  oceQnet      Counter:       4   Parms: SM      U1      
 Computing Diagnostic #     87  oceQsw       Counter:       4   Parms: SM      U1      
 Computing Diagnostic #     84  oceFWflx     Counter:       4   Parms: SM      U1      
 Computing Diagnostic #     85  oceSflux     Counter:       4   Parms: SM      U1      
 Computing Diagnostic #     80  oceTAUX      Counter:       4   Parms: UU      U1      
           Vector  Mate for  oceTAUX      Diagnostic #     81  oceTAUY  exists 
 Computing Diagnostic #     81  oceTAUY      Counter:       4   Parms: VV      U1      
           Vector  Mate for  oceTAUY      Diagnostic #     80  oceTAUX  exists 
 Computing Diagnostic #     26  THETA        Counter:       4   Parms: SMR     MR      
 Computing Diagnostic #     27  SALT         Counter:       4   Parms: SMR     MR      
 Computing Diagnostic #     30  UVEL         Counter:       4   Parms: UUR     MR      
           Vector  Mate for  UVEL         Diagnostic #     31  VVEL     exists 
 Computing Diagnostic #     31  VVEL         Counter:       4   Parms: VVR     MR      
           Vector  Mate for  VVEL         Diagnostic #     30  UVEL     exists 
 Computing Diagnostic #    214  SIarea       Counter:       4   Parms: SM      M1      
 Computing Diagnostic #    217  SIheff       Counter:       4   Parms: SM      M1      
 Computing Diagnostic #    219  SIhsnow      Counter:       4   Parms: SM      M1      
 Computing Diagnostic #     83  sIceLoad     Counter:       4   Parms: SM      U1      
 Computing Diagnostic #    223  SIuice       Counter:       4   Parms: UU      M1      
           Vector  Mate for  SIuice       Diagnostic #    224  SIvice   exists 
 Computing Diagnostic #    224  SIvice       Counter:       4   Parms: VV      M1      
           Vector  Mate for  SIvice       Diagnostic #    223  SIuice   exists 
 Computing Diagnostic #    225  SItaux       Counter:       4   Parms: UU      U1      
           Vector  Mate for  SItaux       Diagnostic #    226  SItauy   exists 
 Computing Diagnostic #    226  SItauy       Counter:       4   Parms: VV      U1      
           Vector  Mate for  SItauy       Diagnostic #    225  SItaux   exists 
 Computing Diagnostic #    285  SIareaN      Counter:       4   Parms: SM      MX      
 Computing Diagnostic #    284  SIheffN      Counter:       4   Parms: SM      MX      
 Computing Diagnostic #    286  SIhsnowN     Counter:       4   Parms: SM      MX      
 Computing Diagnostic #    290  SIqSnow      Counter:       4   Parms: SM      MX      
 Computing Diagnostic #    291  SImeltPd     Counter:       4   Parms: SM      MX      
 Computing Diagnostic #    288  SItIces      Counter:       4   Parms: SM      MX      
 Computing Diagnostic #    292  SIiceAge     Counter:       4   Parms: SM      MX      
 Computing Diagnostic #    293  SI_dArea     Counter:       4   Parms: SM      MX      
 Computing Diagnostic #    294  SI_dHeff     Counter:       4   Parms: SM      MX      
 Computing Diagnostic #    295  SI_dHsnw     Counter:       4   Parms: SM      MX      
 Computing Diagnostic #    298  SI_dQSnw     Counter:       4   Parms: SM      MX      
 Compute Stats, Diag. #    214  SIarea    vol(   0 ): 1.432E+15  Parms: SM      M1      
 Compute Stats, Diag. #    217  SIheff    vol(   0 ): 1.432E+15  Parms: SM      M1      
 Compute Stats, Diag. #    219  SIhsnow   vol(   0 ): 1.432E+15  Parms: SM      M1      
 Compute Stats, Diag. #     83  sIceLoad  vol(   0 ): 1.432E+15  Parms: SM      U1      
 Compute Stats, Diag. #    223  SIuice    vol(   0 ): 1.405E+15  Parms: UU      M1      
 Compute Stats, Diag. #    224  SIvice    vol(   0 ): 1.403E+15  Parms: VV      M1      
 Compute Stats, Diag. #    225  SItaux    vol(   0 ): 1.405E+15  Parms: UU      U1      
 Compute Stats, Diag. #    226  SItauy    vol(   0 ): 1.403E+15  Parms: VV      U1      
 Compute Stats, Diag. #    285  SIareaN   vol(   0 ): 7.160E+15  Parms: SM      MX      
 Compute Stats, Diag. #    284  SIheffN   vol(   0 ): 7.160E+15  Parms: SM      MX      
 Compute Stats, Diag. #    286  SIhsnowN  vol(   0 ): 7.160E+15  Parms: SM      MX      
 Compute Stats, Diag. #    290  SIqSnow   vol(   0 ): 7.160E+15  Parms: SM      MX      
 Compute Stats, Diag. #    289  SIqIce    vol(   0 ): 2.864E+16  Parms: SM      MX      
 Compute Stats, Diag. #    291  SImeltPd  vol(   0 ): 7.160E+15  Parms: SM      MX      
 Compute Stats, Diag. #    288  SItIces   vol(   0 ): 7.160E+15  Parms: SM      MX      
 Compute Stats, Diag. #    292  SIiceAge  vol(   0 ): 7.160E+15  Parms: SM      MX      
 Compute Stats, Diag. #    293  SI_dArea  vol(   0 ): 7.160E+15  Parms: SM      MX      
 Compute Stats, Diag. #    294  SI_dHeff  vol(   0 ): 7.160E+15  Parms: SM      MX      
 Compute Stats, Diag. #    295  SI_dHsnw  vol(   0 ): 7.160E+15  Parms: SM      MX      
 Compute Stats, Diag. #    298  SI_dQSnw  vol(   0 ): 7.160E+15  Parms: SM      MX      
 Compute Stats, Diag. #    297  SI_dQIce  vol(   0 ): 2.864E+16  Parms: SM      MX      
 cg2d: Sum(rhs),rhsMax =   7.75085052947433E+01  7.15691911280583E+00
 Computing Diagnostic #    289  SIqIce       Counter:       1   Parms: SM      MX      
 Computing Diagnostic #    297  SI_dQIce     Counter:       1   Parms: SM      MX      
 Computing Diagnostic #    290  SIqSnow      Counter:       1   Parms: SM      MX      
 Computing Diagnostic #    298  SI_dQSnw     Counter:       1   Parms: SM      MX      
 cg2d: Sum(rhs),rhsMax =   7.74416657010517E+01  7.15457686700698E+00
 cg2d: Sum(rhs),rhsMax =   7.73695758898332E+01  7.15204396169367E+00
 cg2d: Sum(rhs),rhsMax =   7.72925442316436E+01  7.14934603649468E+00
(PID.TID 0000.0001)      cg2d_init_res =   1.19291623664140E+00
(PID.TID 0000.0001)      cg2d_iters(min,last) =      -1      36
(PID.TID 0000.0001)      cg2d_last_res =   2.06577580377092E-05
(PID.TID 0000.0001) // =======================================================
(PID.TID 0000.0001) // Begin MONITOR dynamic field statistics
(PID.TID 0000.0001) // =======================================================
(PID.TID 0000.0001) %MON time_tsnumber                =                    72
(PID.TID 0000.0001) %MON time_secondsf                =   6.4800000000000E+04
(PID.TID 0000.0001) %MON dynstat_eta_max              =   9.6470658192834E+00
(PID.TID 0000.0001) %MON dynstat_eta_min              =  -4.7286800663431E+00
(PID.TID 0000.0001) %MON dynstat_eta_mean             =  -2.4450100300540E-03
(PID.TID 0000.0001) %MON dynstat_eta_sd               =   9.1560473896698E-01
(PID.TID 0000.0001) %MON dynstat_eta_del2             =   3.6694681209573E-03
(PID.TID 0000.0001) %MON dynstat_uvel_max             =   5.9916769710350E-01
(PID.TID 0000.0001) %MON dynstat_uvel_min             =  -5.8390317631371E-01
(PID.TID 0000.0001) %MON dynstat_uvel_mean            =   1.8395846380207E-03
(PID.TID 0000.0001) %MON dynstat_uvel_sd              =   2.1484334464416E-02
(PID.TID 0000.0001) %MON dynstat_uvel_del2            =   1.1623330503106E-05
(PID.TID 0000.0001) %MON dynstat_vvel_max             =   6.9504216139370E-01
(PID.TID 0000.0001) %MON dynstat_vvel_min             =  -9.1979688771118E-01
(PID.TID 0000.0001) %MON dynstat_vvel_mean            =   8.2220815467206E-04
(PID.TID 0000.0001) %MON dynstat_vvel_sd              =   2.3130778577547E-02
(PID.TID 0000.0001) %MON dynstat_vvel_del2            =   1.2004041815842E-05
(PID.TID 0000.0001) %MON dynstat_wvel_max             =   1.5009341178355E-03
(PID.TID 0000.0001) %MON dynstat_wvel_min             =  -2.3918959715441E-03
(PID.TID 0000.0001) %MON dynstat_wvel_mean            =  -6.1502381462986E-08
(PID.TID 0000.0001) %MON dynstat_wvel_sd              =   3.0692334696564E-05
(PID.TID 0000.0001) %MON dynstat_wvel_del2            =   4.1548210116978E-08
(PID.TID 0000.0001) %MON dynstat_theta_max            =   3.2542180186876E+01
(PID.TID 0000.0001) %MON dynstat_theta_min            =  -2.0401233019084E+00
(PID.TID 0000.0001) %MON dynstat_theta_mean           =   3.5905083071519E+00
(PID.TID 0000.0001) %MON dynstat_theta_sd             =   4.4362112263624E+00
(PID.TID 0000.0001) %MON dynstat_theta_del2           =   1.0491248290239E-04
(PID.TID 0000.0001) %MON dynstat_salt_max             =   4.0711393132825E+01
(PID.TID 0000.0001) %MON dynstat_salt_min             =   1.8919110343498E+01
(PID.TID 0000.0001) %MON dynstat_salt_mean            =   3.4725623096217E+01
(PID.TID 0000.0001) %MON dynstat_salt_sd              =   3.7712628474305E-01
(PID.TID 0000.0001) %MON dynstat_salt_del2            =   2.8536958095740E-05
(PID.TID 0000.0001) %MON dynstat_sst_max              =   3.2520189256783E+01
(PID.TID 0000.0001) %MON dynstat_sst_min              =  -1.8959332052804E+00
(PID.TID 0000.0001) %MON dynstat_sst_mean             =   1.8479108887476E+01
(PID.TID 0000.0001) %MON dynstat_sst_sd               =   1.0106838611301E+01
(PID.TID 0000.0001) %MON dynstat_sst_del2             =   8.3262658029836E-04
(PID.TID 0000.0001) %MON dynstat_sss_max              =   3.9424340556102E+01
(PID.TID 0000.0001) %MON dynstat_sss_min              =   1.8919110343498E+01
(PID.TID 0000.0001) %MON dynstat_sss_mean             =   3.4686082561541E+01
(PID.TID 0000.0001) %MON dynstat_sss_sd               =   1.1255963445375E+00
(PID.TID 0000.0001) %MON dynstat_sss_del2             =   6.4887855472560E-04
(PID.TID 0000.0001) %MON forcing_qnet_max             =   8.9189353600860E+02
(PID.TID 0000.0001) %MON forcing_qnet_min             =  -1.0952363281250E+03
(PID.TID 0000.0001) %MON forcing_qnet_mean            =   1.2908891446300E+01
(PID.TID 0000.0001) %MON forcing_qnet_sd              =   2.0485630273683E+02
(PID.TID 0000.0001) %MON forcing_qnet_del2            =   3.5394992804798E-01
(PID.TID 0000.0001) %MON forcing_qsw_max              =   0.0000000000000E+00
(PID.TID 0000.0001) %MON forcing_qsw_min              =  -1.0972021303740E+02
(PID.TID 0000.0001) %MON forcing_qsw_mean             =  -1.7128694888261E+01
(PID.TID 0000.0001) %MON forcing_qsw_sd               =   2.9009571271139E+01
(PID.TID 0000.0001) %MON forcing_qsw_del2             =   2.1513869883928E-02
(PID.TID 0000.0001) %MON forcing_empmr_max            =   1.7734103603289E-03
(PID.TID 0000.0001) %MON forcing_empmr_min            =  -9.7400166094303E-02
(PID.TID 0000.0001) %MON forcing_empmr_mean           =  -2.7860259278517E-06
(PID.TID 0000.0001) %MON forcing_empmr_sd             =   3.9161611330119E-04
(PID.TID 0000.0001) %MON forcing_empmr_del2           =   4.1874406525468E-06
(PID.TID 0000.0001) %MON forcing_fu_max               =   9.8101335254936E-01
(PID.TID 0000.0001) %MON forcing_fu_min               =  -7.0410981342324E-01
(PID.TID 0000.0001) %MON forcing_fu_mean              =   1.0113280601084E-02
(PID.TID 0000.0001) %MON forcing_fu_sd                =   1.0504736000323E-01
(PID.TID 0000.0001) %MON forcing_fu_del2              =   1.4153762509705E-04
(PID.TID 0000.0001) %MON forcing_fv_max               =   9.2455362631230E-01
(PID.TID 0000.0001) %MON forcing_fv_min               =  -7.5197090625448E-01
(PID.TID 0000.0001) %MON forcing_fv_mean              =  -7.7050343695491E-03
(PID.TID 0000.0001) %MON forcing_fv_sd                =   1.0300260229448E-01
(PID.TID 0000.0001) %MON forcing_fv_del2              =   1.2060281162602E-04
(PID.TID 0000.0001) %MON trAdv_CFL_u_max              =   1.2314906397649E-02
(PID.TID 0000.0001) %MON trAdv_CFL_v_max              =   1.2339735332937E-02
(PID.TID 0000.0001) %MON trAdv_CFL_w_max              =   5.3748949771602E-02
(PID.TID 0000.0001) %MON advcfl_uvel_max              =   9.0210022590581E-03
(PID.TID 0000.0001) %MON advcfl_vvel_max              =   9.2472905210040E-03
(PID.TID 0000.0001) %MON advcfl_wvel_max              =   5.1095967593692E-02
(PID.TID 0000.0001) %MON advcfl_W_hf_max              =   5.3642409426336E-02
(PID.TID 0000.0001) %MON pe_b_mean                    =   3.2903904426728E-06
(PID.TID 0000.0001) %MON ke_max                       =   4.2842753031777E-01
(PID.TID 0000.0001) %MON ke_mean                      =   4.8251429989497E-04
(PID.TID 0000.0001) %MON ke_vol                       =   1.3349970007194E+18
(PID.TID 0000.0001) %MON vort_r_min                   =  -1.6125039703090E-05
(PID.TID 0000.0001) %MON vort_r_max                   =   1.7347505734484E-05
(PID.TID 0000.0001) %MON vort_a_mean                  =  -1.9727864647440E-05
(PID.TID 0000.0001) %MON vort_a_sd                    =   7.4543046584782E-05
(PID.TID 0000.0001) %MON vort_p_mean                  =  -2.1760725388358E-05
(PID.TID 0000.0001) %MON vort_p_sd                    =   9.7250041268478E-05
(PID.TID 0000.0001) %MON surfExpan_theta_mean         =   2.0935382321615E-06
(PID.TID 0000.0001) %MON surfExpan_salt_mean          =  -8.1421083087006E-08
(PID.TID 0000.0001) // =======================================================
(PID.TID 0000.0001) // End MONITOR dynamic field statistics
(PID.TID 0000.0001) // =======================================================
(PID.TID 0000.0001) // =======================================================
(PID.TID 0000.0001) // Begin MONITOR SEAICE statistics
(PID.TID 0000.0001) // =======================================================
(PID.TID 0000.0001) %MON seaice_tsnumber              =                    72
(PID.TID 0000.0001) %MON seaice_time_sec              =   6.4800000000000E+04
(PID.TID 0000.0001) %MON seaice_uice_max              =   6.2668783975557E-01
(PID.TID 0000.0001) %MON seaice_uice_min              =  -6.0322260794185E-01
(PID.TID 0000.0001) %MON seaice_uice_mean             =  -3.4174579929315E-04
(PID.TID 0000.0001) %MON seaice_uice_sd               =   1.4464263329074E-01
(PID.TID 0000.0001) %MON seaice_uice_del2             =   2.0387425674729E-04
(PID.TID 0000.0001) %MON seaice_vice_max              =   5.3887242760699E-01
(PID.TID 0000.0001) %MON seaice_vice_min              =  -9.2044374887579E-01
(PID.TID 0000.0001) %MON seaice_vice_mean             =  -1.9762492454118E-02
(PID.TID 0000.0001) %MON seaice_vice_sd               =   1.3262054764572E-01
(PID.TID 0000.0001) %MON seaice_vice_del2             =   1.7340792706833E-04
(PID.TID 0000.0001) %MON seaice_area_max              =   1.0000000000000E+00
(PID.TID 0000.0001) %MON seaice_area_min              =   0.0000000000000E+00
(PID.TID 0000.0001) %MON seaice_area_mean             =   7.0951455235776E-02
(PID.TID 0000.0001) %MON seaice_area_sd               =   2.3652502523804E-01
(PID.TID 0000.0001) %MON seaice_area_del2             =   3.6513613762940E-04
(PID.TID 0000.0001) %MON seaice_heff_max              =   2.5430912945815E+01
(PID.TID 0000.0001) %MON seaice_heff_min              =   0.0000000000000E+00
(PID.TID 0000.0001) %MON seaice_heff_mean             =   2.1689479365464E-01
(PID.TID 0000.0001) %MON seaice_heff_sd               =   1.0625733153273E+00
(PID.TID 0000.0001) %MON seaice_heff_del2             =   3.0672552486012E-03
(PID.TID 0000.0001) %MON seaice_hsnow_max             =   8.3994801983928E+00
(PID.TID 0000.0001) %MON seaice_hsnow_min             =   0.0000000000000E+00
(PID.TID 0000.0001) %MON seaice_hsnow_mean            =   2.4574964499160E-02
(PID.TID 0000.0001) %MON seaice_hsnow_sd              =   1.5243353048270E-01
(PID.TID 0000.0001) %MON seaice_hsnow_del2            =   9.6957528403427E-04
(PID.TID 0000.0001) // =======================================================
(PID.TID 0000.0001) // End MONITOR SEAICE statistics
(PID.TID 0000.0001) // =======================================================
 Computing Diagnostic #     86  oceQnet      Counter:       4   Parms: SM      U1      
 Computing Diagnostic #     87  oceQsw       Counter:       4   Parms: SM      U1      
 Computing Diagnostic #     84  oceFWflx     Counter:       4   Parms: SM      U1      
 Computing Diagnostic #     85  oceSflux     Counter:       4   Parms: SM      U1      
 Computing Diagnostic #     80  oceTAUX      Counter:       4   Parms: UU      U1      
           Vector  Mate for  oceTAUX      Diagnostic #     81  oceTAUY  exists 
 Computing Diagnostic #     81  oceTAUY      Counter:       4   Parms: VV      U1      
           Vector  Mate for  oceTAUY      Diagnostic #     80  oceTAUX  exists 
 Computing Diagnostic #     26  THETA        Counter:       4   Parms: SMR     MR      
 Computing Diagnostic #     27  SALT         Counter:       4   Parms: SMR     MR      
 Computing Diagnostic #     30  UVEL         Counter:       4   Parms: UUR     MR      
           Vector  Mate for  UVEL         Diagnostic #     31  VVEL     exists 
 Computing Diagnostic #     31  VVEL         Counter:       4   Parms: VVR     MR      
           Vector  Mate for  VVEL         Diagnostic #     30  UVEL     exists 
 Computing Diagnostic #    214  SIarea       Counter:       4   Parms: SM      M1      
 Computing Diagnostic #    217  SIheff       Counter:       4   Parms: SM      M1      
 Computing Diagnostic #    219  SIhsnow      Counter:       4   Parms: SM      M1      
 Computing Diagnostic #     83  sIceLoad     Counter:       4   Parms: SM      U1      
 Computing Diagnostic #    223  SIuice       Counter:       4   Parms: UU      M1      
           Vector  Mate for  SIuice       Diagnostic #    224  SIvice   exists 
 Computing Diagnostic #    224  SIvice       Counter:       4   Parms: VV      M1      
           Vector  Mate for  SIvice       Diagnostic #    223  SIuice   exists 
 Computing Diagnostic #    225  SItaux       Counter:       4   Parms: UU      U1      
           Vector  Mate for  SItaux       Diagnostic #    226  SItauy   exists 
 Computing Diagnostic #    226  SItauy       Counter:       4   Parms: VV      U1      
           Vector  Mate for  SItauy       Diagnostic #    225  SItaux   exists 
 Computing Diagnostic #    285  SIareaN      Counter:       4   Parms: SM      MX      
 Computing Diagnostic #    284  SIheffN      Counter:       4   Parms: SM      MX      
 Computing Diagnostic #    286  SIhsnowN     Counter:       4   Parms: SM      MX      
 Computing Diagnostic #    290  SIqSnow      Counter:       4   Parms: SM      MX      
 Computing Diagnostic #    291  SImeltPd     Counter:       4   Parms: SM      MX      
 Computing Diagnostic #    288  SItIces      Counter:       4   Parms: SM      MX      
 Computing Diagnostic #    292  SIiceAge     Counter:       4   Parms: SM      MX      
 Computing Diagnostic #    293  SI_dArea     Counter:       4   Parms: SM      MX      
 Computing Diagnostic #    294  SI_dHeff     Counter:       4   Parms: SM      MX      
 Computing Diagnostic #    295  SI_dHsnw     Counter:       4   Parms: SM      MX      
 Computing Diagnostic #    298  SI_dQSnw     Counter:       4   Parms: SM      MX      
 Compute Stats, Diag. #    214  SIarea    vol(   0 ): 1.432E+15  Parms: SM      M1      
 Compute Stats, Diag. #    217  SIheff    vol(   0 ): 1.432E+15  Parms: SM      M1      
 Compute Stats, Diag. #    219  SIhsnow   vol(   0 ): 1.432E+15  Parms: SM      M1      
 Compute Stats, Diag. #     83  sIceLoad  vol(   0 ): 1.432E+15  Parms: SM      U1      
 Compute Stats, Diag. #    223  SIuice    vol(   0 ): 1.405E+15  Parms: UU      M1      
 Compute Stats, Diag. #    224  SIvice    vol(   0 ): 1.403E+15  Parms: VV      M1      
 Compute Stats, Diag. #    225  SItaux    vol(   0 ): 1.405E+15  Parms: UU      U1      
 Compute Stats, Diag. #    226  SItauy    vol(   0 ): 1.403E+15  Parms: VV      U1      
 Compute Stats, Diag. #    285  SIareaN   vol(   0 ): 7.160E+15  Parms: SM      MX      
 Compute Stats, Diag. #    284  SIheffN   vol(   0 ): 7.160E+15  Parms: SM      MX      
 Compute Stats, Diag. #    286  SIhsnowN  vol(   0 ): 7.160E+15  Parms: SM      MX      
 Compute Stats, Diag. #    290  SIqSnow   vol(   0 ): 7.160E+15  Parms: SM      MX      
 Compute Stats, Diag. #    289  SIqIce    vol(   0 ): 2.864E+16  Parms: SM      MX      
 Compute Stats, Diag. #    291  SImeltPd  vol(   0 ): 7.160E+15  Parms: SM      MX      
 Compute Stats, Diag. #    288  SItIces   vol(   0 ): 7.160E+15  Parms: SM      MX      
 Compute Stats, Diag. #    292  SIiceAge  vol(   0 ): 7.160E+15  Parms: SM      MX      
 Compute Stats, Diag. #    293  SI_dArea  vol(   0 ): 7.160E+15  Parms: SM      MX      
 Compute Stats, Diag. #    294  SI_dHeff  vol(   0 ): 7.160E+15  Parms: SM      MX      
 Compute Stats, Diag. #    295  SI_dHsnw  vol(   0 ): 7.160E+15  Parms: SM      MX      
 Compute Stats, Diag. #    298  SI_dQSnw  vol(   0 ): 7.160E+15  Parms: SM      MX      
 Compute Stats, Diag. #    297  SI_dQIce  vol(   0 ): 2.864E+16  Parms: SM      MX      
 SEAICE_LSR: Residual Initial ipass,Uice,Vice=    1  1.02082246E-02  8.90934161E-03
 SEAICE_LSR (ipass=   1) iters,dU,Resid=    36  6.98588805E-05  4.26640632E-03
 SEAICE_LSR (ipass=   1) iters,dV,Resid=    36  9.37644674E-05  1.85552051E-03
 SEAICE_LSR: Residual Initial ipass,Uice,Vice=    2  9.04738622E-03  8.11000927E-03
 SEAICE_LSR (ipass=   2) iters,dU,Resid=    22  5.82728249E-05  4.40280351E-03
 SEAICE_LSR (ipass=   2) iters,dV,Resid=    22  9.99924172E-05  2.07303877E-03
 cg2d: Sum(rhs),rhsMax =   7.72032223099542E+01  7.14649696727368E+00
 Computing Diagnostic #    289  SIqIce       Counter:       1   Parms: SM      MX      
 Computing Diagnostic #    297  SI_dQIce     Counter:       1   Parms: SM      MX      
 Computing Diagnostic #    290  SIqSnow      Counter:       1   Parms: SM      MX      
 Computing Diagnostic #    298  SI_dQSnw     Counter:       1   Parms: SM      MX      
 cg2d: Sum(rhs),rhsMax =   7.71091771641200E+01  7.14364289067970E+00
 cg2d: Sum(rhs),rhsMax =   7.70143952455301E+01  7.14089524281313E+00
 cg2d: Sum(rhs),rhsMax =   7.69164163800834E+01  7.13828146783001E+00
 Computing Diagnostic #     86  oceQnet      Counter:       4   Parms: SM      U1      
 Computing Diagnostic #     87  oceQsw       Counter:       4   Parms: SM      U1      
 Computing Diagnostic #     84  oceFWflx     Counter:       4   Parms: SM      U1      
 Computing Diagnostic #     85  oceSflux     Counter:       4   Parms: SM      U1      
 Computing Diagnostic #     80  oceTAUX      Counter:       4   Parms: UU      U1      
           Vector  Mate for  oceTAUX      Diagnostic #     81  oceTAUY  exists 
 Computing Diagnostic #     81  oceTAUY      Counter:       4   Parms: VV      U1      
           Vector  Mate for  oceTAUY      Diagnostic #     80  oceTAUX  exists 
 Computing Diagnostic #     26  THETA        Counter:       4   Parms: SMR     MR      
 Computing Diagnostic #     27  SALT         Counter:       4   Parms: SMR     MR      
 Computing Diagnostic #     30  UVEL         Counter:       4   Parms: UUR     MR      
           Vector  Mate for  UVEL         Diagnostic #     31  VVEL     exists 
 Computing Diagnostic #     31  VVEL         Counter:       4   Parms: VVR     MR      
           Vector  Mate for  VVEL         Diagnostic #     30  UVEL     exists 
 Computing Diagnostic #    214  SIarea       Counter:       4   Parms: SM      M1      
 Computing Diagnostic #    217  SIheff       Counter:       4   Parms: SM      M1      
 Computing Diagnostic #    219  SIhsnow      Counter:       4   Parms: SM      M1      
 Computing Diagnostic #     83  sIceLoad     Counter:       4   Parms: SM      U1      
 Computing Diagnostic #    223  SIuice       Counter:       4   Parms: UU      M1      
           Vector  Mate for  SIuice       Diagnostic #    224  SIvice   exists 
 Computing Diagnostic #    224  SIvice       Counter:       4   Parms: VV      M1      
           Vector  Mate for  SIvice       Diagnostic #    223  SIuice   exists 
 Computing Diagnostic #    225  SItaux       Counter:       4   Parms: UU      U1      
           Vector  Mate for  SItaux       Diagnostic #    226  SItauy   exists 
 Computing Diagnostic #    226  SItauy       Counter:       4   Parms: VV      U1      
           Vector  Mate for  SItauy       Diagnostic #    225  SItaux   exists 
 Computing Diagnostic #    285  SIareaN      Counter:       4   Parms: SM      MX      
 Computing Diagnostic #    284  SIheffN      Counter:       4   Parms: SM      MX      
 Computing Diagnostic #    286  SIhsnowN     Counter:       4   Parms: SM      MX      
 Computing Diagnostic #    290  SIqSnow      Counter:       4   Parms: SM      MX      
 Computing Diagnostic #    291  SImeltPd     Counter:       4   Parms: SM      MX      
 Computing Diagnostic #    288  SItIces      Counter:       4   Parms: SM      MX      
 Computing Diagnostic #    292  SIiceAge     Counter:       4   Parms: SM      MX      
 Computing Diagnostic #    293  SI_dArea     Counter:       4   Parms: SM      MX      
 Computing Diagnostic #    294  SI_dHeff     Counter:       4   Parms: SM      MX      
 Computing Diagnostic #    295  SI_dHsnw     Counter:       4   Parms: SM      MX      
 Computing Diagnostic #    298  SI_dQSnw     Counter:       4   Parms: SM      MX      
 Compute Stats, Diag. #    214  SIarea    vol(   0 ): 1.432E+15  Parms: SM      M1      
 Compute Stats, Diag. #    217  SIheff    vol(   0 ): 1.432E+15  Parms: SM      M1      
 Compute Stats, Diag. #    219  SIhsnow   vol(   0 ): 1.432E+15  Parms: SM      M1      
 Compute Stats, Diag. #     83  sIceLoad  vol(   0 ): 1.432E+15  Parms: SM      U1      
 Compute Stats, Diag. #    223  SIuice    vol(   0 ): 1.405E+15  Parms: UU      M1      
 Compute Stats, Diag. #    224  SIvice    vol(   0 ): 1.403E+15  Parms: VV      M1      
 Compute Stats, Diag. #    225  SItaux    vol(   0 ): 1.405E+15  Parms: UU      U1      
 Compute Stats, Diag. #    226  SItauy    vol(   0 ): 1.403E+15  Parms: VV      U1      
 Compute Stats, Diag. #    285  SIareaN   vol(   0 ): 7.160E+15  Parms: SM      MX      
 Compute Stats, Diag. #    284  SIheffN   vol(   0 ): 7.160E+15  Parms: SM      MX      
 Compute Stats, Diag. #    286  SIhsnowN  vol(   0 ): 7.160E+15  Parms: SM      MX      
 Compute Stats, Diag. #    290  SIqSnow   vol(   0 ): 7.160E+15  Parms: SM      MX      
 Compute Stats, Diag. #    289  SIqIce    vol(   0 ): 2.864E+16  Parms: SM      MX      
 Compute Stats, Diag. #    291  SImeltPd  vol(   0 ): 7.160E+15  Parms: SM      MX      
 Compute Stats, Diag. #    288  SItIces   vol(   0 ): 7.160E+15  Parms: SM      MX      
 Compute Stats, Diag. #    292  SIiceAge  vol(   0 ): 7.160E+15  Parms: SM      MX      
 Compute Stats, Diag. #    293  SI_dArea  vol(   0 ): 7.160E+15  Parms: SM      MX      
 Compute Stats, Diag. #    294  SI_dHeff  vol(   0 ): 7.160E+15  Parms: SM      MX      
 Compute Stats, Diag. #    295  SI_dHsnw  vol(   0 ): 7.160E+15  Parms: SM      MX      
 Compute Stats, Diag. #    298  SI_dQSnw  vol(   0 ): 7.160E+15  Parms: SM      MX      
 Compute Stats, Diag. #    297  SI_dQIce  vol(   0 ): 2.864E+16  Parms: SM      MX      
 cg2d: Sum(rhs),rhsMax =   7.68132443762934E+01  7.13589468976692E+00
 Computing Diagnostic #    289  SIqIce       Counter:       1   Parms: SM      MX      
 Computing Diagnostic #    297  SI_dQIce     Counter:       1   Parms: SM      MX      
 Computing Diagnostic #    290  SIqSnow      Counter:       1   Parms: SM      MX      
 Computing Diagnostic #    298  SI_dQSnw     Counter:       1   Parms: SM      MX      
 cg2d: Sum(rhs),rhsMax =   7.66982984359440E+01  7.13384968029185E+00
 cg2d: Sum(rhs),rhsMax =   7.65844288062136E+01  7.13214963718347E+00
 cg2d: Sum(rhs),rhsMax =   7.64612715213086E+01  7.13075415340936E+00
(PID.TID 0000.0001)      cg2d_init_res =   1.13694923645746E+00
(PID.TID 0000.0001)      cg2d_iters(min,last) =      -1      36
(PID.TID 0000.0001)      cg2d_last_res =   2.19936877112199E-05
(PID.TID 0000.0001) // =======================================================
(PID.TID 0000.0001) // Begin MONITOR dynamic field statistics
(PID.TID 0000.0001) // =======================================================
(PID.TID 0000.0001) %MON time_tsnumber                =                    80
(PID.TID 0000.0001) %MON time_secondsf                =   7.2000000000000E+04
(PID.TID 0000.0001) %MON dynstat_eta_max              =   9.5962792059087E+00
(PID.TID 0000.0001) %MON dynstat_eta_min              =  -4.6148869832644E+00
(PID.TID 0000.0001) %MON dynstat_eta_mean             =  -2.4187142193172E-03
(PID.TID 0000.0001) %MON dynstat_eta_sd               =   9.1566494728148E-01
(PID.TID 0000.0001) %MON dynstat_eta_del2             =   3.6674037995319E-03
(PID.TID 0000.0001) %MON dynstat_uvel_max             =   6.1471094837775E-01
(PID.TID 0000.0001) %MON dynstat_uvel_min             =  -6.0962662699473E-01
(PID.TID 0000.0001) %MON dynstat_uvel_mean            =   1.3188533083379E-03
(PID.TID 0000.0001) %MON dynstat_uvel_sd              =   2.1250312594498E-02
(PID.TID 0000.0001) %MON dynstat_uvel_del2            =   1.1190409564982E-05
(PID.TID 0000.0001) %MON dynstat_vvel_max             =   6.7445148459850E-01
(PID.TID 0000.0001) %MON dynstat_vvel_min             =  -9.1558846551284E-01
(PID.TID 0000.0001) %MON dynstat_vvel_mean            =   9.0117641005208E-04
(PID.TID 0000.0001) %MON dynstat_vvel_sd              =   2.2905409785549E-02
(PID.TID 0000.0001) %MON dynstat_vvel_del2            =   1.1551140889776E-05
(PID.TID 0000.0001) %MON dynstat_wvel_max             =   1.1094022985300E-03
(PID.TID 0000.0001) %MON dynstat_wvel_min             =  -2.8147667987563E-03
(PID.TID 0000.0001) %MON dynstat_wvel_mean            =  -9.2886127041770E-08
(PID.TID 0000.0001) %MON dynstat_wvel_sd              =   3.0101735727661E-05
(PID.TID 0000.0001) %MON dynstat_wvel_del2            =   3.9148979606080E-08
(PID.TID 0000.0001) %MON dynstat_theta_max            =   3.2528325643532E+01
(PID.TID 0000.0001) %MON dynstat_theta_min            =  -2.0400560275949E+00
(PID.TID 0000.0001) %MON dynstat_theta_mean           =   3.5905054897822E+00
(PID.TID 0000.0001) %MON dynstat_theta_sd             =   4.4362005026580E+00
(PID.TID 0000.0001) %MON dynstat_theta_del2           =   1.0440189567774E-04
(PID.TID 0000.0001) %MON dynstat_salt_max             =   4.0711391138504E+01
(PID.TID 0000.0001) %MON dynstat_salt_min             =   1.8922051131469E+01
(PID.TID 0000.0001) %MON dynstat_salt_mean            =   3.4725618506425E+01
(PID.TID 0000.0001) %MON dynstat_salt_sd              =   3.7710896865185E-01
(PID.TID 0000.0001) %MON dynstat_salt_del2            =   2.8632322411855E-05
(PID.TID 0000.0001) %MON dynstat_sst_max              =   3.2498469086278E+01
(PID.TID 0000.0001) %MON dynstat_sst_min              =  -1.8913056283168E+00
(PID.TID 0000.0001) %MON dynstat_sst_mean             =   1.8481354311278E+01
(PID.TID 0000.0001) %MON dynstat_sst_sd               =   1.0109258413815E+01
(PID.TID 0000.0001) %MON dynstat_sst_del2             =   8.2936264787558E-04
(PID.TID 0000.0001) %MON dynstat_sss_max              =   3.9406871672385E+01
(PID.TID 0000.0001) %MON dynstat_sss_min              =   1.8922051131469E+01
(PID.TID 0000.0001) %MON dynstat_sss_mean             =   3.4686937020663E+01
(PID.TID 0000.0001) %MON dynstat_sss_sd               =   1.1267363235927E+00
(PID.TID 0000.0001) %MON dynstat_sss_del2             =   6.6382409812302E-04
(PID.TID 0000.0001) %MON forcing_qnet_max             =   1.4001904296875E+03
(PID.TID 0000.0001) %MON forcing_qnet_min             =  -8.3517823101176E+02
(PID.TID 0000.0001) %MON forcing_qnet_mean            =   2.9696895089615E+00
(PID.TID 0000.0001) %MON forcing_qnet_sd              =   1.9373496126933E+02
(PID.TID 0000.0001) %MON forcing_qnet_del2            =   3.5470156317580E-01
(PID.TID 0000.0001) %MON forcing_qsw_max              =   0.0000000000000E+00
(PID.TID 0000.0001) %MON forcing_qsw_min              =  -1.0978959579537E+02
(PID.TID 0000.0001) %MON forcing_qsw_mean             =  -1.8659244687850E+01
(PID.TID 0000.0001) %MON forcing_qsw_sd               =   2.8365524096443E+01
(PID.TID 0000.0001) %MON forcing_qsw_del2             =   2.1132003235975E-02
(PID.TID 0000.0001) %MON forcing_empmr_max            =   1.6206868458539E-03
(PID.TID 0000.0001) %MON forcing_empmr_min            =  -1.1801762133837E-01
(PID.TID 0000.0001) %MON forcing_empmr_mean           =  -4.4542646104746E-06
(PID.TID 0000.0001) %MON forcing_empmr_sd             =   4.5955211624223E-04
(PID.TID 0000.0001) %MON forcing_empmr_del2           =   4.8269353425429E-06
(PID.TID 0000.0001) %MON forcing_fu_max               =   9.0829550920489E-01
(PID.TID 0000.0001) %MON forcing_fu_min               =  -7.6791600239858E-01
(PID.TID 0000.0001) %MON forcing_fu_mean              =   9.8072306553315E-03
(PID.TID 0000.0001) %MON forcing_fu_sd                =   1.0333485702359E-01
(PID.TID 0000.0001) %MON forcing_fu_del2              =   1.3789243234821E-04
(PID.TID 0000.0001) %MON forcing_fv_max               =   9.6065771762188E-01
(PID.TID 0000.0001) %MON forcing_fv_min               =  -7.6708197569859E-01
(PID.TID 0000.0001) %MON forcing_fv_mean              =  -8.2709182597424E-03
(PID.TID 0000.0001) %MON forcing_fv_sd                =   1.0222968062609E-01
(PID.TID 0000.0001) %MON forcing_fv_del2              =   1.1822163882273E-04
(PID.TID 0000.0001) %MON trAdv_CFL_u_max              =   1.1315326909900E-02
(PID.TID 0000.0001) %MON trAdv_CFL_v_max              =   1.2646207654737E-02
(PID.TID 0000.0001) %MON trAdv_CFL_w_max              =   5.5442891878499E-02
(PID.TID 0000.0001) %MON advcfl_uvel_max              =   8.9697716918283E-03
(PID.TID 0000.0001) %MON advcfl_vvel_max              =   9.4059051744450E-03
(PID.TID 0000.0001) %MON advcfl_wvel_max              =   5.2116850337013E-02
(PID.TID 0000.0001) %MON advcfl_W_hf_max              =   5.5119877090442E-02
(PID.TID 0000.0001) %MON pe_b_mean                    =   7.9005582475297E-06
(PID.TID 0000.0001) %MON ke_max                       =   4.2573430390666E-01
(PID.TID 0000.0001) %MON ke_mean                      =   4.7196203053914E-04
(PID.TID 0000.0001) %MON ke_vol                       =   1.3349970096113E+18
(PID.TID 0000.0001) %MON vort_r_min                   =  -1.3345872731295E-05
(PID.TID 0000.0001) %MON vort_r_max                   =   1.4664537522692E-05
(PID.TID 0000.0001) %MON vort_a_mean                  =  -1.9727864647440E-05
(PID.TID 0000.0001) %MON vort_a_sd                    =   7.4542965305453E-05
(PID.TID 0000.0001) %MON vort_p_mean                  =  -2.1760724660519E-05
(PID.TID 0000.0001) %MON vort_p_sd                    =   9.7249545622767E-05
(PID.TID 0000.0001) %MON surfExpan_theta_mean         =   1.3388091563634E-06
(PID.TID 0000.0001) %MON surfExpan_salt_mean          =   1.5039889934384E-08
(PID.TID 0000.0001) // =======================================================
(PID.TID 0000.0001) // End MONITOR dynamic field statistics
(PID.TID 0000.0001) // =======================================================
(PID.TID 0000.0001) // =======================================================
(PID.TID 0000.0001) // Begin MONITOR SEAICE statistics
(PID.TID 0000.0001) // =======================================================
(PID.TID 0000.0001) %MON seaice_tsnumber              =                    80
(PID.TID 0000.0001) %MON seaice_time_sec              =   7.2000000000000E+04
(PID.TID 0000.0001) %MON seaice_uice_max              =   6.1390533258221E-01
(PID.TID 0000.0001) %MON seaice_uice_min              =  -6.0620034820005E-01
(PID.TID 0000.0001) %MON seaice_uice_mean             =  -9.1637076743151E-04
(PID.TID 0000.0001) %MON seaice_uice_sd               =   1.4333761444610E-01
(PID.TID 0000.0001) %MON seaice_uice_del2             =   1.9900316089181E-04
(PID.TID 0000.0001) %MON seaice_vice_max              =   5.5092726819263E-01
(PID.TID 0000.0001) %MON seaice_vice_min              =  -9.1603985855516E-01
(PID.TID 0000.0001) %MON seaice_vice_mean             =  -2.1622995217890E-02
(PID.TID 0000.0001) %MON seaice_vice_sd               =   1.3209319122257E-01
(PID.TID 0000.0001) %MON seaice_vice_del2             =   1.6835239801209E-04
(PID.TID 0000.0001) %MON seaice_area_max              =   1.0000000000000E+00
(PID.TID 0000.0001) %MON seaice_area_min              =   0.0000000000000E+00
(PID.TID 0000.0001) %MON seaice_area_mean             =   7.0832663162136E-02
(PID.TID 0000.0001) %MON seaice_area_sd               =   2.3640472804964E-01
(PID.TID 0000.0001) %MON seaice_area_del2             =   3.5855777450442E-04
(PID.TID 0000.0001) %MON seaice_heff_max              =   2.5426995677995E+01
(PID.TID 0000.0001) %MON seaice_heff_min              =   0.0000000000000E+00
(PID.TID 0000.0001) %MON seaice_heff_mean             =   2.1687698658102E-01
(PID.TID 0000.0001) %MON seaice_heff_sd               =   1.0623208084607E+00
(PID.TID 0000.0001) %MON seaice_heff_del2             =   3.0232213567785E-03
(PID.TID 0000.0001) %MON seaice_hsnow_max             =   8.3982232729561E+00
(PID.TID 0000.0001) %MON seaice_hsnow_min             =   0.0000000000000E+00
(PID.TID 0000.0001) %MON seaice_hsnow_mean            =   2.4564795755877E-02
(PID.TID 0000.0001) %MON seaice_hsnow_sd              =   1.5210579895123E-01
(PID.TID 0000.0001) %MON seaice_hsnow_del2            =   9.5485925700590E-04
(PID.TID 0000.0001) // =======================================================
(PID.TID 0000.0001) // End MONITOR SEAICE statistics
(PID.TID 0000.0001) // =======================================================
 Computing Diagnostic #     86  oceQnet      Counter:       4   Parms: SM      U1      
 Computing Diagnostic #     87  oceQsw       Counter:       4   Parms: SM      U1      
 Computing Diagnostic #     84  oceFWflx     Counter:       4   Parms: SM      U1      
 Computing Diagnostic #     85  oceSflux     Counter:       4   Parms: SM      U1      
 Computing Diagnostic #     80  oceTAUX      Counter:       4   Parms: UU      U1      
           Vector  Mate for  oceTAUX      Diagnostic #     81  oceTAUY  exists 
 Computing Diagnostic #     81  oceTAUY      Counter:       4   Parms: VV      U1      
           Vector  Mate for  oceTAUY      Diagnostic #     80  oceTAUX  exists 
 Computing Diagnostic #     26  THETA        Counter:       4   Parms: SMR     MR      
 Computing Diagnostic #     27  SALT         Counter:       4   Parms: SMR     MR      
 Computing Diagnostic #     30  UVEL         Counter:       4   Parms: UUR     MR      
           Vector  Mate for  UVEL         Diagnostic #     31  VVEL     exists 
 Computing Diagnostic #     31  VVEL         Counter:       4   Parms: VVR     MR      
           Vector  Mate for  VVEL         Diagnostic #     30  UVEL     exists 
 Computing Diagnostic #    214  SIarea       Counter:       4   Parms: SM      M1      
 Computing Diagnostic #    217  SIheff       Counter:       4   Parms: SM      M1      
 Computing Diagnostic #    219  SIhsnow      Counter:       4   Parms: SM      M1      
 Computing Diagnostic #     83  sIceLoad     Counter:       4   Parms: SM      U1      
 Computing Diagnostic #    223  SIuice       Counter:       4   Parms: UU      M1      
           Vector  Mate for  SIuice       Diagnostic #    224  SIvice   exists 
 Computing Diagnostic #    224  SIvice       Counter:       4   Parms: VV      M1      
           Vector  Mate for  SIvice       Diagnostic #    223  SIuice   exists 
 Computing Diagnostic #    225  SItaux       Counter:       4   Parms: UU      U1      
           Vector  Mate for  SItaux       Diagnostic #    226  SItauy   exists 
 Computing Diagnostic #    226  SItauy       Counter:       4   Parms: VV      U1      
           Vector  Mate for  SItauy       Diagnostic #    225  SItaux   exists 
 Computing Diagnostic #    285  SIareaN      Counter:       4   Parms: SM      MX      
 Computing Diagnostic #    284  SIheffN      Counter:       4   Parms: SM      MX      
 Computing Diagnostic #    286  SIhsnowN     Counter:       4   Parms: SM      MX      
 Computing Diagnostic #    290  SIqSnow      Counter:       4   Parms: SM      MX      
 Computing Diagnostic #    291  SImeltPd     Counter:       4   Parms: SM      MX      
 Computing Diagnostic #    288  SItIces      Counter:       4   Parms: SM      MX      
 Computing Diagnostic #    292  SIiceAge     Counter:       4   Parms: SM      MX      
 Computing Diagnostic #    293  SI_dArea     Counter:       4   Parms: SM      MX      
 Computing Diagnostic #    294  SI_dHeff     Counter:       4   Parms: SM      MX      
 Computing Diagnostic #    295  SI_dHsnw     Counter:       4   Parms: SM      MX      
 Computing Diagnostic #    298  SI_dQSnw     Counter:       4   Parms: SM      MX      
 Compute Stats, Diag. #    214  SIarea    vol(   0 ): 1.432E+15  Parms: SM      M1      
 Compute Stats, Diag. #    217  SIheff    vol(   0 ): 1.432E+15  Parms: SM      M1      
 Compute Stats, Diag. #    219  SIhsnow   vol(   0 ): 1.432E+15  Parms: SM      M1      
 Compute Stats, Diag. #     83  sIceLoad  vol(   0 ): 1.432E+15  Parms: SM      U1      
 Compute Stats, Diag. #    223  SIuice    vol(   0 ): 1.405E+15  Parms: UU      M1      
 Compute Stats, Diag. #    224  SIvice    vol(   0 ): 1.403E+15  Parms: VV      M1      
 Compute Stats, Diag. #    225  SItaux    vol(   0 ): 1.405E+15  Parms: UU      U1      
 Compute Stats, Diag. #    226  SItauy    vol(   0 ): 1.403E+15  Parms: VV      U1      
 Compute Stats, Diag. #    285  SIareaN   vol(   0 ): 7.160E+15  Parms: SM      MX      
 Compute Stats, Diag. #    284  SIheffN   vol(   0 ): 7.160E+15  Parms: SM      MX      
 Compute Stats, Diag. #    286  SIhsnowN  vol(   0 ): 7.160E+15  Parms: SM      MX      
 Compute Stats, Diag. #    290  SIqSnow   vol(   0 ): 7.160E+15  Parms: SM      MX      
 Compute Stats, Diag. #    289  SIqIce    vol(   0 ): 2.864E+16  Parms: SM      MX      
 Compute Stats, Diag. #    291  SImeltPd  vol(   0 ): 7.160E+15  Parms: SM      MX      
 Compute Stats, Diag. #    288  SItIces   vol(   0 ): 7.160E+15  Parms: SM      MX      
 Compute Stats, Diag. #    292  SIiceAge  vol(   0 ): 7.160E+15  Parms: SM      MX      
 Compute Stats, Diag. #    293  SI_dArea  vol(   0 ): 7.160E+15  Parms: SM      MX      
 Compute Stats, Diag. #    294  SI_dHeff  vol(   0 ): 7.160E+15  Parms: SM      MX      
 Compute Stats, Diag. #    295  SI_dHsnw  vol(   0 ): 7.160E+15  Parms: SM      MX      
 Compute Stats, Diag. #    298  SI_dQSnw  vol(   0 ): 7.160E+15  Parms: SM      MX      
 Compute Stats, Diag. #    297  SI_dQIce  vol(   0 ): 2.864E+16  Parms: SM      MX      
 SEAICE_LSR: Residual Initial ipass,Uice,Vice=    1  9.30229184E-03  8.19398332E-03
 SEAICE_LSR (ipass=   1) iters,dU,Resid=    32  9.39179102E-05  3.89741737E-03
 SEAICE_LSR (ipass=   1) iters,dV,Resid=    32  9.38348507E-05  1.73684896E-03
 SEAICE_LSR: Residual Initial ipass,Uice,Vice=    2  8.27659938E-03  7.30095549E-03
 SEAICE_LSR (ipass=   2) iters,dU,Resid=    22  8.86533088E-05  3.98125307E-03
 SEAICE_LSR (ipass=   2) iters,dV,Resid=    22  9.70929396E-05  1.79836053E-03
 cg2d: Sum(rhs),rhsMax =   7.63487650851143E+01  7.12963475727968E+00
 Computing Diagnostic #    289  SIqIce       Counter:       1   Parms: SM      MX      
 Computing Diagnostic #    297  SI_dQIce     Counter:       1   Parms: SM      MX      
 Computing Diagnostic #    290  SIqSnow      Counter:       1   Parms: SM      MX      
 Computing Diagnostic #    298  SI_dQSnw     Counter:       1   Parms: SM      MX      
 cg2d: Sum(rhs),rhsMax =   7.62455233049150E+01  7.12879043815915E+00
 cg2d: Sum(rhs),rhsMax =   7.61280400235445E+01  7.12828210393161E+00
 cg2d: Sum(rhs),rhsMax =   7.60181466084093E+01  7.12816097290748E+00
 Computing Diagnostic #     86  oceQnet      Counter:       4   Parms: SM      U1      
 Computing Diagnostic #     87  oceQsw       Counter:       4   Parms: SM      U1      
 Computing Diagnostic #     84  oceFWflx     Counter:       4   Parms: SM      U1      
 Computing Diagnostic #     85  oceSflux     Counter:       4   Parms: SM      U1      
 Computing Diagnostic #     80  oceTAUX      Counter:       4   Parms: UU      U1      
           Vector  Mate for  oceTAUX      Diagnostic #     81  oceTAUY  exists 
 Computing Diagnostic #     81  oceTAUY      Counter:       4   Parms: VV      U1      
           Vector  Mate for  oceTAUY      Diagnostic #     80  oceTAUX  exists 
 Computing Diagnostic #     26  THETA        Counter:       4   Parms: SMR     MR      
 Computing Diagnostic #     27  SALT         Counter:       4   Parms: SMR     MR      
 Computing Diagnostic #     30  UVEL         Counter:       4   Parms: UUR     MR      
           Vector  Mate for  UVEL         Diagnostic #     31  VVEL     exists 
 Computing Diagnostic #     31  VVEL         Counter:       4   Parms: VVR     MR      
           Vector  Mate for  VVEL         Diagnostic #     30  UVEL     exists 
 Computing Diagnostic #    214  SIarea       Counter:       4   Parms: SM      M1      
 Computing Diagnostic #    217  SIheff       Counter:       4   Parms: SM      M1      
 Computing Diagnostic #    219  SIhsnow      Counter:       4   Parms: SM      M1      
 Computing Diagnostic #     83  sIceLoad     Counter:       4   Parms: SM      U1      
 Computing Diagnostic #    223  SIuice       Counter:       4   Parms: UU      M1      
           Vector  Mate for  SIuice       Diagnostic #    224  SIvice   exists 
 Computing Diagnostic #    224  SIvice       Counter:       4   Parms: VV      M1      
           Vector  Mate for  SIvice       Diagnostic #    223  SIuice   exists 
 Computing Diagnostic #    225  SItaux       Counter:       4   Parms: UU      U1      
           Vector  Mate for  SItaux       Diagnostic #    226  SItauy   exists 
 Computing Diagnostic #    226  SItauy       Counter:       4   Parms: VV      U1      
           Vector  Mate for  SItauy       Diagnostic #    225  SItaux   exists 
 Computing Diagnostic #    285  SIareaN      Counter:       4   Parms: SM      MX      
 Computing Diagnostic #    284  SIheffN      Counter:       4   Parms: SM      MX      
 Computing Diagnostic #    286  SIhsnowN     Counter:       4   Parms: SM      MX      
 Computing Diagnostic #    290  SIqSnow      Counter:       4   Parms: SM      MX      
 Computing Diagnostic #    291  SImeltPd     Counter:       4   Parms: SM      MX      
 Computing Diagnostic #    288  SItIces      Counter:       4   Parms: SM      MX      
 Computing Diagnostic #    292  SIiceAge     Counter:       4   Parms: SM      MX      
 Computing Diagnostic #    293  SI_dArea     Counter:       4   Parms: SM      MX      
 Computing Diagnostic #    294  SI_dHeff     Counter:       4   Parms: SM      MX      
 Computing Diagnostic #    295  SI_dHsnw     Counter:       4   Parms: SM      MX      
 Computing Diagnostic #    298  SI_dQSnw     Counter:       4   Parms: SM      MX      
 Compute Stats, Diag. #    214  SIarea    vol(   0 ): 1.432E+15  Parms: SM      M1      
 Compute Stats, Diag. #    217  SIheff    vol(   0 ): 1.432E+15  Parms: SM      M1      
 Compute Stats, Diag. #    219  SIhsnow   vol(   0 ): 1.432E+15  Parms: SM      M1      
 Compute Stats, Diag. #     83  sIceLoad  vol(   0 ): 1.432E+15  Parms: SM      U1      
 Compute Stats, Diag. #    223  SIuice    vol(   0 ): 1.405E+15  Parms: UU      M1      
 Compute Stats, Diag. #    224  SIvice    vol(   0 ): 1.403E+15  Parms: VV      M1      
 Compute Stats, Diag. #    225  SItaux    vol(   0 ): 1.405E+15  Parms: UU      U1      
 Compute Stats, Diag. #    226  SItauy    vol(   0 ): 1.403E+15  Parms: VV      U1      
 Compute Stats, Diag. #    285  SIareaN   vol(   0 ): 7.160E+15  Parms: SM      MX      
 Compute Stats, Diag. #    284  SIheffN   vol(   0 ): 7.160E+15  Parms: SM      MX      
 Compute Stats, Diag. #    286  SIhsnowN  vol(   0 ): 7.160E+15  Parms: SM      MX      
 Compute Stats, Diag. #    290  SIqSnow   vol(   0 ): 7.160E+15  Parms: SM      MX      
 Compute Stats, Diag. #    289  SIqIce    vol(   0 ): 2.864E+16  Parms: SM      MX      
 Compute Stats, Diag. #    291  SImeltPd  vol(   0 ): 7.160E+15  Parms: SM      MX      
 Compute Stats, Diag. #    288  SItIces   vol(   0 ): 7.160E+15  Parms: SM      MX      
 Compute Stats, Diag. #    292  SIiceAge  vol(   0 ): 7.160E+15  Parms: SM      MX      
 Compute Stats, Diag. #    293  SI_dArea  vol(   0 ): 7.160E+15  Parms: SM      MX      
 Compute Stats, Diag. #    294  SI_dHeff  vol(   0 ): 7.160E+15  Parms: SM      MX      
 Compute Stats, Diag. #    295  SI_dHsnw  vol(   0 ): 7.160E+15  Parms: SM      MX      
 Compute Stats, Diag. #    298  SI_dQSnw  vol(   0 ): 7.160E+15  Parms: SM      MX      
 Compute Stats, Diag. #    297  SI_dQIce  vol(   0 ): 2.864E+16  Parms: SM      MX      
 cg2d: Sum(rhs),rhsMax =   7.59073826169502E+01  7.12846105725225E+00
 Computing Diagnostic #    289  SIqIce       Counter:       1   Parms: SM      MX      
 Computing Diagnostic #    297  SI_dQIce     Counter:       1   Parms: SM      MX      
 Computing Diagnostic #    290  SIqSnow      Counter:       1   Parms: SM      MX      
 Computing Diagnostic #    298  SI_dQSnw     Counter:       1   Parms: SM      MX      
 cg2d: Sum(rhs),rhsMax =   7.57927332789645E+01  7.12921085943958E+00
 cg2d: Sum(rhs),rhsMax =   7.56788330386655E+01  7.13045902163741E+00
 cg2d: Sum(rhs),rhsMax =   7.55654375648778E+01  7.13220847160967E+00
(PID.TID 0000.0001)      cg2d_init_res =   9.28011796128448E-01
(PID.TID 0000.0001)      cg2d_iters(min,last) =      -1      35
(PID.TID 0000.0001)      cg2d_last_res =   2.21482379713021E-05
(PID.TID 0000.0001) // =======================================================
(PID.TID 0000.0001) // Begin MONITOR dynamic field statistics
(PID.TID 0000.0001) // =======================================================
(PID.TID 0000.0001) %MON time_tsnumber                =                    88
(PID.TID 0000.0001) %MON time_secondsf                =   7.9200000000000E+04
(PID.TID 0000.0001) %MON dynstat_eta_max              =   9.7088074112890E+00
(PID.TID 0000.0001) %MON dynstat_eta_min              =  -4.5279806704086E+00
(PID.TID 0000.0001) %MON dynstat_eta_mean             =  -2.3903761301715E-03
(PID.TID 0000.0001) %MON dynstat_eta_sd               =   9.1613323209066E-01
(PID.TID 0000.0001) %MON dynstat_eta_del2             =   3.6696218573232E-03
(PID.TID 0000.0001) %MON dynstat_uvel_max             =   6.4340058078963E-01
(PID.TID 0000.0001) %MON dynstat_uvel_min             =  -6.3768816632856E-01
(PID.TID 0000.0001) %MON dynstat_uvel_mean            =   9.6490609477341E-04
(PID.TID 0000.0001) %MON dynstat_uvel_sd              =   2.0992045904174E-02
(PID.TID 0000.0001) %MON dynstat_uvel_del2            =   1.0819192102364E-05
(PID.TID 0000.0001) %MON dynstat_vvel_max             =   6.5271356382035E-01
(PID.TID 0000.0001) %MON dynstat_vvel_min             =  -9.1205289462273E-01
(PID.TID 0000.0001) %MON dynstat_vvel_mean            =   9.3574184341308E-04
(PID.TID 0000.0001) %MON dynstat_vvel_sd              =   2.2686263464580E-02
(PID.TID 0000.0001) %MON dynstat_vvel_del2            =   1.1168216931245E-05
(PID.TID 0000.0001) %MON dynstat_wvel_max             =   1.1074281113163E-03
(PID.TID 0000.0001) %MON dynstat_wvel_min             =  -2.4573918127269E-03
(PID.TID 0000.0001) %MON dynstat_wvel_mean            =   2.1304374927988E-09
(PID.TID 0000.0001) %MON dynstat_wvel_sd              =   2.9549088660347E-05
(PID.TID 0000.0001) %MON dynstat_wvel_del2            =   3.6763104012739E-08
(PID.TID 0000.0001) %MON dynstat_theta_max            =   3.2518938827430E+01
(PID.TID 0000.0001) %MON dynstat_theta_min            =  -2.0400287232487E+00
(PID.TID 0000.0001) %MON dynstat_theta_mean           =   3.5905065272124E+00
(PID.TID 0000.0001) %MON dynstat_theta_sd             =   4.4362089401739E+00
(PID.TID 0000.0001) %MON dynstat_theta_del2           =   1.0391078755088E-04
(PID.TID 0000.0001) %MON dynstat_salt_max             =   4.0711388819993E+01
(PID.TID 0000.0001) %MON dynstat_salt_min             =   1.8573623248207E+01
(PID.TID 0000.0001) %MON dynstat_salt_mean            =   3.4725614497854E+01
(PID.TID 0000.0001) %MON dynstat_salt_sd              =   3.7709498126730E-01
(PID.TID 0000.0001) %MON dynstat_salt_del2            =   2.8749787472947E-05
(PID.TID 0000.0001) %MON dynstat_sst_max              =   3.2477367846055E+01
(PID.TID 0000.0001) %MON dynstat_sst_min              =  -1.8870013572559E+00
(PID.TID 0000.0001) %MON dynstat_sst_mean             =   1.8483497226221E+01
(PID.TID 0000.0001) %MON dynstat_sst_sd               =   1.0111998176403E+01
(PID.TID 0000.0001) %MON dynstat_sst_del2             =   8.2619405602536E-04
(PID.TID 0000.0001) %MON dynstat_sss_max              =   3.9391883682903E+01
(PID.TID 0000.0001) %MON dynstat_sss_min              =   1.8573623248207E+01
(PID.TID 0000.0001) %MON dynstat_sss_mean             =   3.4687680278843E+01
(PID.TID 0000.0001) %MON dynstat_sss_sd               =   1.1278210405244E+00
(PID.TID 0000.0001) %MON dynstat_sss_del2             =   6.8041680400345E-04
(PID.TID 0000.0001) %MON forcing_qnet_max             =   1.9074385986328E+03
(PID.TID 0000.0001) %MON forcing_qnet_min             =  -8.5834270501438E+02
(PID.TID 0000.0001) %MON forcing_qnet_mean            =  -5.0145999091653E+00
(PID.TID 0000.0001) %MON forcing_qnet_sd              =   1.8456415540137E+02
(PID.TID 0000.0001) %MON forcing_qnet_del2            =   3.8283165142976E-01
(PID.TID 0000.0001) %MON forcing_qsw_max              =   0.0000000000000E+00
(PID.TID 0000.0001) %MON forcing_qsw_min              =  -1.0733129737710E+02
(PID.TID 0000.0001) %MON forcing_qsw_mean             =  -1.9973684385103E+01
(PID.TID 0000.0001) %MON forcing_qsw_sd               =   2.8898009814564E+01
(PID.TID 0000.0001) %MON forcing_qsw_del2             =   2.0149284028046E-02
(PID.TID 0000.0001) %MON forcing_empmr_max            =   1.4784071827307E-03
(PID.TID 0000.0001) %MON forcing_empmr_min            =  -1.1675345897675E-01
(PID.TID 0000.0001) %MON forcing_empmr_mean           =  -4.1012064065975E-06
(PID.TID 0000.0001) %MON forcing_empmr_sd             =   4.5382620630202E-04
(PID.TID 0000.0001) %MON forcing_empmr_del2           =   4.7700796354163E-06
(PID.TID 0000.0001) %MON forcing_fu_max               =   8.4305688345624E-01
(PID.TID 0000.0001) %MON forcing_fu_min               =  -8.6762233020547E-01
(PID.TID 0000.0001) %MON forcing_fu_mean              =   9.5497890030232E-03
(PID.TID 0000.0001) %MON forcing_fu_sd                =   1.0160336790893E-01
(PID.TID 0000.0001) %MON forcing_fu_del2              =   1.3584580509751E-04
(PID.TID 0000.0001) %MON forcing_fv_max               =   9.7951099618207E-01
(PID.TID 0000.0001) %MON forcing_fv_min               =  -7.6905576406875E-01
(PID.TID 0000.0001) %MON forcing_fv_mean              =  -8.9059034066272E-03
(PID.TID 0000.0001) %MON forcing_fv_sd                =   1.0205656658343E-01
(PID.TID 0000.0001) %MON forcing_fv_del2              =   1.1742067844865E-04
(PID.TID 0000.0001) %MON trAdv_CFL_u_max              =   1.1256946608140E-02
(PID.TID 0000.0001) %MON trAdv_CFL_v_max              =   1.2906394669392E-02
(PID.TID 0000.0001) %MON trAdv_CFL_w_max              =   5.0284204173842E-02
(PID.TID 0000.0001) %MON advcfl_uvel_max              =   8.8775186270333E-03
(PID.TID 0000.0001) %MON advcfl_vvel_max              =   9.5765478124744E-03
(PID.TID 0000.0001) %MON advcfl_wvel_max              =   4.6179083552969E-02
(PID.TID 0000.0001) %MON advcfl_W_hf_max              =   4.7289685880074E-02
(PID.TID 0000.0001) %MON pe_b_mean                    =   6.8045004355965E-06
(PID.TID 0000.0001) %MON ke_max                       =   4.2336055175137E-01
(PID.TID 0000.0001) %MON ke_mean                      =   4.6152486480894E-04
(PID.TID 0000.0001) %MON ke_vol                       =   1.3349970198673E+18
(PID.TID 0000.0001) %MON vort_r_min                   =  -1.2806308522983E-05
(PID.TID 0000.0001) %MON vort_r_max                   =   1.4720508946182E-05
(PID.TID 0000.0001) %MON vort_a_mean                  =  -1.9727864647440E-05
(PID.TID 0000.0001) %MON vort_a_sd                    =   7.4542930202735E-05
(PID.TID 0000.0001) %MON vort_p_mean                  =  -2.1760724246099E-05
(PID.TID 0000.0001) %MON vort_p_sd                    =   9.7249297711148E-05
(PID.TID 0000.0001) %MON surfExpan_theta_mean         =   7.3841494712150E-07
(PID.TID 0000.0001) %MON surfExpan_salt_mean          =   8.6836337550273E-08
(PID.TID 0000.0001) // =======================================================
(PID.TID 0000.0001) // End MONITOR dynamic field statistics
(PID.TID 0000.0001) // =======================================================
(PID.TID 0000.0001) // =======================================================
(PID.TID 0000.0001) // Begin MONITOR SEAICE statistics
(PID.TID 0000.0001) // =======================================================
(PID.TID 0000.0001) %MON seaice_tsnumber              =                    88
(PID.TID 0000.0001) %MON seaice_time_sec              =   7.9200000000000E+04
(PID.TID 0000.0001) %MON seaice_uice_max              =   6.3997405713182E-01
(PID.TID 0000.0001) %MON seaice_uice_min              =  -6.3428425928689E-01
(PID.TID 0000.0001) %MON seaice_uice_mean             =  -1.8743863918185E-03
(PID.TID 0000.0001) %MON seaice_uice_sd               =   1.4131843019768E-01
(PID.TID 0000.0001) %MON seaice_uice_del2             =   1.9520912929628E-04
(PID.TID 0000.0001) %MON seaice_vice_max              =   5.6089940494797E-01
(PID.TID 0000.0001) %MON seaice_vice_min              =  -9.1253579372355E-01
(PID.TID 0000.0001) %MON seaice_vice_mean             =  -2.4308590401165E-02
(PID.TID 0000.0001) %MON seaice_vice_sd               =   1.3177389358164E-01
(PID.TID 0000.0001) %MON seaice_vice_del2             =   1.6399917307518E-04
(PID.TID 0000.0001) %MON seaice_area_max              =   1.0000000000000E+00
(PID.TID 0000.0001) %MON seaice_area_min              =   0.0000000000000E+00
(PID.TID 0000.0001) %MON seaice_area_mean             =   7.0731603042438E-02
(PID.TID 0000.0001) %MON seaice_area_sd               =   2.3628643411816E-01
(PID.TID 0000.0001) %MON seaice_area_del2             =   3.5281866310508E-04
(PID.TID 0000.0001) %MON seaice_heff_max              =   2.5423178342193E+01
(PID.TID 0000.0001) %MON seaice_heff_min              =   0.0000000000000E+00
(PID.TID 0000.0001) %MON seaice_heff_mean             =   2.1685199944227E-01
(PID.TID 0000.0001) %MON seaice_heff_sd               =   1.0620740803671E+00
(PID.TID 0000.0001) %MON seaice_heff_del2             =   2.9843695436221E-03
(PID.TID 0000.0001) %MON seaice_hsnow_max             =   8.3969977634690E+00
(PID.TID 0000.0001) %MON seaice_hsnow_min             =   0.0000000000000E+00
(PID.TID 0000.0001) %MON seaice_hsnow_mean            =   2.4555672946018E-02
(PID.TID 0000.0001) %MON seaice_hsnow_sd              =   1.5182971590122E-01
(PID.TID 0000.0001) %MON seaice_hsnow_del2            =   9.4184811681267E-04
(PID.TID 0000.0001) // =======================================================
(PID.TID 0000.0001) // End MONITOR SEAICE statistics
(PID.TID 0000.0001) // =======================================================
 Computing Diagnostic #     86  oceQnet      Counter:       4   Parms: SM      U1      
 Computing Diagnostic #     87  oceQsw       Counter:       4   Parms: SM      U1      
 Computing Diagnostic #     84  oceFWflx     Counter:       4   Parms: SM      U1      
 Computing Diagnostic #     85  oceSflux     Counter:       4   Parms: SM      U1      
 Computing Diagnostic #     80  oceTAUX      Counter:       4   Parms: UU      U1      
           Vector  Mate for  oceTAUX      Diagnostic #     81  oceTAUY  exists 
 Computing Diagnostic #     81  oceTAUY      Counter:       4   Parms: VV      U1      
           Vector  Mate for  oceTAUY      Diagnostic #     80  oceTAUX  exists 
 Computing Diagnostic #     26  THETA        Counter:       4   Parms: SMR     MR      
 Computing Diagnostic #     27  SALT         Counter:       4   Parms: SMR     MR      
 Computing Diagnostic #     30  UVEL         Counter:       4   Parms: UUR     MR      
           Vector  Mate for  UVEL         Diagnostic #     31  VVEL     exists 
 Computing Diagnostic #     31  VVEL         Counter:       4   Parms: VVR     MR      
           Vector  Mate for  VVEL         Diagnostic #     30  UVEL     exists 
 Computing Diagnostic #    214  SIarea       Counter:       4   Parms: SM      M1      
 Computing Diagnostic #    217  SIheff       Counter:       4   Parms: SM      M1      
 Computing Diagnostic #    219  SIhsnow      Counter:       4   Parms: SM      M1      
 Computing Diagnostic #     83  sIceLoad     Counter:       4   Parms: SM      U1      
 Computing Diagnostic #    223  SIuice       Counter:       4   Parms: UU      M1      
           Vector  Mate for  SIuice       Diagnostic #    224  SIvice   exists 
 Computing Diagnostic #    224  SIvice       Counter:       4   Parms: VV      M1      
           Vector  Mate for  SIvice       Diagnostic #    223  SIuice   exists 
 Computing Diagnostic #    225  SItaux       Counter:       4   Parms: UU      U1      
           Vector  Mate for  SItaux       Diagnostic #    226  SItauy   exists 
 Computing Diagnostic #    226  SItauy       Counter:       4   Parms: VV      U1      
           Vector  Mate for  SItauy       Diagnostic #    225  SItaux   exists 
 Computing Diagnostic #    285  SIareaN      Counter:       4   Parms: SM      MX      
 Computing Diagnostic #    284  SIheffN      Counter:       4   Parms: SM      MX      
 Computing Diagnostic #    286  SIhsnowN     Counter:       4   Parms: SM      MX      
 Computing Diagnostic #    290  SIqSnow      Counter:       4   Parms: SM      MX      
 Computing Diagnostic #    291  SImeltPd     Counter:       4   Parms: SM      MX      
 Computing Diagnostic #    288  SItIces      Counter:       4   Parms: SM      MX      
 Computing Diagnostic #    292  SIiceAge     Counter:       4   Parms: SM      MX      
 Computing Diagnostic #    293  SI_dArea     Counter:       4   Parms: SM      MX      
 Computing Diagnostic #    294  SI_dHeff     Counter:       4   Parms: SM      MX      
 Computing Diagnostic #    295  SI_dHsnw     Counter:       4   Parms: SM      MX      
 Computing Diagnostic #    298  SI_dQSnw     Counter:       4   Parms: SM      MX      
 Compute Stats, Diag. #    214  SIarea    vol(   0 ): 1.432E+15  Parms: SM      M1      
 Compute Stats, Diag. #    217  SIheff    vol(   0 ): 1.432E+15  Parms: SM      M1      
 Compute Stats, Diag. #    219  SIhsnow   vol(   0 ): 1.432E+15  Parms: SM      M1      
 Compute Stats, Diag. #     83  sIceLoad  vol(   0 ): 1.432E+15  Parms: SM      U1      
 Compute Stats, Diag. #    223  SIuice    vol(   0 ): 1.405E+15  Parms: UU      M1      
 Compute Stats, Diag. #    224  SIvice    vol(   0 ): 1.403E+15  Parms: VV      M1      
 Compute Stats, Diag. #    225  SItaux    vol(   0 ): 1.405E+15  Parms: UU      U1      
 Compute Stats, Diag. #    226  SItauy    vol(   0 ): 1.403E+15  Parms: VV      U1      
 Compute Stats, Diag. #    285  SIareaN   vol(   0 ): 7.160E+15  Parms: SM      MX      
 Compute Stats, Diag. #    284  SIheffN   vol(   0 ): 7.160E+15  Parms: SM      MX      
 Compute Stats, Diag. #    286  SIhsnowN  vol(   0 ): 7.160E+15  Parms: SM      MX      
 Compute Stats, Diag. #    290  SIqSnow   vol(   0 ): 7.160E+15  Parms: SM      MX      
 Compute Stats, Diag. #    289  SIqIce    vol(   0 ): 2.864E+16  Parms: SM      MX      
 Compute Stats, Diag. #    291  SImeltPd  vol(   0 ): 7.160E+15  Parms: SM      MX      
 Compute Stats, Diag. #    288  SItIces   vol(   0 ): 7.160E+15  Parms: SM      MX      
 Compute Stats, Diag. #    292  SIiceAge  vol(   0 ): 7.160E+15  Parms: SM      MX      
 Compute Stats, Diag. #    293  SI_dArea  vol(   0 ): 7.160E+15  Parms: SM      MX      
 Compute Stats, Diag. #    294  SI_dHeff  vol(   0 ): 7.160E+15  Parms: SM      MX      
 Compute Stats, Diag. #    295  SI_dHsnw  vol(   0 ): 7.160E+15  Parms: SM      MX      
 Compute Stats, Diag. #    298  SI_dQSnw  vol(   0 ): 7.160E+15  Parms: SM      MX      
 Compute Stats, Diag. #    297  SI_dQIce  vol(   0 ): 2.864E+16  Parms: SM      MX      
 SEAICE_LSR: Residual Initial ipass,Uice,Vice=    1  7.63827973E-03  7.00330787E-03
 SEAICE_LSR (ipass=   1) iters,dU,Resid=    40  7.55149070E-05  2.72059831E-03
 SEAICE_LSR (ipass=   1) iters,dV,Resid=    40  9.94761401E-05  1.34010384E-03
 SEAICE_LSR: Residual Initial ipass,Uice,Vice=    2  6.25580612E-03  5.23532646E-03
 SEAICE_LSR (ipass=   2) iters,dU,Resid=    22  9.41770800E-05  2.87003394E-03
 SEAICE_LSR (ipass=   2) iters,dV,Resid=    22  9.29496595E-05  1.45566674E-03
 cg2d: Sum(rhs),rhsMax =   7.54471722174847E+01  7.13441075106490E+00
 Computing Diagnostic #    289  SIqIce       Counter:       1   Parms: SM      MX      
 Computing Diagnostic #    297  SI_dQIce     Counter:       1   Parms: SM      MX      
 Computing Diagnostic #    290  SIqSnow      Counter:       1   Parms: SM      MX      
 Computing Diagnostic #    298  SI_dQSnw     Counter:       1   Parms: SM      MX      
 cg2d: Sum(rhs),rhsMax =   7.53328015890406E+01  7.13704938684114E+00
 cg2d: Sum(rhs),rhsMax =   7.52339696526764E+01  7.14012922678825E+00
 cg2d: Sum(rhs),rhsMax =   7.51208492414004E+01  7.14366269136610E+00
 Computing Diagnostic #     86  oceQnet      Counter:       4   Parms: SM      U1      
 Computing Diagnostic #     87  oceQsw       Counter:       4   Parms: SM      U1      
 Computing Diagnostic #     84  oceFWflx     Counter:       4   Parms: SM      U1      
 Computing Diagnostic #     85  oceSflux     Counter:       4   Parms: SM      U1      
 Computing Diagnostic #     80  oceTAUX      Counter:       4   Parms: UU      U1      
           Vector  Mate for  oceTAUX      Diagnostic #     81  oceTAUY  exists 
 Computing Diagnostic #     81  oceTAUY      Counter:       4   Parms: VV      U1      
           Vector  Mate for  oceTAUY      Diagnostic #     80  oceTAUX  exists 
 Computing Diagnostic #     26  THETA        Counter:       4   Parms: SMR     MR      
 Computing Diagnostic #     27  SALT         Counter:       4   Parms: SMR     MR      
 Computing Diagnostic #     30  UVEL         Counter:       4   Parms: UUR     MR      
           Vector  Mate for  UVEL         Diagnostic #     31  VVEL     exists 
 Computing Diagnostic #     31  VVEL         Counter:       4   Parms: VVR     MR      
           Vector  Mate for  VVEL         Diagnostic #     30  UVEL     exists 
 Computing Diagnostic #    214  SIarea       Counter:       4   Parms: SM      M1      
 Computing Diagnostic #    217  SIheff       Counter:       4   Parms: SM      M1      
 Computing Diagnostic #    219  SIhsnow      Counter:       4   Parms: SM      M1      
 Computing Diagnostic #     83  sIceLoad     Counter:       4   Parms: SM      U1      
 Computing Diagnostic #    223  SIuice       Counter:       4   Parms: UU      M1      
           Vector  Mate for  SIuice       Diagnostic #    224  SIvice   exists 
 Computing Diagnostic #    224  SIvice       Counter:       4   Parms: VV      M1      
           Vector  Mate for  SIvice       Diagnostic #    223  SIuice   exists 
 Computing Diagnostic #    225  SItaux       Counter:       4   Parms: UU      U1      
           Vector  Mate for  SItaux       Diagnostic #    226  SItauy   exists 
 Computing Diagnostic #    226  SItauy       Counter:       4   Parms: VV      U1      
           Vector  Mate for  SItauy       Diagnostic #    225  SItaux   exists 
 Computing Diagnostic #    285  SIareaN      Counter:       4   Parms: SM      MX      
 Computing Diagnostic #    284  SIheffN      Counter:       4   Parms: SM      MX      
 Computing Diagnostic #    286  SIhsnowN     Counter:       4   Parms: SM      MX      
 Computing Diagnostic #    290  SIqSnow      Counter:       4   Parms: SM      MX      
 Computing Diagnostic #    291  SImeltPd     Counter:       4   Parms: SM      MX      
 Computing Diagnostic #    288  SItIces      Counter:       4   Parms: SM      MX      
 Computing Diagnostic #    292  SIiceAge     Counter:       4   Parms: SM      MX      
 Computing Diagnostic #    293  SI_dArea     Counter:       4   Parms: SM      MX      
 Computing Diagnostic #    294  SI_dHeff     Counter:       4   Parms: SM      MX      
 Computing Diagnostic #    295  SI_dHsnw     Counter:       4   Parms: SM      MX      
 Computing Diagnostic #    298  SI_dQSnw     Counter:       4   Parms: SM      MX      
 Compute Stats, Diag. #    214  SIarea    vol(   0 ): 1.432E+15  Parms: SM      M1      
 Compute Stats, Diag. #    217  SIheff    vol(   0 ): 1.432E+15  Parms: SM      M1      
 Compute Stats, Diag. #    219  SIhsnow   vol(   0 ): 1.432E+15  Parms: SM      M1      
 Compute Stats, Diag. #     83  sIceLoad  vol(   0 ): 1.432E+15  Parms: SM      U1      
 Compute Stats, Diag. #    223  SIuice    vol(   0 ): 1.405E+15  Parms: UU      M1      
 Compute Stats, Diag. #    224  SIvice    vol(   0 ): 1.403E+15  Parms: VV      M1      
 Compute Stats, Diag. #    225  SItaux    vol(   0 ): 1.405E+15  Parms: UU      U1      
 Compute Stats, Diag. #    226  SItauy    vol(   0 ): 1.403E+15  Parms: VV      U1      
 Compute Stats, Diag. #    285  SIareaN   vol(   0 ): 7.160E+15  Parms: SM      MX      
 Compute Stats, Diag. #    284  SIheffN   vol(   0 ): 7.160E+15  Parms: SM      MX      
 Compute Stats, Diag. #    286  SIhsnowN  vol(   0 ): 7.160E+15  Parms: SM      MX      
 Compute Stats, Diag. #    290  SIqSnow   vol(   0 ): 7.160E+15  Parms: SM      MX      
 Compute Stats, Diag. #    289  SIqIce    vol(   0 ): 2.864E+16  Parms: SM      MX      
 Compute Stats, Diag. #    291  SImeltPd  vol(   0 ): 7.160E+15  Parms: SM      MX      
 Compute Stats, Diag. #    288  SItIces   vol(   0 ): 7.160E+15  Parms: SM      MX      
 Compute Stats, Diag. #    292  SIiceAge  vol(   0 ): 7.160E+15  Parms: SM      MX      
 Compute Stats, Diag. #    293  SI_dArea  vol(   0 ): 7.160E+15  Parms: SM      MX      
 Compute Stats, Diag. #    294  SI_dHeff  vol(   0 ): 7.160E+15  Parms: SM      MX      
 Compute Stats, Diag. #    295  SI_dHsnw  vol(   0 ): 7.160E+15  Parms: SM      MX      
 Compute Stats, Diag. #    298  SI_dQSnw  vol(   0 ): 7.160E+15  Parms: SM      MX      
 Compute Stats, Diag. #    297  SI_dQIce  vol(   0 ): 2.864E+16  Parms: SM      MX      
 cg2d: Sum(rhs),rhsMax =   7.50091868493338E+01  7.14759229914399E+00
 Computing Diagnostic #    289  SIqIce       Counter:       1   Parms: SM      MX      
 Computing Diagnostic #    297  SI_dQIce     Counter:       1   Parms: SM      MX      
 Computing Diagnostic #    290  SIqSnow      Counter:       1   Parms: SM      MX      
 Computing Diagnostic #    298  SI_dQSnw     Counter:       1   Parms: SM      MX      
 cg2d: Sum(rhs),rhsMax =   7.49076850988492E+01  7.15190160689431E+00
 cg2d: Sum(rhs),rhsMax =   7.47798074362690E+01  7.15654462783506E+00
 cg2d: Sum(rhs),rhsMax =   7.46687337245555E+01  7.16137826968122E+00
(PID.TID 0000.0001)      cg2d_init_res =   9.13216493415974E-01
(PID.TID 0000.0001)      cg2d_iters(min,last) =      -1      33
(PID.TID 0000.0001)      cg2d_last_res =   2.20807402585389E-05
(PID.TID 0000.0001) // =======================================================
(PID.TID 0000.0001) // Begin MONITOR dynamic field statistics
(PID.TID 0000.0001) // =======================================================
(PID.TID 0000.0001) %MON time_tsnumber                =                    96
(PID.TID 0000.0001) %MON time_secondsf                =   8.6400000000000E+04
(PID.TID 0000.0001) %MON dynstat_eta_max              =   9.9268710138642E+00
(PID.TID 0000.0001) %MON dynstat_eta_min              =  -4.4730734231196E+00
(PID.TID 0000.0001) %MON dynstat_eta_mean             =  -2.3620105238200E-03
(PID.TID 0000.0001) %MON dynstat_eta_sd               =   9.1446996477748E-01
(PID.TID 0000.0001) %MON dynstat_eta_del2             =   3.6705458564915E-03
(PID.TID 0000.0001) %MON dynstat_uvel_max             =   6.7002891078266E-01
(PID.TID 0000.0001) %MON dynstat_uvel_min             =  -6.6029657323923E-01
(PID.TID 0000.0001) %MON dynstat_uvel_mean            =   1.0720934724546E-03
(PID.TID 0000.0001) %MON dynstat_uvel_sd              =   2.0825105317932E-02
(PID.TID 0000.0001) %MON dynstat_uvel_del2            =   1.0513228315978E-05
(PID.TID 0000.0001) %MON dynstat_vvel_max             =   6.3615342787247E-01
(PID.TID 0000.0001) %MON dynstat_vvel_min             =  -9.0715274208928E-01
(PID.TID 0000.0001) %MON dynstat_vvel_mean            =   9.9578216379855E-04
(PID.TID 0000.0001) %MON dynstat_vvel_sd              =   2.2495757601951E-02
(PID.TID 0000.0001) %MON dynstat_vvel_del2            =   1.0852356790182E-05
(PID.TID 0000.0001) %MON dynstat_wvel_max             =   1.1438501171561E-03
(PID.TID 0000.0001) %MON dynstat_wvel_min             =  -2.0228149437670E-03
(PID.TID 0000.0001) %MON dynstat_wvel_mean            =   9.0507278924727E-08
(PID.TID 0000.0001) %MON dynstat_wvel_sd              =   2.9147822256176E-05
(PID.TID 0000.0001) %MON dynstat_wvel_del2            =   3.5085635260559E-08
(PID.TID 0000.0001) %MON dynstat_theta_max            =   3.2495211747351E+01
(PID.TID 0000.0001) %MON dynstat_theta_min            =  -2.0399712730259E+00
(PID.TID 0000.0001) %MON dynstat_theta_mean           =   3.5905125519102E+00
(PID.TID 0000.0001) %MON dynstat_theta_sd             =   4.4362432215696E+00
(PID.TID 0000.0001) %MON dynstat_theta_del2           =   1.0342420433766E-04
(PID.TID 0000.0001) %MON dynstat_salt_max             =   4.0711387284383E+01
(PID.TID 0000.0001) %MON dynstat_salt_min             =   1.7525606906115E+01
(PID.TID 0000.0001) %MON dynstat_salt_mean            =   3.4725611040038E+01
(PID.TID 0000.0001) %MON dynstat_salt_sd              =   3.7708285137774E-01
(PID.TID 0000.0001) %MON dynstat_salt_del2            =   2.8826357672683E-05
(PID.TID 0000.0001) %MON dynstat_sst_max              =   3.2459652214629E+01
(PID.TID 0000.0001) %MON dynstat_sst_min              =  -1.8829725765360E+00
(PID.TID 0000.0001) %MON dynstat_sst_mean             =   1.8485579708482E+01
(PID.TID 0000.0001) %MON dynstat_sst_sd               =   1.0114836576970E+01
(PID.TID 0000.0001) %MON dynstat_sst_del2             =   8.2258475667627E-04
(PID.TID 0000.0001) %MON dynstat_sss_max              =   3.9377605272778E+01
(PID.TID 0000.0001) %MON dynstat_sss_min              =   1.7525606906115E+01
(PID.TID 0000.0001) %MON dynstat_sss_mean             =   3.4688319256241E+01
(PID.TID 0000.0001) %MON dynstat_sss_sd               =   1.1288316830849E+00
(PID.TID 0000.0001) %MON dynstat_sss_del2             =   6.9363508903535E-04
(PID.TID 0000.0001) %MON forcing_qnet_max             =   2.0103597412109E+03
(PID.TID 0000.0001) %MON forcing_qnet_min             =  -7.6698632812500E+02
(PID.TID 0000.0001) %MON forcing_qnet_mean            =  -1.8630697988525E+01
(PID.TID 0000.0001) %MON forcing_qnet_sd              =   1.9906102103525E+02
(PID.TID 0000.0001) %MON forcing_qnet_del2            =   3.7761541928339E-01
(PID.TID 0000.0001) %MON forcing_qsw_max              =   0.0000000000000E+00
(PID.TID 0000.0001) %MON forcing_qsw_min              =  -1.0423903150506E+02
(PID.TID 0000.0001) %MON forcing_qsw_mean             =  -2.1880791763122E+01
(PID.TID 0000.0001) %MON forcing_qsw_sd               =   3.0262035580029E+01
(PID.TID 0000.0001) %MON forcing_qsw_del2             =   1.9218990866653E-02
(PID.TID 0000.0001) %MON forcing_empmr_max            =   1.3521321816370E-03
(PID.TID 0000.0001) %MON forcing_empmr_min            =  -1.0341317951679E-01
(PID.TID 0000.0001) %MON forcing_empmr_mean           =  -4.0172345761669E-06
(PID.TID 0000.0001) %MON forcing_empmr_sd             =   4.0875201682799E-04
(PID.TID 0000.0001) %MON forcing_empmr_del2           =   4.2668093844789E-06
(PID.TID 0000.0001) %MON forcing_fu_max               =   8.0569856603842E-01
(PID.TID 0000.0001) %MON forcing_fu_min               =  -9.6558939515952E-01
(PID.TID 0000.0001) %MON forcing_fu_mean              =   9.1549755266737E-03
(PID.TID 0000.0001) %MON forcing_fu_sd                =   1.0076174691095E-01
(PID.TID 0000.0001) %MON forcing_fu_del2              =   1.3524776039842E-04
(PID.TID 0000.0001) %MON forcing_fv_max               =   1.0351354525222E+00
(PID.TID 0000.0001) %MON forcing_fv_min               =  -7.3739839652615E-01
(PID.TID 0000.0001) %MON forcing_fv_mean              =  -9.2908658868338E-03
(PID.TID 0000.0001) %MON forcing_fv_sd                =   1.0181916106682E-01
(PID.TID 0000.0001) %MON forcing_fv_del2              =   1.1728833674546E-04
(PID.TID 0000.0001) %MON trAdv_CFL_u_max              =   1.1097156781907E-02
(PID.TID 0000.0001) %MON trAdv_CFL_v_max              =   1.2191732816456E-02
(PID.TID 0000.0001) %MON trAdv_CFL_w_max              =   5.2515841420116E-02
(PID.TID 0000.0001) %MON advcfl_uvel_max              =   8.8134493466507E-03
(PID.TID 0000.0001) %MON advcfl_vvel_max              =   9.7451687268316E-03
(PID.TID 0000.0001) %MON advcfl_wvel_max              =   4.5948767724083E-02
(PID.TID 0000.0001) %MON advcfl_W_hf_max              =   4.8078507323364E-02
(PID.TID 0000.0001) %MON pe_b_mean                    =  -1.4504817499538E-06
(PID.TID 0000.0001) %MON ke_max                       =   4.1975437618938E-01
(PID.TID 0000.0001) %MON ke_mean                      =   4.5416941301119E-04
(PID.TID 0000.0001) %MON ke_vol                       =   1.3349970300489E+18
(PID.TID 0000.0001) %MON vort_r_min                   =  -1.2922904321432E-05
(PID.TID 0000.0001) %MON vort_r_max                   =   1.4859091630972E-05
(PID.TID 0000.0001) %MON vort_a_mean                  =  -1.9727864647440E-05
(PID.TID 0000.0001) %MON vort_a_sd                    =   7.4542984699856E-05
(PID.TID 0000.0001) %MON vort_p_mean                  =  -2.1760724933400E-05
(PID.TID 0000.0001) %MON vort_p_sd                    =   9.7249610386833E-05
(PID.TID 0000.0001) %MON surfExpan_theta_mean         =   4.3037283938409E-07
(PID.TID 0000.0001) %MON surfExpan_salt_mean          =   1.0721825661391E-07
(PID.TID 0000.0001) // =======================================================
(PID.TID 0000.0001) // End MONITOR dynamic field statistics
(PID.TID 0000.0001) // =======================================================
(PID.TID 0000.0001) // =======================================================
(PID.TID 0000.0001) // Begin MONITOR SEAICE statistics
(PID.TID 0000.0001) // =======================================================
(PID.TID 0000.0001) %MON seaice_tsnumber              =                    96
(PID.TID 0000.0001) %MON seaice_time_sec              =   8.6400000000000E+04
(PID.TID 0000.0001) %MON seaice_uice_max              =   6.6678405039624E-01
(PID.TID 0000.0001) %MON seaice_uice_min              =  -6.5775177944197E-01
(PID.TID 0000.0001) %MON seaice_uice_mean             =  -1.9747267003363E-03
(PID.TID 0000.0001) %MON seaice_uice_sd               =   1.3994580101172E-01
(PID.TID 0000.0001) %MON seaice_uice_del2             =   1.9276289865533E-04
(PID.TID 0000.0001) %MON seaice_vice_max              =   5.6692172335761E-01
(PID.TID 0000.0001) %MON seaice_vice_min              =  -9.0788245525683E-01
(PID.TID 0000.0001) %MON seaice_vice_mean             =  -2.6695690893722E-02
(PID.TID 0000.0001) %MON seaice_vice_sd               =   1.3069697830527E-01
(PID.TID 0000.0001) %MON seaice_vice_del2             =   1.6205691034025E-04
(PID.TID 0000.0001) %MON seaice_area_max              =   1.0000000000000E+00
(PID.TID 0000.0001) %MON seaice_area_min              =   0.0000000000000E+00
(PID.TID 0000.0001) %MON seaice_area_mean             =   7.0643025462471E-02
(PID.TID 0000.0001) %MON seaice_area_sd               =   2.3616837589669E-01
(PID.TID 0000.0001) %MON seaice_area_del2             =   3.4759055500967E-04
(PID.TID 0000.0001) %MON seaice_heff_max              =   2.5419453161429E+01
(PID.TID 0000.0001) %MON seaice_heff_min              =   0.0000000000000E+00
(PID.TID 0000.0001) %MON seaice_heff_mean             =   2.1682023970469E-01
(PID.TID 0000.0001) %MON seaice_heff_sd               =   1.0618507349151E+00
(PID.TID 0000.0001) %MON seaice_heff_del2             =   2.9516808495411E-03
(PID.TID 0000.0001) %MON seaice_hsnow_max             =   8.3958014474518E+00
(PID.TID 0000.0001) %MON seaice_hsnow_min             =   0.0000000000000E+00
(PID.TID 0000.0001) %MON seaice_hsnow_mean            =   2.4548853268979E-02
(PID.TID 0000.0001) %MON seaice_hsnow_sd              =   1.5160650101111E-01
(PID.TID 0000.0001) %MON seaice_hsnow_del2            =   9.3093943375084E-04
(PID.TID 0000.0001) // =======================================================
(PID.TID 0000.0001) // End MONITOR SEAICE statistics
(PID.TID 0000.0001) // =======================================================
 Computing Diagnostic #     86  oceQnet      Counter:       4   Parms: SM      U1      
 Computing Diagnostic #     87  oceQsw       Counter:       4   Parms: SM      U1      
 Computing Diagnostic #     84  oceFWflx     Counter:       4   Parms: SM      U1      
 Computing Diagnostic #     85  oceSflux     Counter:       4   Parms: SM      U1      
 Computing Diagnostic #     80  oceTAUX      Counter:       4   Parms: UU      U1      
           Vector  Mate for  oceTAUX      Diagnostic #     81  oceTAUY  exists 
 Computing Diagnostic #     81  oceTAUY      Counter:       4   Parms: VV      U1      
           Vector  Mate for  oceTAUY      Diagnostic #     80  oceTAUX  exists 
 Computing Diagnostic #     26  THETA        Counter:       4   Parms: SMR     MR      
 Computing Diagnostic #     27  SALT         Counter:       4   Parms: SMR     MR      
 Computing Diagnostic #     30  UVEL         Counter:       4   Parms: UUR     MR      
           Vector  Mate for  UVEL         Diagnostic #     31  VVEL     exists 
 Computing Diagnostic #     31  VVEL         Counter:       4   Parms: VVR     MR      
           Vector  Mate for  VVEL         Diagnostic #     30  UVEL     exists 
 Computing Diagnostic #    214  SIarea       Counter:       4   Parms: SM      M1      
 Computing Diagnostic #    217  SIheff       Counter:       4   Parms: SM      M1      
 Computing Diagnostic #    219  SIhsnow      Counter:       4   Parms: SM      M1      
 Computing Diagnostic #     83  sIceLoad     Counter:       4   Parms: SM      U1      
 Computing Diagnostic #    223  SIuice       Counter:       4   Parms: UU      M1      
           Vector  Mate for  SIuice       Diagnostic #    224  SIvice   exists 
 Computing Diagnostic #    224  SIvice       Counter:       4   Parms: VV      M1      
           Vector  Mate for  SIvice       Diagnostic #    223  SIuice   exists 
 Computing Diagnostic #    225  SItaux       Counter:       4   Parms: UU      U1      
           Vector  Mate for  SItaux       Diagnostic #    226  SItauy   exists 
 Computing Diagnostic #    226  SItauy       Counter:       4   Parms: VV      U1      
           Vector  Mate for  SItauy       Diagnostic #    225  SItaux   exists 
 Computing Diagnostic #    285  SIareaN      Counter:       4   Parms: SM      MX      
 Computing Diagnostic #    284  SIheffN      Counter:       4   Parms: SM      MX      
 Computing Diagnostic #    286  SIhsnowN     Counter:       4   Parms: SM      MX      
 Computing Diagnostic #    290  SIqSnow      Counter:       4   Parms: SM      MX      
 Computing Diagnostic #    291  SImeltPd     Counter:       4   Parms: SM      MX      
 Computing Diagnostic #    288  SItIces      Counter:       4   Parms: SM      MX      
 Computing Diagnostic #    292  SIiceAge     Counter:       4   Parms: SM      MX      
 Computing Diagnostic #    293  SI_dArea     Counter:       4   Parms: SM      MX      
 Computing Diagnostic #    294  SI_dHeff     Counter:       4   Parms: SM      MX      
 Computing Diagnostic #    295  SI_dHsnw     Counter:       4   Parms: SM      MX      
 Computing Diagnostic #    298  SI_dQSnw     Counter:       4   Parms: SM      MX      
 Compute Stats, Diag. #    214  SIarea    vol(   0 ): 1.432E+15  Parms: SM      M1      
 Compute Stats, Diag. #    217  SIheff    vol(   0 ): 1.432E+15  Parms: SM      M1      
 Compute Stats, Diag. #    219  SIhsnow   vol(   0 ): 1.432E+15  Parms: SM      M1      
 Compute Stats, Diag. #     83  sIceLoad  vol(   0 ): 1.432E+15  Parms: SM      U1      
 Compute Stats, Diag. #    223  SIuice    vol(   0 ): 1.405E+15  Parms: UU      M1      
 Compute Stats, Diag. #    224  SIvice    vol(   0 ): 1.403E+15  Parms: VV      M1      
 Compute Stats, Diag. #    225  SItaux    vol(   0 ): 1.405E+15  Parms: UU      U1      
 Compute Stats, Diag. #    226  SItauy    vol(   0 ): 1.403E+15  Parms: VV      U1      
 Compute Stats, Diag. #    285  SIareaN   vol(   0 ): 7.160E+15  Parms: SM      MX      
 Compute Stats, Diag. #    284  SIheffN   vol(   0 ): 7.160E+15  Parms: SM      MX      
 Compute Stats, Diag. #    286  SIhsnowN  vol(   0 ): 7.160E+15  Parms: SM      MX      
 Compute Stats, Diag. #    290  SIqSnow   vol(   0 ): 7.160E+15  Parms: SM      MX      
 Compute Stats, Diag. #    289  SIqIce    vol(   0 ): 2.864E+16  Parms: SM      MX      
 Compute Stats, Diag. #    291  SImeltPd  vol(   0 ): 7.160E+15  Parms: SM      MX      
 Compute Stats, Diag. #    288  SItIces   vol(   0 ): 7.160E+15  Parms: SM      MX      
 Compute Stats, Diag. #    292  SIiceAge  vol(   0 ): 7.160E+15  Parms: SM      MX      
 Compute Stats, Diag. #    293  SI_dArea  vol(   0 ): 7.160E+15  Parms: SM      MX      
 Compute Stats, Diag. #    294  SI_dHeff  vol(   0 ): 7.160E+15  Parms: SM      MX      
 Compute Stats, Diag. #    295  SI_dHsnw  vol(   0 ): 7.160E+15  Parms: SM      MX      
 Compute Stats, Diag. #    298  SI_dQSnw  vol(   0 ): 7.160E+15  Parms: SM      MX      
 Compute Stats, Diag. #    297  SI_dQIce  vol(   0 ): 2.864E+16  Parms: SM      MX      
(PID.TID 0000.0001) %CHECKPOINT        96 0000000096
 SEAICE_LSR: Residual Initial ipass,Uice,Vice=    1  6.72726472E-03  5.69351349E-03
 SEAICE_LSR (ipass=   1) iters,dU,Resid=    50  5.48591772E-05  1.86351344E-03
 SEAICE_LSR (ipass=   1) iters,dV,Resid=    50  9.80792077E-05  1.25009450E-03
 SEAICE_LSR: Residual Initial ipass,Uice,Vice=    2  5.71459384E-03  5.08072920E-03
 SEAICE_LSR (ipass=   2) iters,dU,Resid=    22  6.03692202E-05  2.10755079E-03
 SEAICE_LSR (ipass=   2) iters,dV,Resid=    22  9.90484778E-05  1.41736794E-03
 cg2d: Sum(rhs),rhsMax =   7.45678758666623E+01  7.16623479278495E+00
 Computing Diagnostic #     86  oceQnet      Counter:       1   Parms: SM      U1      
 Computing Diagnostic #     87  oceQsw       Counter:       1   Parms: SM      U1      
 Computing Diagnostic #     84  oceFWflx     Counter:       1   Parms: SM      U1      
 Computing Diagnostic #     85  oceSflux     Counter:       1   Parms: SM      U1      
 Computing Diagnostic #     80  oceTAUX      Counter:       1   Parms: UU      U1      
           Vector  Mate for  oceTAUX      Diagnostic #     81  oceTAUY  exists 
 Computing Diagnostic #     81  oceTAUY      Counter:       1   Parms: VV      U1      
           Vector  Mate for  oceTAUY      Diagnostic #     80  oceTAUX  exists 
 Computing Diagnostic #     26  THETA        Counter:       1   Parms: SMR     MR      
 Computing Diagnostic #     27  SALT         Counter:       1   Parms: SMR     MR      
 Computing Diagnostic #     30  UVEL         Counter:       1   Parms: UUR     MR      
           Vector  Mate for  UVEL         Diagnostic #     31  VVEL     exists 
 Computing Diagnostic #     31  VVEL         Counter:       1   Parms: VVR     MR      
           Vector  Mate for  VVEL         Diagnostic #     30  UVEL     exists 
 Computing Diagnostic #    214  SIarea       Counter:       1   Parms: SM      M1      
 Computing Diagnostic #    217  SIheff       Counter:       1   Parms: SM      M1      
 Computing Diagnostic #    219  SIhsnow      Counter:       1   Parms: SM      M1      
 Computing Diagnostic #     83  sIceLoad     Counter:       1   Parms: SM      U1      
 Computing Diagnostic #    223  SIuice       Counter:       1   Parms: UU      M1      
           Vector  Mate for  SIuice       Diagnostic #    224  SIvice   exists 
 Computing Diagnostic #    224  SIvice       Counter:       1   Parms: VV      M1      
           Vector  Mate for  SIvice       Diagnostic #    223  SIuice   exists 
 Computing Diagnostic #    225  SItaux       Counter:       1   Parms: UU      U1      
           Vector  Mate for  SItaux       Diagnostic #    226  SItauy   exists 
 Computing Diagnostic #    226  SItauy       Counter:       1   Parms: VV      U1      
           Vector  Mate for  SItauy       Diagnostic #    225  SItaux   exists 
 Computing Diagnostic #    285  SIareaN      Counter:       1   Parms: SM      MX      
 Computing Diagnostic #    284  SIheffN      Counter:       1   Parms: SM      MX      
 Computing Diagnostic #    286  SIhsnowN     Counter:       1   Parms: SM      MX      
 Computing Diagnostic #    290  SIqSnow      Counter:       1   Parms: SM      MX      
 Computing Diagnostic #    291  SImeltPd     Counter:       1   Parms: SM      MX      
 Computing Diagnostic #    288  SItIces      Counter:       1   Parms: SM      MX      
 Computing Diagnostic #    292  SIiceAge     Counter:       1   Parms: SM      MX      
 Computing Diagnostic #    293  SI_dArea     Counter:       1   Parms: SM      MX      
 Computing Diagnostic #    294  SI_dHeff     Counter:       1   Parms: SM      MX      
 Computing Diagnostic #    295  SI_dHsnw     Counter:       1   Parms: SM      MX      
 Computing Diagnostic #    298  SI_dQSnw     Counter:       1   Parms: SM      MX      
 Computing Diagnostic #    289  SIqIce       Counter:       1   Parms: SM      MX      
 Computing Diagnostic #    297  SI_dQIce     Counter:       1   Parms: SM      MX      
 Computing Diagnostic #    290  SIqSnow      Counter:       1   Parms: SM      MX      
 Computing Diagnostic #    298  SI_dQSnw     Counter:       1   Parms: SM      MX      
 Compute Stats, Diag. #    214  SIarea    vol(   0 ): 3.580E+14  Parms: SM      M1      
 Compute Stats, Diag. #    217  SIheff    vol(   0 ): 3.580E+14  Parms: SM      M1      
 Compute Stats, Diag. #    219  SIhsnow   vol(   0 ): 3.580E+14  Parms: SM      M1      
 Compute Stats, Diag. #     83  sIceLoad  vol(   0 ): 3.580E+14  Parms: SM      U1      
 Compute Stats, Diag. #    223  SIuice    vol(   0 ): 3.513E+14  Parms: UU      M1      
 Compute Stats, Diag. #    224  SIvice    vol(   0 ): 3.508E+14  Parms: VV      M1      
 Compute Stats, Diag. #    225  SItaux    vol(   0 ): 3.513E+14  Parms: UU      U1      
 Compute Stats, Diag. #    226  SItauy    vol(   0 ): 3.508E+14  Parms: VV      U1      
 Compute Stats, Diag. #    285  SIareaN   vol(   0 ): 1.790E+15  Parms: SM      MX      
 Compute Stats, Diag. #    284  SIheffN   vol(   0 ): 1.790E+15  Parms: SM      MX      
 Compute Stats, Diag. #    286  SIhsnowN  vol(   0 ): 1.790E+15  Parms: SM      MX      
 Compute Stats, Diag. #    290  SIqSnow   vol(   0 ): 1.790E+15  Parms: SM      MX      
 Compute Stats, Diag. #    289  SIqIce    vol(   0 ): 7.160E+15  Parms: SM      MX      
 Compute Stats, Diag. #    291  SImeltPd  vol(   0 ): 1.790E+15  Parms: SM      MX      
 Compute Stats, Diag. #    288  SItIces   vol(   0 ): 1.790E+15  Parms: SM      MX      
 Compute Stats, Diag. #    292  SIiceAge  vol(   0 ): 1.790E+15  Parms: SM      MX      
 Compute Stats, Diag. #    293  SI_dArea  vol(   0 ): 1.790E+15  Parms: SM      MX      
 Compute Stats, Diag. #    294  SI_dHeff  vol(   0 ): 1.790E+15  Parms: SM      MX      
 Compute Stats, Diag. #    295  SI_dHsnw  vol(   0 ): 1.790E+15  Parms: SM      MX      
 Compute Stats, Diag. #    298  SI_dQSnw  vol(   0 ): 1.790E+15  Parms: SM      MX      
 Compute Stats, Diag. #    297  SI_dQIce  vol(   0 ): 7.160E+15  Parms: SM      MX      
(PID.TID 0000.0001) DIAGSTATS_CLOSE_IO: close file: iceStDiag.0000000001.txt , unit=    37
(PID.TID 0000.0001) %CHECKPOINT        97 ckptA
